MODEL 1
REMARK VINA RESULT:      -7.4      0.000      0.000
REMARK  Name = 
REMARK  3 active torsions:
REMARK  status: ('A' for Active; 'I' for Inactive)
REMARK    1  A    between atoms: C_1  and  O_2
REMARK    2  A    between atoms: O_2  and  C_3
REMARK    3  A    between atoms: C_6  and  C_7
REMARK                            x       y       z     vdW  Elec       q    Type
REMARK                         _______ _______ _______ _____ _____    ______ ____
ROOT
ATOM      1  C   UNL     1       3.780   3.035  19.320  0.00  0.00    +0.000 C 
ATOM      2  N   UNL     1       2.444   3.654  19.549  0.00  0.00    +0.000 NA
ATOM      3  S   UNL     1       1.292   3.056  18.482  0.00  0.00    +0.000 S 
ATOM      4  O   UNL     1       0.128   2.660  19.230  0.00  0.00    +0.000 OA
ATOM      5  O   UNL     1       1.233   3.924  17.341  0.00  0.00    +0.000 OA
ATOM      6  N   UNL     1       2.166   1.704  18.073  0.00  0.00    +0.000 N 
ATOM      7  C   UNL     1       3.468   1.738  18.564  0.00  0.00    +0.000 C 
ATOM      8  N   UNL     1       4.275   0.758  18.366  0.00  0.00    +0.000 NA
ATOM      9  H   UNL     1       2.442   4.671  19.588  0.00  0.00    +0.000 HD
ATOM     10  H   UNL     1       1.893   1.222  17.226  0.00  0.00    +0.000 HD
ATOM     11  H   UNL     1       3.778   0.015  17.867  0.00  0.00    +0.000 HD
ENDROOT
BRANCH   1  15
ATOM     12  C   UNL     1       6.531   5.649  17.212  0.00  0.00    +0.000 A 
ATOM     13  C   UNL     1       6.497   5.626  18.606  0.00  0.00    +0.000 A 
ATOM     14  C   UNL     1       5.614   4.779  19.286  0.00  0.00    +0.000 A 
ATOM     15  C   UNL     1       4.737   3.946  18.577  0.00  0.00    +0.000 A 
ATOM     16  C   UNL     1       4.771   3.994  17.175  0.00  0.00    +0.000 A 
ATOM     17  C   UNL     1       5.653   4.840  16.499  0.00  0.00    +0.000 A 
BRANCH  12  19
ATOM     18  C   UNL     1       7.653   7.717  17.381  0.00  0.00    +0.000 C 
ATOM     19  O   UNL     1       7.429   6.514  16.652  0.00  0.00    +0.000 OA
ENDBRANCH  12  19
ENDBRANCH   1  15
TORSDOF 2
ENDMDL
MODEL 2
REMARK VINA RESULT:      -7.4      1.051      1.800
REMARK  Name = 
REMARK  3 active torsions:
REMARK  status: ('A' for Active; 'I' for Inactive)
REMARK    1  A    between atoms: C_1  and  O_2
REMARK    2  A    between atoms: O_2  and  C_3
REMARK    3  A    between atoms: C_6  and  C_7
REMARK                            x       y       z     vdW  Elec       q    Type
REMARK                         _______ _______ _______ _____ _____    ______ ____
ROOT
ATOM      1  C   UNL     1       4.039   3.133  19.076  0.00  0.00    +0.000 C 
ATOM      2  N   UNL     1       2.830   3.937  19.413  0.00  0.00    +0.000 NA
ATOM      3  S   UNL     1       1.458   3.348  18.644  0.00  0.00    +0.000 S 
ATOM      4  O   UNL     1       0.407   3.203  19.615  0.00  0.00    +0.000 OA
ATOM      5  O   UNL     1       1.290   4.056  17.406  0.00  0.00    +0.000 OA
ATOM      6  N   UNL     1       2.109   1.856  18.315  0.00  0.00    +0.000 N 
ATOM      7  C   UNL     1       3.473   1.794  18.586  0.00  0.00    +0.000 C 
ATOM      8  N   UNL     1       4.132   0.704  18.416  0.00  0.00    +0.000 NA
ATOM      9  H   UNL     1       2.936   4.943  19.296  0.00  0.00    +0.000 HD
ATOM     10  H   UNL     1       1.647   1.302  17.604  0.00  0.00    +0.000 HD
ATOM     11  H   UNL     1       3.485  -0.032  18.121  0.00  0.00    +0.000 HD
ENDROOT
BRANCH   1  15
ATOM     12  C   UNL     1       6.600   5.068  16.154  0.00  0.00    +0.000 A 
ATOM     13  C   UNL     1       5.475   4.349  15.750  0.00  0.00    +0.000 A 
ATOM     14  C   UNL     1       4.646   3.730  16.693  0.00  0.00    +0.000 A 
ATOM     15  C   UNL     1       4.938   3.810  18.062  0.00  0.00    +0.000 A 
ATOM     16  C   UNL     1       6.084   4.521  18.451  0.00  0.00    +0.000 A 
ATOM     17  C   UNL     1       6.910   5.138  17.508  0.00  0.00    +0.000 A 
BRANCH  12  19
ATOM     18  C   UNL     1       7.281   4.954  13.898  0.00  0.00    +0.000 C 
ATOM     19  O   UNL     1       7.340   5.629  15.152  0.00  0.00    +0.000 OA
ENDBRANCH  12  19
ENDBRANCH   1  15
TORSDOF 2
ENDMDL
MODEL 3
REMARK VINA RESULT:      -7.2      1.216      1.301
REMARK  Name = 
REMARK  3 active torsions:
REMARK  status: ('A' for Active; 'I' for Inactive)
REMARK    1  A    between atoms: C_1  and  O_2
REMARK    2  A    between atoms: O_2  and  C_3
REMARK    3  A    between atoms: C_6  and  C_7
REMARK                            x       y       z     vdW  Elec       q    Type
REMARK                         _______ _______ _______ _____ _____    ______ ____
ROOT
ATOM      1  C   UNL     1       3.775   4.130  19.684  0.00  0.00    +0.000 C 
ATOM      2  N   UNL     1       2.360   4.240  19.232  0.00  0.00    +0.000 NA
ATOM      3  S   UNL     1       1.918   2.945  18.258  0.00  0.00    +0.000 S 
ATOM      4  O   UNL     1       0.675   2.403  18.740  0.00  0.00    +0.000 OA
ATOM      5  O   UNL     1       2.133   3.311  16.887  0.00  0.00    +0.000 OA
ATOM      6  N   UNL     1       3.168   1.967  18.745  0.00  0.00    +0.000 N 
ATOM      7  C   UNL     1       4.109   2.643  19.518  0.00  0.00    +0.000 C 
ATOM      8  N   UNL     1       5.128   2.030  20.004  0.00  0.00    +0.000 NA
ATOM      9  H   UNL     1       2.107   5.136  18.820  0.00  0.00    +0.000 HD
ATOM     10  H   UNL     1       3.385   1.173  18.155  0.00  0.00    +0.000 HD
ATOM     11  H   UNL     1       5.065   1.038  19.762  0.00  0.00    +0.000 HD
ENDROOT
BRANCH   1  15
ATOM     12  C   UNL     1       6.484   6.734  17.509  0.00  0.00    +0.000 A 
ATOM     13  C   UNL     1       6.959   5.890  18.512  0.00  0.00    +0.000 A 
ATOM     14  C   UNL     1       6.087   5.046  19.210  0.00  0.00    +0.000 A 
ATOM     15  C   UNL     1       4.714   5.043  18.921  0.00  0.00    +0.000 A 
ATOM     16  C   UNL     1       4.249   5.912  17.922  0.00  0.00    +0.000 A 
ATOM     17  C   UNL     1       5.122   6.753  17.228  0.00  0.00    +0.000 A 
BRANCH  12  19
ATOM     18  C   UNL     1       7.916   8.602  17.674  0.00  0.00    +0.000 C 
ATOM     19  O   UNL     1       7.421   7.516  16.895  0.00  0.00    +0.000 OA
ENDBRANCH  12  19
ENDBRANCH   1  15
TORSDOF 2
ENDMDL
MODEL 4
REMARK VINA RESULT:      -7.2      1.401      1.782
REMARK  Name = 
REMARK  3 active torsions:
REMARK  status: ('A' for Active; 'I' for Inactive)
REMARK    1  A    between atoms: C_1  and  O_2
REMARK    2  A    between atoms: O_2  and  C_3
REMARK    3  A    between atoms: C_6  and  C_7
REMARK                            x       y       z     vdW  Elec       q    Type
REMARK                         _______ _______ _______ _____ _____    ______ ____
ROOT
ATOM      1  C   UNL     1       4.363   4.147  19.375  0.00  0.00    +0.000 C 
ATOM      2  N   UNL     1       2.994   4.733  19.312  0.00  0.00    +0.000 NA
ATOM      3  S   UNL     1       1.839   3.573  18.937  0.00  0.00    +0.000 S 
ATOM      4  O   UNL     1       0.756   3.673  19.879  0.00  0.00    +0.000 OA
ATOM      5  O   UNL     1       1.642   3.569  17.515  0.00  0.00    +0.000 OA
ATOM      6  N   UNL     1       2.799   2.280  19.341  0.00  0.00    +0.000 N 
ATOM      7  C   UNL     1       4.119   2.648  19.586  0.00  0.00    +0.000 C 
ATOM      8  N   UNL     1       4.994   1.776  19.940  0.00  0.00    +0.000 NA
ATOM      9  H   UNL     1       2.908   5.565  18.732  0.00  0.00    +0.000 HD
ATOM     10  H   UNL     1       2.521   1.374  18.985  0.00  0.00    +0.000 HD
ATOM     11  H   UNL     1       4.535   0.867  20.039  0.00  0.00    +0.000 HD
ENDROOT
BRANCH   1  15
ATOM     12  C   UNL     1       6.765   5.031  15.869  0.00  0.00    +0.000 A 
ATOM     13  C   UNL     1       7.083   5.586  17.108  0.00  0.00    +0.000 A 
ATOM     14  C   UNL     1       6.311   5.296  18.240  0.00  0.00    +0.000 A 
ATOM     15  C   UNL     1       5.196   4.452  18.146  0.00  0.00    +0.000 A 
ATOM     16  C   UNL     1       4.879   3.917  16.889  0.00  0.00    +0.000 A 
ATOM     17  C   UNL     1       5.649   4.207  15.761  0.00  0.00    +0.000 A 
BRANCH  12  19
ATOM     18  C   UNL     1       7.237   4.824  13.566  0.00  0.00    +0.000 C 
ATOM     19  O   UNL     1       7.582   5.382  14.831  0.00  0.00    +0.000 OA
ENDBRANCH  12  19
ENDBRANCH   1  15
TORSDOF 2
ENDMDL
MODEL 5
REMARK VINA RESULT:      -7.2      1.179      1.581
REMARK  Name = 
REMARK  3 active torsions:
REMARK  status: ('A' for Active; 'I' for Inactive)
REMARK    1  A    between atoms: C_1  and  O_2
REMARK    2  A    between atoms: O_2  and  C_3
REMARK    3  A    between atoms: C_6  and  C_7
REMARK                            x       y       z     vdW  Elec       q    Type
REMARK                         _______ _______ _______ _____ _____    ______ ____
ROOT
ATOM      1  C   UNL     1       3.750   4.013  19.698  0.00  0.00    +0.000 C 
ATOM      2  N   UNL     1       2.344   4.132  19.217  0.00  0.00    +0.000 NA
ATOM      3  S   UNL     1       1.919   2.852  18.216  0.00  0.00    +0.000 S 
ATOM      4  O   UNL     1       0.666   2.307  18.665  0.00  0.00    +0.000 OA
ATOM      5  O   UNL     1       2.164   3.237  16.855  0.00  0.00    +0.000 OA
ATOM      6  N   UNL     1       3.157   1.864  18.716  0.00  0.00    +0.000 N 
ATOM      7  C   UNL     1       4.082   2.527  19.518  0.00  0.00    +0.000 C 
ATOM      8  N   UNL     1       5.090   1.905  20.016  0.00  0.00    +0.000 NA
ATOM      9  H   UNL     1       2.102   5.035  18.813  0.00  0.00    +0.000 HD
ATOM     10  H   UNL     1       3.384   1.079  18.120  0.00  0.00    +0.000 HD
ATOM     11  H   UNL     1       5.030   0.916  19.760  0.00  0.00    +0.000 HD
ENDROOT
BRANCH   1  15
ATOM     12  C   UNL     1       6.471   6.662  17.595  0.00  0.00    +0.000 A 
ATOM     13  C   UNL     1       5.117   6.622  17.263  0.00  0.00    +0.000 A 
ATOM     14  C   UNL     1       4.238   5.772  17.945  0.00  0.00    +0.000 A 
ATOM     15  C   UNL     1       4.706   4.934  18.968  0.00  0.00    +0.000 A 
ATOM     16  C   UNL     1       6.074   4.972  19.277  0.00  0.00    +0.000 A 
ATOM     17  C   UNL     1       6.949   5.821  18.595  0.00  0.00    +0.000 A 
BRANCH  12  19
ATOM     18  C   UNL     1       7.913   8.529  17.618  0.00  0.00    +0.000 C 
ATOM     19  O   UNL     1       7.239   7.525  16.865  0.00  0.00    +0.000 OA
ENDBRANCH  12  19
ENDBRANCH   1  15
TORSDOF 2
ENDMDL
MODEL 6
REMARK VINA RESULT:      -7.1      3.170      5.675
REMARK  Name = 
REMARK  3 active torsions:
REMARK  status: ('A' for Active; 'I' for Inactive)
REMARK    1  A    between atoms: C_1  and  O_2
REMARK    2  A    between atoms: O_2  and  C_3
REMARK    3  A    between atoms: C_6  and  C_7
REMARK                            x       y       z     vdW  Elec       q    Type
REMARK                         _______ _______ _______ _____ _____    ______ ____
ROOT
ATOM      1  C   UNL     1       4.946   5.082  16.563  0.00  0.00    +0.000 C 
ATOM      2  N   UNL     1       5.486   6.366  17.092  0.00  0.00    +0.000 NA
ATOM      3  S   UNL     1       7.113   6.237  17.491  0.00  0.00    +0.000 S 
ATOM      4  O   UNL     1       7.826   7.337  16.896  0.00  0.00    +0.000 OA
ATOM      5  O   UNL     1       7.215   5.898  18.882  0.00  0.00    +0.000 OA
ATOM      6  N   UNL     1       7.372   4.866  16.593  0.00  0.00    +0.000 N 
ATOM      7  C   UNL     1       6.191   4.311  16.107  0.00  0.00    +0.000 C 
ATOM      8  N   UNL     1       6.209   3.261  15.367  0.00  0.00    +0.000 NA
ATOM      9  H   UNL     1       4.938   6.789  17.838  0.00  0.00    +0.000 HD
ATOM     10  H   UNL     1       8.203   4.329  16.807  0.00  0.00    +0.000 HD
ATOM     11  H   UNL     1       7.182   2.992  15.196  0.00  0.00    +0.000 HD
ENDROOT
BRANCH   1  15
ATOM     12  C   UNL     1       2.537   2.921  19.456  0.00  0.00    +0.000 A 
ATOM     13  C   UNL     1       1.936   3.644  18.427  0.00  0.00    +0.000 A 
ATOM     14  C   UNL     1       2.713   4.336  17.490  0.00  0.00    +0.000 A 
ATOM     15  C   UNL     1       4.112   4.326  17.577  0.00  0.00    +0.000 A 
ATOM     16  C   UNL     1       4.701   3.609  18.630  0.00  0.00    +0.000 A 
ATOM     17  C   UNL     1       3.924   2.919  19.563  0.00  0.00    +0.000 A 
BRANCH  12  19
ATOM     18  C   UNL     1       1.619   2.835  21.628  0.00  0.00    +0.000 C 
ATOM     19  O   UNL     1       1.685   2.285  20.315  0.00  0.00    +0.000 OA
ENDBRANCH  12  19
ENDBRANCH   1  15
TORSDOF 2
ENDMDL
MODEL 7
REMARK VINA RESULT:      -7.0      3.174      5.582
REMARK  Name = 
REMARK  3 active torsions:
REMARK  status: ('A' for Active; 'I' for Inactive)
REMARK    1  A    between atoms: C_1  and  O_2
REMARK    2  A    between atoms: O_2  and  C_3
REMARK    3  A    between atoms: C_6  and  C_7
REMARK                            x       y       z     vdW  Elec       q    Type
REMARK                         _______ _______ _______ _____ _____    ______ ____
ROOT
ATOM      1  C   UNL     1       4.921   5.117  16.571  0.00  0.00    +0.000 C 
ATOM      2  N   UNL     1       5.424   6.415  17.104  0.00  0.00    +0.000 NA
ATOM      3  S   UNL     1       7.036   6.313  17.564  0.00  0.00    +0.000 S 
ATOM      4  O   UNL     1       7.756   7.415  16.982  0.00  0.00    +0.000 OA
ATOM      5  O   UNL     1       7.093   5.991  18.962  0.00  0.00    +0.000 OA
ATOM      6  N   UNL     1       7.347   4.935  16.692  0.00  0.00    +0.000 N 
ATOM      7  C   UNL     1       6.192   4.359  16.169  0.00  0.00    +0.000 C 
ATOM      8  N   UNL     1       6.251   3.301  15.443  0.00  0.00    +0.000 NA
ATOM      9  H   UNL     1       4.843   6.838  17.825  0.00  0.00    +0.000 HD
ATOM     10  H   UNL     1       8.177   4.412  16.942  0.00  0.00    +0.000 HD
ATOM     11  H   UNL     1       7.233   3.044  15.311  0.00  0.00    +0.000 HD
ENDROOT
BRANCH   1  15
ATOM     12  C   UNL     1       2.477   2.947  19.428  0.00  0.00    +0.000 A 
ATOM     13  C   UNL     1       3.868   2.934  19.526  0.00  0.00    +0.000 A 
ATOM     14  C   UNL     1       4.657   3.638  18.608  0.00  0.00    +0.000 A 
ATOM     15  C   UNL     1       4.061   4.361  17.564  0.00  0.00    +0.000 A 
ATOM     16  C   UNL     1       2.661   4.350  17.469  0.00  0.00    +0.000 A 
ATOM     17  C   UNL     1       1.877   3.646  18.386  0.00  0.00    +0.000 A 
BRANCH  12  19
ATOM     18  C   UNL     1       1.708   2.840  21.656  0.00  0.00    +0.000 C 
ATOM     19  O   UNL     1       1.806   2.224  20.374  0.00  0.00    +0.000 OA
ENDBRANCH  12  19
ENDBRANCH   1  15
TORSDOF 2
ENDMDL
MODEL 8
REMARK VINA RESULT:      -7.0      2.092      2.763
REMARK  Name = 
REMARK  3 active torsions:
REMARK  status: ('A' for Active; 'I' for Inactive)
REMARK    1  A    between atoms: C_1  and  O_2
REMARK    2  A    between atoms: O_2  and  C_3
REMARK    3  A    between atoms: C_6  and  C_7
REMARK                            x       y       z     vdW  Elec       q    Type
REMARK                         _______ _______ _______ _____ _____    ______ ____
ROOT
ATOM      1  C   UNL     1       2.326   5.098  18.100  0.00  0.00    +0.000 C 
ATOM      2  N   UNL     1       1.501   3.979  17.563  0.00  0.00    +0.000 NA
ATOM      3  S   UNL     1       1.557   2.631  18.564  0.00  0.00    +0.000 S 
ATOM      4  O   UNL     1       0.213   2.180  18.810  0.00  0.00    +0.000 OA
ATOM      5  O   UNL     1       2.603   1.763  18.102  0.00  0.00    +0.000 OA
ATOM      6  N   UNL     1       2.107   3.463  19.891  0.00  0.00    +0.000 N 
ATOM      7  C   UNL     1       2.477   4.770  19.590  0.00  0.00    +0.000 C 
ATOM      8  N   UNL     1       2.899   5.566  20.507  0.00  0.00    +0.000 NA
ATOM      9  H   UNL     1       1.677   3.743  16.589  0.00  0.00    +0.000 HD
ATOM     10  H   UNL     1       2.521   2.914  20.636  0.00  0.00    +0.000 HD
ATOM     11  H   UNL     1       2.855   5.085  21.410  0.00  0.00    +0.000 HD
ENDROOT
BRANCH   1  15
ATOM     12  C   UNL     1       6.123   5.522  16.039  0.00  0.00    +0.000 A 
ATOM     13  C   UNL     1       5.490   4.282  16.118  0.00  0.00    +0.000 A 
ATOM     14  C   UNL     1       4.262   4.146  16.777  0.00  0.00    +0.000 A 
ATOM     15  C   UNL     1       3.652   5.254  17.383  0.00  0.00    +0.000 A 
ATOM     16  C   UNL     1       4.311   6.490  17.311  0.00  0.00    +0.000 A 
ATOM     17  C   UNL     1       5.535   6.623  16.652  0.00  0.00    +0.000 A 
BRANCH  12  19
ATOM     18  C   UNL     1       7.301   4.957  14.074  0.00  0.00    +0.000 C 
ATOM     19  O   UNL     1       7.317   5.540  15.374  0.00  0.00    +0.000 OA
ENDBRANCH  12  19
ENDBRANCH   1  15
TORSDOF 2
ENDMDL
MODEL 9
REMARK VINA RESULT:      -7.0      3.436      5.677
REMARK  Name = 
REMARK  3 active torsions:
REMARK  status: ('A' for Active; 'I' for Inactive)
REMARK    1  A    between atoms: C_1  and  O_2
REMARK    2  A    between atoms: O_2  and  C_3
REMARK    3  A    between atoms: C_6  and  C_7
REMARK                            x       y       z     vdW  Elec       q    Type
REMARK                         _______ _______ _______ _____ _____    ______ ____
ROOT
ATOM      1  C   UNL     1       6.664   4.468  17.986  0.00  0.00    +0.000 C 
ATOM      2  N   UNL     1       6.537   4.177  16.530  0.00  0.00    +0.000 NA
ATOM      3  S   UNL     1       6.735   5.561  15.600  0.00  0.00    +0.000 S 
ATOM      4  O   UNL     1       7.684   5.287  14.554  0.00  0.00    +0.000 OA
ATOM      5  O   UNL     1       5.442   6.134  15.354  0.00  0.00    +0.000 OA
ATOM      6  N   UNL     1       7.479   6.434  16.801  0.00  0.00    +0.000 N 
ATOM      7  C   UNL     1       7.431   5.795  18.037  0.00  0.00    +0.000 C 
ATOM      8  N   UNL     1       7.984   6.316  19.072  0.00  0.00    +0.000 NA
ATOM      9  H   UNL     1       5.706   3.651  16.267  0.00  0.00    +0.000 HD
ATOM     10  H   UNL     1       7.509   7.439  16.684  0.00  0.00    +0.000 HD
ATOM     11  H   UNL     1       8.456   7.181  18.796  0.00  0.00    +0.000 HD
ENDROOT
BRANCH   1  15
ATOM     12  C   UNL     1       2.839   4.598  20.036  0.00  0.00    +0.000 A 
ATOM     13  C   UNL     1       3.544   3.400  19.917  0.00  0.00    +0.000 A 
ATOM     14  C   UNL     1       4.780   3.359  19.261  0.00  0.00    +0.000 A 
ATOM     15  C   UNL     1       5.328   4.521  18.699  0.00  0.00    +0.000 A 
ATOM     16  C   UNL     1       4.598   5.715  18.811  0.00  0.00    +0.000 A 
ATOM     17  C   UNL     1       3.365   5.753  19.466  0.00  0.00    +0.000 A 
BRANCH  12  19
ATOM     18  C   UNL     1       1.194   3.206  20.995  0.00  0.00    +0.000 C 
ATOM     19  O   UNL     1       1.644   4.524  20.693  0.00  0.00    +0.000 OA
ENDBRANCH  12  19
ENDBRANCH   1  15
TORSDOF 2
ENDMDL
