MODEL 1
REMARK VINA RESULT:      -6.4      0.000      0.000
REMARK  Name = 
REMARK  9 active torsions:
REMARK  status: ('A' for Active; 'I' for Inactive)
REMARK    1  A    between atoms: C_1  and  C_2
REMARK    2  A    between atoms: C_2  and  O_3
REMARK    3  A    between atoms: O_3  and  C_4
REMARK    4  A    between atoms: C_4  and  C_6
REMARK    5  A    between atoms: C_6  and  N_7
REMARK    6  A    between atoms: N_7  and  C_8
REMARK    7  A    between atoms: C_10  and  C_11
REMARK    8  A    between atoms: C_13  and  C_14
REMARK    9  A    between atoms: C_15  and  C_16
REMARK                            x       y       z     vdW  Elec       q    Type
REMARK                         _______ _______ _______ _____ _____    ______ ____
ROOT
ATOM      1  C   UNL     1       2.942   6.042  19.656  0.00  0.00    +0.000 A 
ATOM      2  N   UNL     1       2.222   7.146  19.349  0.00  0.00    +0.000 NA
ATOM      3  C   UNL     1       2.546   7.849  18.234  0.00  0.00    +0.000 A 
ATOM      4  C   UNL     1       1.724   9.062  17.908  0.00  0.00    +0.000 C 
ATOM      5  C   UNL     1       3.586   7.481  17.387  0.00  0.00    +0.000 A 
ATOM      6  C   UNL     1       4.334   6.342  17.685  0.00  0.00    +0.000 A 
ATOM      7  C   UNL     1       5.454   5.915  16.779  0.00  0.00    +0.000 C 
ATOM      8  C   UNL     1       4.003   5.615  18.840  0.00  0.00    +0.000 A 
ENDROOT
BRANCH   1   9
ATOM      9  N   UNL     1       2.540   5.262  20.736  0.00  0.00    +0.000 N 
ATOM     10  H   UNL     1       2.576   5.737  21.636  0.00  0.00    +0.000 HD
BRANCH   9  11
ATOM     11  C   UNL     1       1.324   4.454  20.608  0.00  0.00    +0.000 C 
BRANCH  11  12
ATOM     12  C   UNL     1       1.649   3.025  21.043  0.00  0.00    +0.000 C 
ATOM     13  O   UNL     1       1.642   2.638  22.207  0.00  0.00    +0.000 OA
BRANCH  12  14
ATOM     14  O   UNL     1       1.985   2.261  19.967  0.00  0.00    +0.000 OA
BRANCH  14  16
ATOM     15  C   UNL     1       2.289   2.447  17.614  0.00  0.00    +0.000 C 
ATOM     16  C   UNL     1       1.296   2.596  18.753  0.00  0.00    +0.000 C 
ENDBRANCH  14  16
ENDBRANCH  12  14
ENDBRANCH  11  12
ENDBRANCH   9  11
ENDBRANCH   1   9
BRANCH   8  17
ATOM     17  C   UNL     1       4.744   4.440  19.184  0.00  0.00    +0.000 C 
ATOM     18  N   UNL     1       5.325   3.465  19.434  0.00  0.00    +0.000 NA
ENDBRANCH   8  17
TORSDOF 6
ENDMDL
MODEL 2
REMARK VINA RESULT:      -6.3      3.039      4.656
REMARK  Name = 
REMARK  9 active torsions:
REMARK  status: ('A' for Active; 'I' for Inactive)
REMARK    1  A    between atoms: C_1  and  C_2
REMARK    2  A    between atoms: C_2  and  O_3
REMARK    3  A    between atoms: O_3  and  C_4
REMARK    4  A    between atoms: C_4  and  C_6
REMARK    5  A    between atoms: C_6  and  N_7
REMARK    6  A    between atoms: N_7  and  C_8
REMARK    7  A    between atoms: C_10  and  C_11
REMARK    8  A    between atoms: C_13  and  C_14
REMARK    9  A    between atoms: C_15  and  C_16
REMARK                            x       y       z     vdW  Elec       q    Type
REMARK                         _______ _______ _______ _____ _____    ______ ____
ROOT
ATOM      1  C   UNL     1       4.747   5.066  19.037  0.00  0.00    +0.000 A 
ATOM      2  N   UNL     1       4.275   6.240  18.556  0.00  0.00    +0.000 NA
ATOM      3  C   UNL     1       2.949   6.352  18.291  0.00  0.00    +0.000 A 
ATOM      4  C   UNL     1       2.448   7.668  17.770  0.00  0.00    +0.000 C 
ATOM      5  C   UNL     1       2.048   5.312  18.498  0.00  0.00    +0.000 A 
ATOM      6  C   UNL     1       2.517   4.098  19.000  0.00  0.00    +0.000 A 
ATOM      7  C   UNL     1       1.563   2.963  19.244  0.00  0.00    +0.000 C 
ATOM      8  C   UNL     1       3.889   3.978  19.271  0.00  0.00    +0.000 A 
ENDROOT
BRANCH   1   9
ATOM      9  N   UNL     1       6.085   4.987  19.411  0.00  0.00    +0.000 N 
ATOM     10  H   UNL     1       6.442   4.038  19.504  0.00  0.00    +0.000 HD
BRANCH   9  11
ATOM     11  C   UNL     1       7.056   5.859  18.744  0.00  0.00    +0.000 C 
BRANCH  11  12
ATOM     12  C   UNL     1       7.616   5.114  17.531  0.00  0.00    +0.000 C 
ATOM     13  O   UNL     1       8.258   4.071  17.597  0.00  0.00    +0.000 OA
BRANCH  12  14
ATOM     14  O   UNL     1       7.336   5.790  16.383  0.00  0.00    +0.000 OA
BRANCH  14  16
ATOM     15  C   UNL     1       5.447   4.696  15.435  0.00  0.00    +0.000 C 
ATOM     16  C   UNL     1       6.934   4.963  15.281  0.00  0.00    +0.000 C 
ENDBRANCH  14  16
ENDBRANCH  12  14
ENDBRANCH  11  12
ENDBRANCH   9  11
ENDBRANCH   1   9
BRANCH   8  17
ATOM     17  C   UNL     1       4.413   2.751  19.787  0.00  0.00    +0.000 C 
ATOM     18  N   UNL     1       4.874   1.773  20.216  0.00  0.00    +0.000 NA
ENDBRANCH   8  17
TORSDOF 6
ENDMDL
MODEL 3
REMARK VINA RESULT:      -6.2      3.205      5.174
REMARK  Name = 
REMARK  9 active torsions:
REMARK  status: ('A' for Active; 'I' for Inactive)
REMARK    1  A    between atoms: C_1  and  C_2
REMARK    2  A    between atoms: C_2  and  O_3
REMARK    3  A    between atoms: O_3  and  C_4
REMARK    4  A    between atoms: C_4  and  C_6
REMARK    5  A    between atoms: C_6  and  N_7
REMARK    6  A    between atoms: N_7  and  C_8
REMARK    7  A    between atoms: C_10  and  C_11
REMARK    8  A    between atoms: C_13  and  C_14
REMARK    9  A    between atoms: C_15  and  C_16
REMARK                            x       y       z     vdW  Elec       q    Type
REMARK                         _______ _______ _______ _____ _____    ______ ____
ROOT
ATOM      1  C   UNL     1       4.338   4.418  18.581  0.00  0.00    +0.000 A 
ATOM      2  N   UNL     1       3.796   5.585  18.157  0.00  0.00    +0.000 NA
ATOM      3  C   UNL     1       2.729   6.091  18.825  0.00  0.00    +0.000 A 
ATOM      4  C   UNL     1       2.154   7.391  18.343  0.00  0.00    +0.000 C 
ATOM      5  C   UNL     1       2.167   5.466  19.934  0.00  0.00    +0.000 A 
ATOM      6  C   UNL     1       2.718   4.267  20.389  0.00  0.00    +0.000 A 
ATOM      7  C   UNL     1       2.139   3.578  21.592  0.00  0.00    +0.000 C 
ATOM      8  C   UNL     1       3.820   3.740  19.697  0.00  0.00    +0.000 A 
ENDROOT
BRANCH   1   9
ATOM      9  N   UNL     1       5.497   3.958  17.965  0.00  0.00    +0.000 N 
ATOM     10  H   UNL     1       5.612   2.946  17.986  0.00  0.00    +0.000 HD
BRANCH   9  11
ATOM     11  C   UNL     1       5.868   4.509  16.659  0.00  0.00    +0.000 C 
BRANCH  11  12
ATOM     12  C   UNL     1       7.338   4.924  16.712  0.00  0.00    +0.000 C 
ATOM     13  O   UNL     1       8.248   4.196  17.098  0.00  0.00    +0.000 OA
BRANCH  12  14
ATOM     14  O   UNL     1       7.486   6.218  16.315  0.00  0.00    +0.000 OA
BRANCH  14  16
ATOM     15  C   UNL     1       8.040   7.607  18.167  0.00  0.00    +0.000 C 
ATOM     16  C   UNL     1       6.932   7.190  17.215  0.00  0.00    +0.000 C 
ENDBRANCH  14  16
ENDBRANCH  12  14
ENDBRANCH  11  12
ENDBRANCH   9  11
ENDBRANCH   1   9
BRANCH   8  17
ATOM     17  C   UNL     1       4.416   2.512  20.128  0.00  0.00    +0.000 C 
ATOM     18  N   UNL     1       4.862   1.501  20.488  0.00  0.00    +0.000 NA
ENDBRANCH   8  17
TORSDOF 6
ENDMDL
MODEL 4
REMARK VINA RESULT:      -6.2      3.293      5.264
REMARK  Name = 
REMARK  9 active torsions:
REMARK  status: ('A' for Active; 'I' for Inactive)
REMARK    1  A    between atoms: C_1  and  C_2
REMARK    2  A    between atoms: C_2  and  O_3
REMARK    3  A    between atoms: O_3  and  C_4
REMARK    4  A    between atoms: C_4  and  C_6
REMARK    5  A    between atoms: C_6  and  N_7
REMARK    6  A    between atoms: N_7  and  C_8
REMARK    7  A    between atoms: C_10  and  C_11
REMARK    8  A    between atoms: C_13  and  C_14
REMARK    9  A    between atoms: C_15  and  C_16
REMARK                            x       y       z     vdW  Elec       q    Type
REMARK                         _______ _______ _______ _____ _____    ______ ____
ROOT
ATOM      1  C   UNL     1       4.224   4.386  17.500  0.00  0.00    +0.000 A 
ATOM      2  N   UNL     1       4.077   5.725  17.363  0.00  0.00    +0.000 NA
ATOM      3  C   UNL     1       3.045   6.338  17.997  0.00  0.00    +0.000 A 
ATOM      4  C   UNL     1       2.910   7.825  17.839  0.00  0.00    +0.000 C 
ATOM      5  C   UNL     1       2.131   5.649  18.789  0.00  0.00    +0.000 A 
ATOM      6  C   UNL     1       2.273   4.271  18.947  0.00  0.00    +0.000 A 
ATOM      7  C   UNL     1       1.308   3.506  19.807  0.00  0.00    +0.000 C 
ATOM      8  C   UNL     1       3.338   3.635  18.289  0.00  0.00    +0.000 A 
ENDROOT
BRANCH   1   9
ATOM      9  N   UNL     1       5.344   3.778  16.942  0.00  0.00    +0.000 N 
ATOM     10  H   UNL     1       5.387   2.769  17.078  0.00  0.00    +0.000 HD
BRANCH   9  11
ATOM     11  C   UNL     1       5.743   4.148  15.581  0.00  0.00    +0.000 C 
BRANCH  11  12
ATOM     12  C   UNL     1       7.083   4.880  15.657  0.00  0.00    +0.000 C 
ATOM     13  O   UNL     1       7.662   5.362  14.689  0.00  0.00    +0.000 OA
BRANCH  12  14
ATOM     14  O   UNL     1       7.557   4.882  16.933  0.00  0.00    +0.000 OA
BRANCH  14  16
ATOM     15  C   UNL     1       7.759   5.935  19.058  0.00  0.00    +0.000 C 
ATOM     16  C   UNL     1       7.564   6.168  17.570  0.00  0.00    +0.000 C 
ENDBRANCH  14  16
ENDBRANCH  12  14
ENDBRANCH  11  12
ENDBRANCH   9  11
ENDBRANCH   1   9
BRANCH   8  17
ATOM     17  C   UNL     1       3.521   2.222  18.423  0.00  0.00    +0.000 C 
ATOM     18  N   UNL     1       3.651   1.068  18.495  0.00  0.00    +0.000 NA
ENDBRANCH   8  17
TORSDOF 6
ENDMDL
MODEL 5
REMARK VINA RESULT:      -6.1      3.111      4.870
REMARK  Name = 
REMARK  9 active torsions:
REMARK  status: ('A' for Active; 'I' for Inactive)
REMARK    1  A    between atoms: C_1  and  C_2
REMARK    2  A    between atoms: C_2  and  O_3
REMARK    3  A    between atoms: O_3  and  C_4
REMARK    4  A    between atoms: C_4  and  C_6
REMARK    5  A    between atoms: C_6  and  N_7
REMARK    6  A    between atoms: N_7  and  C_8
REMARK    7  A    between atoms: C_10  and  C_11
REMARK    8  A    between atoms: C_13  and  C_14
REMARK    9  A    between atoms: C_15  and  C_16
REMARK                            x       y       z     vdW  Elec       q    Type
REMARK                         _______ _______ _______ _____ _____    ______ ____
ROOT
ATOM      1  C   UNL     1       4.701   4.741  18.943  0.00  0.00    +0.000 A 
ATOM      2  N   UNL     1       4.216   5.939  18.542  0.00  0.00    +0.000 NA
ATOM      3  C   UNL     1       2.947   6.278  18.881  0.00  0.00    +0.000 A 
ATOM      4  C   UNL     1       2.437   7.618  18.435  0.00  0.00    +0.000 C 
ATOM      5  C   UNL     1       2.120   5.448  19.632  0.00  0.00    +0.000 A 
ATOM      6  C   UNL     1       2.607   4.213  20.060  0.00  0.00    +0.000 A 
ATOM      7  C   UNL     1       1.739   3.303  20.882  0.00  0.00    +0.000 C 
ATOM      8  C   UNL     1       3.919   3.859  19.706  0.00  0.00    +0.000 A 
ENDROOT
BRANCH   1   9
ATOM      9  N   UNL     1       6.036   4.442  18.690  0.00  0.00    +0.000 N 
ATOM     10  H   UNL     1       6.183   3.783  17.927  0.00  0.00    +0.000 HD
BRANCH   9  11
ATOM     11  C   UNL     1       7.007   5.539  18.639  0.00  0.00    +0.000 C 
BRANCH  11  12
ATOM     12  C   UNL     1       7.396   5.769  17.179  0.00  0.00    +0.000 C 
ATOM     13  O   UNL     1       7.579   6.874  16.679  0.00  0.00    +0.000 OA
BRANCH  12  14
ATOM     14  O   UNL     1       7.469   4.585  16.509  0.00  0.00    +0.000 OA
BRANCH  14  16
ATOM     15  C   UNL     1       5.488   4.484  15.194  0.00  0.00    +0.000 C 
ATOM     16  C   UNL     1       6.999   4.632  15.154  0.00  0.00    +0.000 C 
ENDBRANCH  14  16
ENDBRANCH  12  14
ENDBRANCH  11  12
ENDBRANCH   9  11
ENDBRANCH   1   9
BRANCH   8  17
ATOM     17  C   UNL     1       4.458   2.601  20.124  0.00  0.00    +0.000 C 
ATOM     18  N   UNL     1       4.911   1.573  20.425  0.00  0.00    +0.000 NA
ENDBRANCH   8  17
TORSDOF 6
ENDMDL
MODEL 6
REMARK VINA RESULT:      -6.0      3.856      5.654
REMARK  Name = 
REMARK  9 active torsions:
REMARK  status: ('A' for Active; 'I' for Inactive)
REMARK    1  A    between atoms: C_1  and  C_2
REMARK    2  A    between atoms: C_2  and  O_3
REMARK    3  A    between atoms: O_3  and  C_4
REMARK    4  A    between atoms: C_4  and  C_6
REMARK    5  A    between atoms: C_6  and  N_7
REMARK    6  A    between atoms: N_7  and  C_8
REMARK    7  A    between atoms: C_10  and  C_11
REMARK    8  A    between atoms: C_13  and  C_14
REMARK    9  A    between atoms: C_15  and  C_16
REMARK                            x       y       z     vdW  Elec       q    Type
REMARK                         _______ _______ _______ _____ _____    ______ ____
ROOT
ATOM      1  C   UNL     1       4.780   4.562  17.383  0.00  0.00    +0.000 A 
ATOM      2  N   UNL     1       3.778   3.686  17.629  0.00  0.00    +0.000 NA
ATOM      3  C   UNL     1       2.559   4.167  17.979  0.00  0.00    +0.000 A 
ATOM      4  C   UNL     1       1.462   3.175  18.235  0.00  0.00    +0.000 C 
ATOM      5  C   UNL     1       2.290   5.527  18.092  0.00  0.00    +0.000 A 
ATOM      6  C   UNL     1       3.308   6.445  17.835  0.00  0.00    +0.000 A 
ATOM      7  C   UNL     1       3.041   7.919  17.938  0.00  0.00    +0.000 C 
ATOM      8  C   UNL     1       4.572   5.948  17.476  0.00  0.00    +0.000 A 
ENDROOT
BRANCH   1   9
ATOM      9  N   UNL     1       5.996   4.073  16.917  0.00  0.00    +0.000 N 
ATOM     10  H   UNL     1       6.513   3.515  17.595  0.00  0.00    +0.000 HD
BRANCH   9  11
ATOM     11  C   UNL     1       6.050   3.472  15.582  0.00  0.00    +0.000 C 
BRANCH  11  12
ATOM     12  C   UNL     1       6.671   4.488  14.623  0.00  0.00    +0.000 C 
ATOM     13  O   UNL     1       7.642   5.188  14.892  0.00  0.00    +0.000 OA
BRANCH  12  14
ATOM     14  O   UNL     1       5.973   4.534  13.455  0.00  0.00    +0.000 OA
BRANCH  14  16
ATOM     15  C   UNL     1       5.047   3.082  11.812  0.00  0.00    +0.000 C 
ATOM     16  C   UNL     1       6.327   3.520  12.503  0.00  0.00    +0.000 C 
ENDBRANCH  14  16
ENDBRANCH  12  14
ENDBRANCH  11  12
ENDBRANCH   9  11
ENDBRANCH   1   9
BRANCH   8  17
ATOM     17  C   UNL     1       5.646   6.854  17.204  0.00  0.00    +0.000 C 
ATOM     18  N   UNL     1       6.526   7.592  17.023  0.00  0.00    +0.000 NA
ENDBRANCH   8  17
TORSDOF 6
ENDMDL
MODEL 7
REMARK VINA RESULT:      -6.0      3.617      5.278
REMARK  Name = 
REMARK  9 active torsions:
REMARK  status: ('A' for Active; 'I' for Inactive)
REMARK    1  A    between atoms: C_1  and  C_2
REMARK    2  A    between atoms: C_2  and  O_3
REMARK    3  A    between atoms: O_3  and  C_4
REMARK    4  A    between atoms: C_4  and  C_6
REMARK    5  A    between atoms: C_6  and  N_7
REMARK    6  A    between atoms: N_7  and  C_8
REMARK    7  A    between atoms: C_10  and  C_11
REMARK    8  A    between atoms: C_13  and  C_14
REMARK    9  A    between atoms: C_15  and  C_16
REMARK                            x       y       z     vdW  Elec       q    Type
REMARK                         _______ _______ _______ _____ _____    ______ ____
ROOT
ATOM      1  C   UNL     1       4.011   4.636  17.296  0.00  0.00    +0.000 A 
ATOM      2  N   UNL     1       3.883   5.980  17.192  0.00  0.00    +0.000 NA
ATOM      3  C   UNL     1       3.004   6.619  18.006  0.00  0.00    +0.000 A 
ATOM      4  C   UNL     1       2.890   8.110  17.880  0.00  0.00    +0.000 C 
ATOM      5  C   UNL     1       2.229   5.952  18.950  0.00  0.00    +0.000 A 
ATOM      6  C   UNL     1       2.354   4.568  19.075  0.00  0.00    +0.000 A 
ATOM      7  C   UNL     1       1.538   3.826  20.095  0.00  0.00    +0.000 C 
ATOM      8  C   UNL     1       3.260   3.905  18.232  0.00  0.00    +0.000 A 
ENDROOT
BRANCH   1   9
ATOM      9  N   UNL     1       4.989   3.998  16.541  0.00  0.00    +0.000 N 
ATOM     10  H   UNL     1       4.670   3.664  15.633  0.00  0.00    +0.000 HD
BRANCH   9  11
ATOM     11  C   UNL     1       6.318   4.610  16.445  0.00  0.00    +0.000 C 
BRANCH  11  12
ATOM     12  C   UNL     1       6.714   4.669  14.970  0.00  0.00    +0.000 C 
ATOM     13  O   UNL     1       7.622   5.365  14.526  0.00  0.00    +0.000 OA
BRANCH  12  14
ATOM     14  O   UNL     1       5.896   3.879  14.222  0.00  0.00    +0.000 OA
BRANCH  14  16
ATOM     15  C   UNL     1       5.117   3.325  12.042  0.00  0.00    +0.000 C 
ATOM     16  C   UNL     1       6.343   3.656  12.876  0.00  0.00    +0.000 C 
ENDBRANCH  14  16
ENDBRANCH  12  14
ENDBRANCH  11  12
ENDBRANCH   9  11
ENDBRANCH   1   9
BRANCH   8  17
ATOM     17  C   UNL     1       3.420   2.486  18.326  0.00  0.00    +0.000 C 
ATOM     18  N   UNL     1       3.547   1.331  18.362  0.00  0.00    +0.000 NA
ENDBRANCH   8  17
TORSDOF 6
ENDMDL
MODEL 8
REMARK VINA RESULT:      -6.0      3.132      4.876
REMARK  Name = 
REMARK  9 active torsions:
REMARK  status: ('A' for Active; 'I' for Inactive)
REMARK    1  A    between atoms: C_1  and  C_2
REMARK    2  A    between atoms: C_2  and  O_3
REMARK    3  A    between atoms: O_3  and  C_4
REMARK    4  A    between atoms: C_4  and  C_6
REMARK    5  A    between atoms: C_6  and  N_7
REMARK    6  A    between atoms: N_7  and  C_8
REMARK    7  A    between atoms: C_10  and  C_11
REMARK    8  A    between atoms: C_13  and  C_14
REMARK    9  A    between atoms: C_15  and  C_16
REMARK                            x       y       z     vdW  Elec       q    Type
REMARK                         _______ _______ _______ _____ _____    ______ ____
ROOT
ATOM      1  C   UNL     1       4.370   4.881  19.170  0.00  0.00    +0.000 A 
ATOM      2  N   UNL     1       3.794   6.099  19.032  0.00  0.00    +0.000 NA
ATOM      3  C   UNL     1       2.619   6.343  19.664  0.00  0.00    +0.000 A 
ATOM      4  C   UNL     1       2.008   7.705  19.504  0.00  0.00    +0.000 C 
ATOM      5  C   UNL     1       1.979   5.396  20.457  0.00  0.00    +0.000 A 
ATOM      6  C   UNL     1       2.562   4.139  20.617  0.00  0.00    +0.000 A 
ATOM      7  C   UNL     1       1.897   3.102  21.478  0.00  0.00    +0.000 C 
ATOM      8  C   UNL     1       3.776   3.883  19.960  0.00  0.00    +0.000 A 
ENDROOT
BRANCH   1   9
ATOM      9  N   UNL     1       5.627   4.669  18.613  0.00  0.00    +0.000 N 
ATOM     10  H   UNL     1       6.229   4.052  19.154  0.00  0.00    +0.000 HD
BRANCH   9  11
ATOM     11  C   UNL     1       5.723   4.384  17.178  0.00  0.00    +0.000 C 
BRANCH  11  12
ATOM     12  C   UNL     1       7.186   4.526  16.758  0.00  0.00    +0.000 C 
ATOM     13  O   UNL     1       8.140   4.195  17.454  0.00  0.00    +0.000 OA
BRANCH  12  14
ATOM     14  O   UNL     1       7.278   5.105  15.529  0.00  0.00    +0.000 OA
BRANCH  14  16
ATOM     15  C   UNL     1       6.365   3.970  13.646  0.00  0.00    +0.000 C 
ATOM     16  C   UNL     1       6.092   5.003  14.726  0.00  0.00    +0.000 C 
ENDBRANCH  14  16
ENDBRANCH  12  14
ENDBRANCH  11  12
ENDBRANCH   9  11
ENDBRANCH   1   9
BRANCH   8  17
ATOM     17  C   UNL     1       4.409   2.607  20.096  0.00  0.00    +0.000 C 
ATOM     18  N   UNL     1       4.885   1.552  20.205  0.00  0.00    +0.000 NA
ENDBRANCH   8  17
TORSDOF 6
ENDMDL
MODEL 9
REMARK VINA RESULT:      -5.9      3.449      5.626
REMARK  Name = 
REMARK  9 active torsions:
REMARK  status: ('A' for Active; 'I' for Inactive)
REMARK    1  A    between atoms: C_1  and  C_2
REMARK    2  A    between atoms: C_2  and  O_3
REMARK    3  A    between atoms: O_3  and  C_4
REMARK    4  A    between atoms: C_4  and  C_6
REMARK    5  A    between atoms: C_6  and  N_7
REMARK    6  A    between atoms: N_7  and  C_8
REMARK    7  A    between atoms: C_10  and  C_11
REMARK    8  A    between atoms: C_13  and  C_14
REMARK    9  A    between atoms: C_15  and  C_16
REMARK                            x       y       z     vdW  Elec       q    Type
REMARK                         _______ _______ _______ _____ _____    ______ ____
ROOT
ATOM      1  C   UNL     1       5.130   4.886  19.080  0.00  0.00    +0.000 A 
ATOM      2  N   UNL     1       5.356   3.659  19.604  0.00  0.00    +0.000 NA
ATOM      3  C   UNL     1       4.377   2.723  19.524  0.00  0.00    +0.000 A 
ATOM      4  C   UNL     1       4.656   1.366  20.102  0.00  0.00    +0.000 C 
ATOM      5  C   UNL     1       3.148   2.968  18.920  0.00  0.00    +0.000 A 
ATOM      6  C   UNL     1       2.901   4.225  18.368  0.00  0.00    +0.000 A 
ATOM      7  C   UNL     1       1.587   4.512  17.698  0.00  0.00    +0.000 C 
ATOM      8  C   UNL     1       3.912   5.196  18.453  0.00  0.00    +0.000 A 
ENDROOT
BRANCH   1   9
ATOM      9  N   UNL     1       6.173   5.807  19.064  0.00  0.00    +0.000 N 
ATOM     10  H   UNL     1       6.453   6.143  19.984  0.00  0.00    +0.000 HD
BRANCH   9  11
ATOM     11  C   UNL     1       7.339   5.539  18.218  0.00  0.00    +0.000 C 
BRANCH  11  12
ATOM     12  C   UNL     1       7.299   6.495  17.026  0.00  0.00    +0.000 C 
ATOM     13  O   UNL     1       7.047   7.693  17.110  0.00  0.00    +0.000 OA
BRANCH  12  14
ATOM     14  O   UNL     1       7.538   5.825  15.865  0.00  0.00    +0.000 OA
BRANCH  14  16
ATOM     15  C   UNL     1       5.509   4.845  15.098  0.00  0.00    +0.000 C 
ATOM     16  C   UNL     1       6.856   4.568  15.745  0.00  0.00    +0.000 C 
ENDBRANCH  14  16
ENDBRANCH  12  14
ENDBRANCH  11  12
ENDBRANCH   9  11
ENDBRANCH   1   9
BRANCH   8  17
ATOM     17  C   UNL     1       3.702   6.499  17.900  0.00  0.00    +0.000 C 
ATOM     18  N   UNL     1       3.568   7.569  17.465  0.00  0.00    +0.000 NA
ENDBRANCH   8  17
TORSDOF 6
ENDMDL
