MODEL 1
REMARK VINA RESULT:      -7.5      0.000      0.000
REMARK  Name = 
REMARK  9 active torsions:
REMARK  status: ('A' for Active; 'I' for Inactive)
REMARK    1  A    between atoms: C_2  and  C_3
REMARK    2  A    between atoms: C_3  and  C_4
REMARK    3  A    between atoms: C_4  and  N_5
REMARK    4  A    between atoms: N_8  and  C_9
REMARK    5  A    between atoms: C_9  and  C_10
REMARK    6  A    between atoms: C_10  and  C_12
REMARK    7  A    between atoms: C_12  and  O_13
REMARK    8  A    between atoms: C_12  and  C_14
REMARK    9  A    between atoms: C_12  and  C_20
REMARK                            x       y       z     vdW  Elec       q    Type
REMARK                         _______ _______ _______ _____ _____    ______ ____
ROOT
ATOM      1  C   UNL     1       5.206   6.310  16.169  0.00  0.00    +0.000 C 
ATOM      2  O   UNL     1       4.928   6.815  15.072  0.00  0.00    +0.000 OA
ENDROOT
BRANCH   1   3
ATOM      3  C   UNL     1       4.457   6.743  17.427  0.00  0.00    +0.000 C 
BRANCH   3   7
ATOM      4  N   UNL     1       2.462   5.512  20.446  0.00  0.00    +0.000 NA
ATOM      5  C   UNL     1       3.555   4.803  19.749  0.00  0.00    +0.000 C 
ATOM      6  C   UNL     1       3.364   4.703  18.220  0.00  0.00    +0.000 C 
ATOM      7  N   UNL     1       3.186   6.007  17.538  0.00  0.00    +0.000 NA
ATOM      8  C   UNL     1       2.165   6.805  18.253  0.00  0.00    +0.000 C 
ATOM      9  C   UNL     1       2.289   6.830  19.798  0.00  0.00    +0.000 C 
BRANCH   4  10
ATOM     10  C   UNL     1       1.198   4.740  20.478  0.00  0.00    +0.000 C 
BRANCH  10  11
ATOM     11  C   UNL     1       1.398   3.319  21.050  0.00  0.00    +0.000 C 
BRANCH  11  13
ATOM     12  C   UNL     1       0.681   2.346  18.864  0.00  0.00    +0.000 C 
ATOM     13  C   UNL     1       1.327   2.213  20.031  0.00  0.00    +0.000 C 
ENDBRANCH  11  13
ENDBRANCH  10  11
ENDBRANCH   4  10
ENDBRANCH   3   7
ENDBRANCH   1   3
BRANCH   1  14
ATOM     14  C   UNL     1       6.270   5.174  16.310  0.00  0.00    +0.000 C 
BRANCH  14  15
ATOM     15  C   UNL     1       6.656   4.773  14.875  0.00  0.00    +0.000 A 
ATOM     16  C   UNL     1       7.674   5.486  14.210  0.00  0.00    +0.000 A 
ATOM     17  C   UNL     1       7.943   5.277  12.858  0.00  0.00    +0.000 A 
ATOM     18  C   UNL     1       7.197   4.351  12.139  0.00  0.00    +0.000 A 
ATOM     19  C   UNL     1       6.206   3.610  12.781  0.00  0.00    +0.000 A 
ATOM     20  C   UNL     1       5.938   3.810  14.142  0.00  0.00    +0.000 A 
ENDBRANCH  14  15
BRANCH  14  21
ATOM     21  C   UNL     1       7.513   5.684  17.071  0.00  0.00    +0.000 C 
ATOM     22  C   UNL     1       7.565   7.208  17.396  0.00  0.00    +0.000 C 
ATOM     23  C   UNL     1       8.280   6.834  18.709  0.00  0.00    +0.000 C 
ATOM     24  C   UNL     1       7.601   5.454  18.611  0.00  0.00    +0.000 C 
ENDBRANCH  14  21
BRANCH  14  25
ATOM     25  O   UNL     1       5.785   4.058  17.053  0.00  0.00    +0.000 OA
ATOM     26  H   UNL     1       4.816   4.072  17.072  0.00  0.00    +0.000 HD
ENDBRANCH  14  25
ENDBRANCH   1  14
TORSDOF 9
ENDMDL
MODEL 2
REMARK VINA RESULT:      -7.4      2.035      6.815
REMARK  Name = 
REMARK  9 active torsions:
REMARK  status: ('A' for Active; 'I' for Inactive)
REMARK    1  A    between atoms: C_2  and  C_3
REMARK    2  A    between atoms: C_3  and  C_4
REMARK    3  A    between atoms: C_4  and  N_5
REMARK    4  A    between atoms: N_8  and  C_9
REMARK    5  A    between atoms: C_9  and  C_10
REMARK    6  A    between atoms: C_10  and  C_12
REMARK    7  A    between atoms: C_12  and  O_13
REMARK    8  A    between atoms: C_12  and  C_14
REMARK    9  A    between atoms: C_12  and  C_20
REMARK                            x       y       z     vdW  Elec       q    Type
REMARK                         _______ _______ _______ _____ _____    ______ ____
ROOT
ATOM      1  C   UNL     1       3.895   4.528  19.721  0.00  0.00    +0.000 C 
ATOM      2  O   UNL     1       4.236   3.370  20.002  0.00  0.00    +0.000 OA
ENDROOT
BRANCH   1   3
ATOM      3  C   UNL     1       4.837   5.439  18.940  0.00  0.00    +0.000 C 
BRANCH   3   7
ATOM      4  N   UNL     1       6.134   5.759  15.359  0.00  0.00    +0.000 NA
ATOM      5  C   UNL     1       4.914   5.055  15.807  0.00  0.00    +0.000 C 
ATOM      6  C   UNL     1       5.157   4.049  16.952  0.00  0.00    +0.000 C 
ATOM      7  N   UNL     1       5.790   4.634  18.158  0.00  0.00    +0.000 NA
ATOM      8  C   UNL     1       6.969   5.434  17.760  0.00  0.00    +0.000 C 
ATOM      9  C   UNL     1       6.765   6.376  16.546  0.00  0.00    +0.000 C 
BRANCH   4  10
ATOM     10  C   UNL     1       7.073   4.881  14.624  0.00  0.00    +0.000 C 
BRANCH  10  11
ATOM     11  C   UNL     1       6.360   3.672  13.982  0.00  0.00    +0.000 C 
BRANCH  11  13
ATOM     12  C   UNL     1       5.063   3.263  11.887  0.00  0.00    +0.000 C 
ATOM     13  C   UNL     1       6.136   3.785  12.497  0.00  0.00    +0.000 C 
ENDBRANCH  11  13
ENDBRANCH  10  11
ENDBRANCH   4  10
ENDBRANCH   3   7
ENDBRANCH   1   3
BRANCH   1  14
ATOM     14  C   UNL     1       2.478   5.082  20.083  0.00  0.00    +0.000 C 
BRANCH  14  15
ATOM     15  C   UNL     1       2.406   6.494  19.473  0.00  0.00    +0.000 A 
ATOM     16  C   UNL     1       1.928   7.561  20.260  0.00  0.00    +0.000 A 
ATOM     17  C   UNL     1       1.682   8.818  19.707  0.00  0.00    +0.000 A 
ATOM     18  C   UNL     1       1.905   9.033  18.353  0.00  0.00    +0.000 A 
ATOM     19  C   UNL     1       2.406   8.003  17.560  0.00  0.00    +0.000 A 
ATOM     20  C   UNL     1       2.664   6.741  18.112  0.00  0.00    +0.000 A 
ENDBRANCH  14  15
BRANCH  14  21
ATOM     21  C   UNL     1       1.375   4.186  19.480  0.00  0.00    +0.000 C 
ATOM     22  C   UNL     1       1.759   3.337  18.231  0.00  0.00    +0.000 C 
ATOM     23  C   UNL     1       0.815   2.244  18.769  0.00  0.00    +0.000 C 
ATOM     24  C   UNL     1       1.040   2.832  20.176  0.00  0.00    +0.000 C 
ENDBRANCH  14  21
BRANCH  14  25
ATOM     25  O   UNL     1       2.242   5.106  21.489  0.00  0.00    +0.000 OA
ATOM     26  H   UNL     1       3.063   4.909  21.963  0.00  0.00    +0.000 HD
ENDBRANCH  14  25
ENDBRANCH   1  14
TORSDOF 9
ENDMDL
MODEL 3
REMARK VINA RESULT:      -7.4      0.982      1.432
REMARK  Name = 
REMARK  9 active torsions:
REMARK  status: ('A' for Active; 'I' for Inactive)
REMARK    1  A    between atoms: C_2  and  C_3
REMARK    2  A    between atoms: C_3  and  C_4
REMARK    3  A    between atoms: C_4  and  N_5
REMARK    4  A    between atoms: N_8  and  C_9
REMARK    5  A    between atoms: C_9  and  C_10
REMARK    6  A    between atoms: C_10  and  C_12
REMARK    7  A    between atoms: C_12  and  O_13
REMARK    8  A    between atoms: C_12  and  C_14
REMARK    9  A    between atoms: C_12  and  C_20
REMARK                            x       y       z     vdW  Elec       q    Type
REMARK                         _______ _______ _______ _____ _____    ______ ____
ROOT
ATOM      1  C   UNL     1       5.129   6.116  16.160  0.00  0.00    +0.000 C 
ATOM      2  O   UNL     1       4.939   6.793  15.139  0.00  0.00    +0.000 OA
ENDROOT
BRANCH   1   3
ATOM      3  C   UNL     1       4.150   6.193  17.328  0.00  0.00    +0.000 C 
BRANCH   3   7
ATOM      4  N   UNL     1       1.208   4.525  19.108  0.00  0.00    +0.000 NA
ATOM      5  C   UNL     1       2.238   5.396  19.711  0.00  0.00    +0.000 C 
ATOM      6  C   UNL     1       3.686   4.967  19.393  0.00  0.00    +0.000 C 
ATOM      7  N   UNL     1       3.993   4.866  17.947  0.00  0.00    +0.000 NA
ATOM      8  C   UNL     1       2.937   4.079  17.271  0.00  0.00    +0.000 C 
ATOM      9  C   UNL     1       1.479   4.435  17.657  0.00  0.00    +0.000 C 
BRANCH   4  10
ATOM     10  C   UNL     1       1.136   3.188  19.743  0.00  0.00    +0.000 C 
BRANCH  10  11
ATOM     11  C   UNL     1       1.275   3.264  21.278  0.00  0.00    +0.000 C 
BRANCH  11  13
ATOM     12  C   UNL     1       3.477   2.098  21.101  0.00  0.00    +0.000 C 
ATOM     13  C   UNL     1       2.433   2.488  21.847  0.00  0.00    +0.000 C 
ENDBRANCH  11  13
ENDBRANCH  10  11
ENDBRANCH   4  10
ENDBRANCH   3   7
ENDBRANCH   1   3
BRANCH   1  14
ATOM     14  C   UNL     1       6.321   5.111  16.273  0.00  0.00    +0.000 C 
BRANCH  14  15
ATOM     15  C   UNL     1       6.712   4.750  14.829  0.00  0.00    +0.000 A 
ATOM     16  C   UNL     1       7.735   5.479  14.188  0.00  0.00    +0.000 A 
ATOM     17  C   UNL     1       8.008   5.308  12.832  0.00  0.00    +0.000 A 
ATOM     18  C   UNL     1       7.262   4.405  12.084  0.00  0.00    +0.000 A 
ATOM     19  C   UNL     1       6.266   3.650  12.700  0.00  0.00    +0.000 A 
ATOM     20  C   UNL     1       5.993   3.811  14.065  0.00  0.00    +0.000 A 
ENDBRANCH  14  15
BRANCH  14  21
ATOM     21  C   UNL     1       7.516   5.765  16.999  0.00  0.00    +0.000 C 
ATOM     22  C   UNL     1       7.399   7.286  17.321  0.00  0.00    +0.000 C 
ATOM     23  C   UNL     1       8.189   7.003  18.613  0.00  0.00    +0.000 C 
ATOM     24  C   UNL     1       7.674   5.552  18.535  0.00  0.00    +0.000 C 
ENDBRANCH  14  21
BRANCH  14  25
ATOM     25  O   UNL     1       5.988   3.949  17.031  0.00  0.00    +0.000 OA
ATOM     26  H   UNL     1       6.441   3.176  16.662  0.00  0.00    +0.000 HD
ENDBRANCH  14  25
ENDBRANCH   1  14
TORSDOF 9
ENDMDL
MODEL 4
REMARK VINA RESULT:      -7.3      0.364      1.031
REMARK  Name = 
REMARK  9 active torsions:
REMARK  status: ('A' for Active; 'I' for Inactive)
REMARK    1  A    between atoms: C_2  and  C_3
REMARK    2  A    between atoms: C_3  and  C_4
REMARK    3  A    between atoms: C_4  and  N_5
REMARK    4  A    between atoms: N_8  and  C_9
REMARK    5  A    between atoms: C_9  and  C_10
REMARK    6  A    between atoms: C_10  and  C_12
REMARK    7  A    between atoms: C_12  and  O_13
REMARK    8  A    between atoms: C_12  and  C_14
REMARK    9  A    between atoms: C_12  and  C_20
REMARK                            x       y       z     vdW  Elec       q    Type
REMARK                         _______ _______ _______ _____ _____    ______ ____
ROOT
ATOM      1  C   UNL     1       5.084   6.501  16.124  0.00  0.00    +0.000 C 
ATOM      2  O   UNL     1       4.806   7.087  15.068  0.00  0.00    +0.000 OA
ENDROOT
BRANCH   1   3
ATOM      3  C   UNL     1       4.414   6.913  17.432  0.00  0.00    +0.000 C 
BRANCH   3   7
ATOM      4  N   UNL     1       2.400   5.713  20.450  0.00  0.00    +0.000 NA
ATOM      5  C   UNL     1       3.415   4.950  19.694  0.00  0.00    +0.000 C 
ATOM      6  C   UNL     1       3.179   4.934  18.169  0.00  0.00    +0.000 C 
ATOM      7  N   UNL     1       3.091   6.278  17.548  0.00  0.00    +0.000 NA
ATOM      8  C   UNL     1       2.156   7.122  18.324  0.00  0.00    +0.000 C 
ATOM      9  C   UNL     1       2.319   7.068  19.864  0.00  0.00    +0.000 C 
BRANCH   4  10
ATOM     10  C   UNL     1       1.079   5.043  20.485  0.00  0.00    +0.000 C 
BRANCH  10  11
ATOM     11  C   UNL     1       1.201   3.525  20.740  0.00  0.00    +0.000 C 
BRANCH  11  13
ATOM     12  C   UNL     1       1.467   1.875  18.883  0.00  0.00    +0.000 C 
ATOM     13  C   UNL     1       0.672   2.654  19.631  0.00  0.00    +0.000 C 
ENDBRANCH  11  13
ENDBRANCH  10  11
ENDBRANCH   4  10
ENDBRANCH   3   7
ENDBRANCH   1   3
BRANCH   1  14
ATOM     14  C   UNL     1       6.063   5.283  16.160  0.00  0.00    +0.000 C 
BRANCH  14  15
ATOM     15  C   UNL     1       6.409   4.973  14.692  0.00  0.00    +0.000 A 
ATOM     16  C   UNL     1       5.660   4.001  13.998  0.00  0.00    +0.000 A 
ATOM     17  C   UNL     1       6.039   3.562  12.730  0.00  0.00    +0.000 A 
ATOM     18  C   UNL     1       7.177   4.083  12.128  0.00  0.00    +0.000 A 
ATOM     19  C   UNL     1       7.917   5.068  12.780  0.00  0.00    +0.000 A 
ATOM     20  C   UNL     1       7.536   5.519  14.051  0.00  0.00    +0.000 A 
ENDBRANCH  14  15
BRANCH  14  21
ATOM     21  C   UNL     1       7.345   5.640  16.943  0.00  0.00    +0.000 C 
ATOM     22  C   UNL     1       7.506   7.123  17.395  0.00  0.00    +0.000 C 
ATOM     23  C   UNL     1       8.205   6.590  18.660  0.00  0.00    +0.000 C 
ATOM     24  C   UNL     1       7.431   5.272  18.455  0.00  0.00    +0.000 C 
ENDBRANCH  14  21
BRANCH  14  25
ATOM     25  O   UNL     1       5.503   4.149  16.817  0.00  0.00    +0.000 OA
ATOM     26  H   UNL     1       5.207   4.397  17.705  0.00  0.00    +0.000 HD
ENDBRANCH  14  25
ENDBRANCH   1  14
TORSDOF 9
ENDMDL
MODEL 5
REMARK VINA RESULT:      -7.1      1.045      1.767
REMARK  Name = 
REMARK  9 active torsions:
REMARK  status: ('A' for Active; 'I' for Inactive)
REMARK    1  A    between atoms: C_2  and  C_3
REMARK    2  A    between atoms: C_3  and  C_4
REMARK    3  A    between atoms: C_4  and  N_5
REMARK    4  A    between atoms: N_8  and  C_9
REMARK    5  A    between atoms: C_9  and  C_10
REMARK    6  A    between atoms: C_10  and  C_12
REMARK    7  A    between atoms: C_12  and  O_13
REMARK    8  A    between atoms: C_12  and  C_14
REMARK    9  A    between atoms: C_12  and  C_20
REMARK                            x       y       z     vdW  Elec       q    Type
REMARK                         _______ _______ _______ _____ _____    ______ ____
ROOT
ATOM      1  C   UNL     1       4.974   5.784  16.140  0.00  0.00    +0.000 C 
ATOM      2  O   UNL     1       5.037   6.936  15.686  0.00  0.00    +0.000 OA
ENDROOT
BRANCH   1   3
ATOM      3  C   UNL     1       3.677   5.273  16.760  0.00  0.00    +0.000 C 
BRANCH   3   7
ATOM      4  N   UNL     1       1.706   5.150  20.032  0.00  0.00    +0.000 NA
ATOM      5  C   UNL     1       2.672   6.185  19.611  0.00  0.00    +0.000 C 
ATOM      6  C   UNL     1       4.035   5.623  19.155  0.00  0.00    +0.000 C 
ATOM      7  N   UNL     1       3.953   4.631  18.057  0.00  0.00    +0.000 NA
ATOM      8  C   UNL     1       2.927   3.615  18.382  0.00  0.00    +0.000 C 
ATOM      9  C   UNL     1       1.587   4.165  18.936  0.00  0.00    +0.000 C 
BRANCH   4  10
ATOM     10  C   UNL     1       2.069   4.508  21.318  0.00  0.00    +0.000 C 
BRANCH  10  11
ATOM     11  C   UNL     1       1.353   3.155  21.517  0.00  0.00    +0.000 C 
BRANCH  11  13
ATOM     12  C   UNL     1       3.594   2.055  21.415  0.00  0.00    +0.000 C 
ATOM     13  C   UNL     1       2.268   1.962  21.596  0.00  0.00    +0.000 C 
ENDBRANCH  11  13
ENDBRANCH  10  11
ENDBRANCH   4  10
ENDBRANCH   3   7
ENDBRANCH   1   3
BRANCH   1  14
ATOM     14  C   UNL     1       6.175   4.789  16.038  0.00  0.00    +0.000 C 
BRANCH  14  15
ATOM     15  C   UNL     1       6.537   4.711  14.544  0.00  0.00    +0.000 A 
ATOM     16  C   UNL     1       5.871   3.780  13.721  0.00  0.00    +0.000 A 
ATOM     17  C   UNL     1       6.279   3.550  12.407  0.00  0.00    +0.000 A 
ATOM     18  C   UNL     1       7.364   4.246  11.888  0.00  0.00    +0.000 A 
ATOM     19  C   UNL     1       8.019   5.194  12.671  0.00  0.00    +0.000 A 
ATOM     20  C   UNL     1       7.609   5.435  13.988  0.00  0.00    +0.000 A 
ENDBRANCH  14  15
BRANCH  14  21
ATOM     21  C   UNL     1       7.381   5.309  16.850  0.00  0.00    +0.000 C 
ATOM     22  C   UNL     1       7.238   6.718  17.502  0.00  0.00    +0.000 C 
ATOM     23  C   UNL     1       8.087   6.186  18.674  0.00  0.00    +0.000 C 
ATOM     24  C   UNL     1       7.606   4.771  18.295  0.00  0.00    +0.000 C 
ENDBRANCH  14  21
BRANCH  14  25
ATOM     25  O   UNL     1       5.868   3.503  16.571  0.00  0.00    +0.000 OA
ATOM     26  H   UNL     1       6.385   2.825  16.110  0.00  0.00    +0.000 HD
ENDBRANCH  14  25
ENDBRANCH   1  14
TORSDOF 9
ENDMDL
MODEL 6
REMARK VINA RESULT:      -7.0      3.811      6.200
REMARK  Name = 
REMARK  9 active torsions:
REMARK  status: ('A' for Active; 'I' for Inactive)
REMARK    1  A    between atoms: C_2  and  C_3
REMARK    2  A    between atoms: C_3  and  C_4
REMARK    3  A    between atoms: C_4  and  N_5
REMARK    4  A    between atoms: N_8  and  C_9
REMARK    5  A    between atoms: C_9  and  C_10
REMARK    6  A    between atoms: C_10  and  C_12
REMARK    7  A    between atoms: C_12  and  O_13
REMARK    8  A    between atoms: C_12  and  C_14
REMARK    9  A    between atoms: C_12  and  C_20
REMARK                            x       y       z     vdW  Elec       q    Type
REMARK                         _______ _______ _______ _____ _____    ______ ____
ROOT
ATOM      1  C   UNL     1       2.560   6.970  18.836  0.00  0.00    +0.000 C 
ATOM      2  O   UNL     1       2.743   7.666  17.827  0.00  0.00    +0.000 OA
ENDROOT
BRANCH   1   3
ATOM      3  C   UNL     1       2.205   7.625  20.168  0.00  0.00    +0.000 C 
BRANCH   3   7
ATOM      4  N   UNL     1       0.657  10.715  21.800  0.00  0.00    +0.000 NA
ATOM      5  C   UNL     1       0.749   9.355  22.371  0.00  0.00    +0.000 C 
ATOM      6  C   UNL     1       0.211   8.247  21.441  0.00  0.00    +0.000 C 
ATOM      7  N   UNL     1       0.852   8.203  20.105  0.00  0.00    +0.000 NA
ATOM      8  C   UNL     1       0.875   9.562  19.522  0.00  0.00    +0.000 C 
ATOM      9  C   UNL     1       1.319  10.699  20.478  0.00  0.00    +0.000 C 
BRANCH   4  10
ATOM     10  C   UNL     1      -0.735  11.216  21.718  0.00  0.00    +0.000 C 
BRANCH  10  11
ATOM     11  C   UNL     1      -1.424  11.249  23.099  0.00  0.00    +0.000 C 
BRANCH  11  13
ATOM     12  C   UNL     1      -3.560  12.365  23.759  0.00  0.00    +0.000 C 
ATOM     13  C   UNL     1      -2.288  12.458  23.345  0.00  0.00    +0.000 C 
ENDBRANCH  11  13
ENDBRANCH  10  11
ENDBRANCH   4  10
ENDBRANCH   3   7
ENDBRANCH   1   3
BRANCH   1  14
ATOM     14  C   UNL     1       2.610   5.409  18.783  0.00  0.00    +0.000 C 
BRANCH  14  15
ATOM     15  C   UNL     1       4.049   5.043  18.380  0.00  0.00    +0.000 A 
ATOM     16  C   UNL     1       5.119   5.432  19.211  0.00  0.00    +0.000 A 
ATOM     17  C   UNL     1       6.445   5.278  18.809  0.00  0.00    +0.000 A 
ATOM     18  C   UNL     1       6.732   4.731  17.565  0.00  0.00    +0.000 A 
ATOM     19  C   UNL     1       5.693   4.309  16.737  0.00  0.00    +0.000 A 
ATOM     20  C   UNL     1       4.359   4.454  17.139  0.00  0.00    +0.000 A 
ENDBRANCH  14  15
BRANCH  14  21
ATOM     21  C   UNL     1       2.277   4.807  20.165  0.00  0.00    +0.000 C 
ATOM     22  C   UNL     1       0.853   4.197  20.345  0.00  0.00    +0.000 C 
ATOM     23  C   UNL     1       1.495   3.145  21.270  0.00  0.00    +0.000 C 
ATOM     24  C   UNL     1       2.821   3.391  20.522  0.00  0.00    +0.000 C 
ENDBRANCH  14  21
BRANCH  14  25
ATOM     25  O   UNL     1       1.656   4.860  17.875  0.00  0.00    +0.000 OA
ATOM     26  H   UNL     1       0.829   4.672  18.343  0.00  0.00    +0.000 HD
ENDBRANCH  14  25
ENDBRANCH   1  14
TORSDOF 9
ENDMDL
MODEL 7
REMARK VINA RESULT:      -7.0      3.908      6.804
REMARK  Name = 
REMARK  9 active torsions:
REMARK  status: ('A' for Active; 'I' for Inactive)
REMARK    1  A    between atoms: C_2  and  C_3
REMARK    2  A    between atoms: C_3  and  C_4
REMARK    3  A    between atoms: C_4  and  N_5
REMARK    4  A    between atoms: N_8  and  C_9
REMARK    5  A    between atoms: C_9  and  C_10
REMARK    6  A    between atoms: C_10  and  C_12
REMARK    7  A    between atoms: C_12  and  O_13
REMARK    8  A    between atoms: C_12  and  C_14
REMARK    9  A    between atoms: C_12  and  C_20
REMARK                            x       y       z     vdW  Elec       q    Type
REMARK                         _______ _______ _______ _____ _____    ______ ____
ROOT
ATOM      1  C   UNL     1       2.384   7.228  18.855  0.00  0.00    +0.000 C 
ATOM      2  O   UNL     1       1.912   7.625  17.780  0.00  0.00    +0.000 OA
ENDROOT
BRANCH   1   3
ATOM      3  C   UNL     1       2.065   7.962  20.154  0.00  0.00    +0.000 C 
BRANCH   3   7
ATOM      4  N   UNL     1       0.422  10.914  21.941  0.00  0.00    +0.000 NA
ATOM      5  C   UNL     1       0.537   9.525  22.432  0.00  0.00    +0.000 C 
ATOM      6  C   UNL     1       0.039   8.462  21.430  0.00  0.00    +0.000 C 
ATOM      7  N   UNL     1       0.700   8.512  20.104  0.00  0.00    +0.000 NA
ATOM      8  C   UNL     1       0.700   9.904  19.602  0.00  0.00    +0.000 C 
ATOM      9  C   UNL     1       1.103  10.991  20.630  0.00  0.00    +0.000 C 
BRANCH   4  10
ATOM     10  C   UNL     1      -0.980  11.388  21.867  0.00  0.00    +0.000 C 
BRANCH  10  11
ATOM     11  C   UNL     1      -1.673  11.377  23.246  0.00  0.00    +0.000 C 
BRANCH  11  13
ATOM     12  C   UNL     1      -3.520  12.733  22.253  0.00  0.00    +0.000 C 
ATOM     13  C   UNL     1      -2.917  12.220  23.335  0.00  0.00    +0.000 C 
ENDBRANCH  11  13
ENDBRANCH  10  11
ENDBRANCH   4  10
ENDBRANCH   3   7
ENDBRANCH   1   3
BRANCH   1  14
ATOM     14  C   UNL     1       3.257   5.934  18.945  0.00  0.00    +0.000 C 
BRANCH  14  15
ATOM     15  C   UNL     1       2.385   4.881  19.652  0.00  0.00    +0.000 A 
ATOM     16  C   UNL     1       2.694   4.504  20.974  0.00  0.00    +0.000 A 
ATOM     17  C   UNL     1       2.046   3.437  21.596  0.00  0.00    +0.000 A 
ATOM     18  C   UNL     1       1.074   2.722  20.908  0.00  0.00    +0.000 A 
ATOM     19  C   UNL     1       0.728   3.094  19.610  0.00  0.00    +0.000 A 
ATOM     20  C   UNL     1       1.370   4.170  18.984  0.00  0.00    +0.000 A 
ENDBRANCH  14  15
BRANCH  14  21
ATOM     21  C   UNL     1       3.645   5.441  17.534  0.00  0.00    +0.000 C 
ATOM     22  C   UNL     1       4.854   6.147  16.848  0.00  0.00    +0.000 C 
ATOM     23  C   UNL     1       5.202   4.785  16.216  0.00  0.00    +0.000 C 
ATOM     24  C   UNL     1       4.463   4.121  17.395  0.00  0.00    +0.000 C 
ENDBRANCH  14  21
BRANCH  14  25
ATOM     25  O   UNL     1       4.484   6.148  19.638  0.00  0.00    +0.000 OA
ATOM     26  H   UNL     1       4.349   6.027  20.590  0.00  0.00    +0.000 HD
ENDBRANCH  14  25
ENDBRANCH   1  14
TORSDOF 9
ENDMDL
MODEL 8
REMARK VINA RESULT:      -7.0      3.884      6.263
REMARK  Name = 
REMARK  9 active torsions:
REMARK  status: ('A' for Active; 'I' for Inactive)
REMARK    1  A    between atoms: C_2  and  C_3
REMARK    2  A    between atoms: C_3  and  C_4
REMARK    3  A    between atoms: C_4  and  N_5
REMARK    4  A    between atoms: N_8  and  C_9
REMARK    5  A    between atoms: C_9  and  C_10
REMARK    6  A    between atoms: C_10  and  C_12
REMARK    7  A    between atoms: C_12  and  O_13
REMARK    8  A    between atoms: C_12  and  C_14
REMARK    9  A    between atoms: C_12  and  C_20
REMARK                            x       y       z     vdW  Elec       q    Type
REMARK                         _______ _______ _______ _____ _____    ______ ____
ROOT
ATOM      1  C   UNL     1       2.438   7.214  18.828  0.00  0.00    +0.000 C 
ATOM      2  O   UNL     1       2.555   7.943  17.832  0.00  0.00    +0.000 OA
ENDROOT
BRANCH   1   3
ATOM      3  C   UNL     1       2.061   7.814  20.180  0.00  0.00    +0.000 C 
BRANCH   3   7
ATOM      4  N   UNL     1       0.474  10.810  21.944  0.00  0.00    +0.000 NA
ATOM      5  C   UNL     1       0.553   9.421  22.441  0.00  0.00    +0.000 C 
ATOM      6  C   UNL     1       0.037   8.366  21.439  0.00  0.00    +0.000 C 
ATOM      7  N   UNL     1       0.709   8.395  20.118  0.00  0.00    +0.000 NA
ATOM      8  C   UNL     1       0.745   9.785  19.611  0.00  0.00    +0.000 C 
ATOM      9  C   UNL     1       1.166  10.867  20.638  0.00  0.00    +0.000 C 
BRANCH   4  10
ATOM     10  C   UNL     1      -0.916  11.316  21.857  0.00  0.00    +0.000 C 
BRANCH  10  11
ATOM     11  C   UNL     1      -1.614  11.339  23.234  0.00  0.00    +0.000 C 
BRANCH  11  13
ATOM     12  C   UNL     1      -3.372  12.793  22.216  0.00  0.00    +0.000 C 
ATOM     13  C   UNL     1      -2.879  12.154  23.287  0.00  0.00    +0.000 C 
ENDBRANCH  11  13
ENDBRANCH  10  11
ENDBRANCH   4  10
ENDBRANCH   3   7
ENDBRANCH   1   3
BRANCH   1  14
ATOM     14  C   UNL     1       2.597   5.662  18.738  0.00  0.00    +0.000 C 
BRANCH  14  15
ATOM     15  C   UNL     1       4.054   5.407  18.312  0.00  0.00    +0.000 A 
ATOM     16  C   UNL     1       4.311   4.717  17.110  0.00  0.00    +0.000 A 
ATOM     17  C   UNL     1       5.600   4.312  16.767  0.00  0.00    +0.000 A 
ATOM     18  C   UNL     1       6.662   4.586  17.619  0.00  0.00    +0.000 A 
ATOM     19  C   UNL     1       6.439   5.295  18.799  0.00  0.00    +0.000 A 
ATOM     20  C   UNL     1       5.147   5.712  19.145  0.00  0.00    +0.000 A 
ENDBRANCH  14  15
BRANCH  14  21
ATOM     21  C   UNL     1       2.323   5.008  20.110  0.00  0.00    +0.000 C 
ATOM     22  C   UNL     1       0.900   4.412  20.336  0.00  0.00    +0.000 C 
ATOM     23  C   UNL     1       1.570   3.313  21.183  0.00  0.00    +0.000 C 
ATOM     24  C   UNL     1       2.861   3.570  20.380  0.00  0.00    +0.000 C 
ENDBRANCH  14  21
BRANCH  14  25
ATOM     25  O   UNL     1       1.674   5.068  17.828  0.00  0.00    +0.000 OA
ATOM     26  H   UNL     1       1.760   5.482  16.957  0.00  0.00    +0.000 HD
ENDBRANCH  14  25
ENDBRANCH   1  14
TORSDOF 9
ENDMDL
MODEL 9
REMARK VINA RESULT:      -6.9      2.221      6.892
REMARK  Name = 
REMARK  9 active torsions:
REMARK  status: ('A' for Active; 'I' for Inactive)
REMARK    1  A    between atoms: C_2  and  C_3
REMARK    2  A    between atoms: C_3  and  C_4
REMARK    3  A    between atoms: C_4  and  N_5
REMARK    4  A    between atoms: N_8  and  C_9
REMARK    5  A    between atoms: C_9  and  C_10
REMARK    6  A    between atoms: C_10  and  C_12
REMARK    7  A    between atoms: C_12  and  O_13
REMARK    8  A    between atoms: C_12  and  C_14
REMARK    9  A    between atoms: C_12  and  C_20
REMARK                            x       y       z     vdW  Elec       q    Type
REMARK                         _______ _______ _______ _____ _____    ______ ____
ROOT
ATOM      1  C   UNL     1       4.894   5.116  19.303  0.00  0.00    +0.000 C 
ATOM      2  O   UNL     1       5.793   4.831  20.108  0.00  0.00    +0.000 OA
ENDROOT
BRANCH   1   3
ATOM      3  C   UNL     1       5.241   5.524  17.874  0.00  0.00    +0.000 C 
BRANCH   3   7
ATOM      4  N   UNL     1       6.540   5.151  14.300  0.00  0.00    +0.000 NA
ATOM      5  C   UNL     1       5.137   5.058  14.753  0.00  0.00    +0.000 C 
ATOM      6  C   UNL     1       4.921   4.079  15.927  0.00  0.00    +0.000 C 
ATOM      7  N   UNL     1       5.749   4.364  17.124  0.00  0.00    +0.000 NA
ATOM      8  C   UNL     1       7.157   4.562  16.716  0.00  0.00    +0.000 C 
ATOM      9  C   UNL     1       7.379   5.465  15.476  0.00  0.00    +0.000 C 
BRANCH   4  10
ATOM     10  C   UNL     1       7.004   3.931  13.597  0.00  0.00    +0.000 C 
BRANCH  10  11
ATOM     11  C   UNL     1       6.510   3.878  12.135  0.00  0.00    +0.000 C 
BRANCH  11  13
ATOM     12  C   UNL     1       4.265   3.180  11.292  0.00  0.00    +0.000 C 
ATOM     13  C   UNL     1       5.432   2.861  11.869  0.00  0.00    +0.000 C 
ENDBRANCH  11  13
ENDBRANCH  10  11
ENDBRANCH   4  10
ENDBRANCH   3   7
ENDBRANCH   1   3
BRANCH   1  14
ATOM     14  C   UNL     1       3.381   5.004  19.681  0.00  0.00    +0.000 C 
BRANCH  14  15
ATOM     15  C   UNL     1       2.739   6.340  19.268  0.00  0.00    +0.000 A 
ATOM     16  C   UNL     1       2.976   6.848  17.974  0.00  0.00    +0.000 A 
ATOM     17  C   UNL     1       2.561   8.129  17.610  0.00  0.00    +0.000 A 
ATOM     18  C   UNL     1       1.903   8.932  18.533  0.00  0.00    +0.000 A 
ATOM     19  C   UNL     1       1.630   8.442  19.809  0.00  0.00    +0.000 A 
ATOM     20  C   UNL     1       2.036   7.152  20.177  0.00  0.00    +0.000 A 
ENDBRANCH  14  15
BRANCH  14  21
ATOM     21  C   UNL     1       2.716   3.837  18.919  0.00  0.00    +0.000 C 
ATOM     22  C   UNL     1       2.016   2.741  19.778  0.00  0.00    +0.000 C 
ATOM     23  C   UNL     1       0.974   2.618  18.649  0.00  0.00    +0.000 C 
ATOM     24  C   UNL     1       1.324   4.067  18.256  0.00  0.00    +0.000 C 
ENDBRANCH  14  21
BRANCH  14  25
ATOM     25  O   UNL     1       3.181   4.733  21.067  0.00  0.00    +0.000 OA
ATOM     26  H   UNL     1       3.709   5.345  21.600  0.00  0.00    +0.000 HD
ENDBRANCH  14  25
ENDBRANCH   1  14
TORSDOF 9
ENDMDL
