MODEL 1
REMARK VINA RESULT:      -6.7      0.000      0.000
REMARK  Name = 
REMARK  11 active torsions:
REMARK  status: ('A' for Active; 'I' for Inactive)
REMARK    1  A    between atoms: C_1  and  O_2
REMARK    2  A    between atoms: O_2  and  C_3
REMARK    3  A    between atoms: C_8  and  N_9
REMARK    4  A    between atoms: N_9  and  C_10
REMARK    5  A    between atoms: C_10  and  C_11
REMARK    6  A    between atoms: C_11  and  C_12
REMARK    7  A    between atoms: C_12  and  N_13
REMARK    8  A    between atoms: N_13  and  C_14
REMARK    9  A    between atoms: N_13  and  C_15
REMARK   10  A    between atoms: C_17  and  C_18
REMARK   11  A    between atoms: N_20  and  C_21
REMARK                            x       y       z     vdW  Elec       q    Type
REMARK                         _______ _______ _______ _____ _____    ______ ____
ROOT
ATOM      1  C   UNL     1       1.549   7.935  20.191  0.00  0.00    +0.000 A 
ATOM      2  C   UNL     1       1.769   9.014  19.301  0.00  0.00    +0.000 A 
ATOM      3  C   UNL     1       2.387   8.837  18.088  0.00  0.00    +0.000 A 
ATOM      4  C   UNL     1       2.810   7.584  17.712  0.00  0.00    +0.000 A 
ATOM      5  C   UNL     1       2.633   6.457  18.547  0.00  0.00    +0.000 A 
ATOM      6  C   UNL     1       3.065   5.172  18.109  0.00  0.00    +0.000 A 
ATOM      7  C   UNL     1       2.816   4.043  18.964  0.00  0.00    +0.000 A 
ATOM      8  C   UNL     1       3.056   2.614  18.957  0.00  0.00    +0.000 A 
ATOM      9  C   UNL     1       3.662   1.532  18.079  0.00  0.00    +0.000 C 
ATOM     10  N   UNL     1       2.568   2.125  20.100  0.00  0.00    +0.000 NA
ATOM     11  N   UNL     1       2.044   3.079  20.834  0.00  0.00    +0.000 N 
ATOM     12  C   UNL     1       1.448   2.696  22.109  0.00  0.00    +0.000 C 
ATOM     13  C   UNL     1       2.183   4.262  20.181  0.00  0.00    +0.000 A 
ATOM     14  N   UNL     1       1.769   5.505  20.614  0.00  0.00    +0.000 NA
ATOM     15  C   UNL     1       1.979   6.613  19.812  0.00  0.00    +0.000 A 
ENDROOT
BRANCH   1  17
ATOM     16  C   UNL     1       1.288   9.221  22.237  0.00  0.00    +0.000 C 
ATOM     17  O   UNL     1       0.927   8.180  21.380  0.00  0.00    +0.000 OA
ENDBRANCH   1  17
BRANCH   6  18
ATOM     18  N   UNL     1       3.726   5.078  16.845  0.00  0.00    +0.000 N 
ATOM     19  H   UNL     1       3.295   5.443  15.983  0.00  0.00    +0.000 HD
BRANCH  18  20
ATOM     20  C   UNL     1       5.088   4.716  16.762  0.00  0.00    +0.000 C 
BRANCH  20  21
ATOM     21  C   UNL     1       5.938   5.606  15.883  0.00  0.00    +0.000 C 
BRANCH  21  22
ATOM     22  C   UNL     1       7.251   5.801  16.667  0.00  0.00    +0.000 C 
BRANCH  22  23
ATOM     23  N   UNL     1       7.110   6.617  17.882  0.00  0.00    +0.000 NA
ATOM     24  C   UNL     1       7.801   5.983  19.018  0.00  0.00    +0.000 C 
ATOM     25  C   UNL     1       7.715   7.935  17.618  0.00  0.00    +0.000 C 
ENDBRANCH  22  23
ENDBRANCH  21  22
ENDBRANCH  20  21
ENDBRANCH  18  20
ENDBRANCH   6  18
TORSDOF 6
ENDMDL
MODEL 2
REMARK VINA RESULT:      -6.5      1.515      2.278
REMARK  Name = 
REMARK  11 active torsions:
REMARK  status: ('A' for Active; 'I' for Inactive)
REMARK    1  A    between atoms: C_1  and  O_2
REMARK    2  A    between atoms: O_2  and  C_3
REMARK    3  A    between atoms: C_8  and  N_9
REMARK    4  A    between atoms: N_9  and  C_10
REMARK    5  A    between atoms: C_10  and  C_11
REMARK    6  A    between atoms: C_11  and  C_12
REMARK    7  A    between atoms: C_12  and  N_13
REMARK    8  A    between atoms: N_13  and  C_14
REMARK    9  A    between atoms: N_13  and  C_15
REMARK   10  A    between atoms: C_17  and  C_18
REMARK   11  A    between atoms: N_20  and  C_21
REMARK                            x       y       z     vdW  Elec       q    Type
REMARK                         _______ _______ _______ _____ _____    ______ ____
ROOT
ATOM      1  C   UNL     1       1.571   7.963  20.169  0.00  0.00    +0.000 A 
ATOM      2  C   UNL     1       1.793   9.055  19.295  0.00  0.00    +0.000 A 
ATOM      3  C   UNL     1       2.439   8.900  18.094  0.00  0.00    +0.000 A 
ATOM      4  C   UNL     1       2.889   7.659  17.714  0.00  0.00    +0.000 A 
ATOM      5  C   UNL     1       2.713   6.520  18.533  0.00  0.00    +0.000 A 
ATOM      6  C   UNL     1       3.175   5.247  18.091  0.00  0.00    +0.000 A 
ATOM      7  C   UNL     1       2.926   4.105  18.930  0.00  0.00    +0.000 A 
ATOM      8  C   UNL     1       3.189   2.680  18.913  0.00  0.00    +0.000 A 
ATOM      9  C   UNL     1       3.831   1.617  18.036  0.00  0.00    +0.000 C 
ATOM     10  N   UNL     1       2.685   2.172  20.040  0.00  0.00    +0.000 NA
ATOM     11  N   UNL     1       2.130   3.109  20.773  0.00  0.00    +0.000 N 
ATOM     12  C   UNL     1       1.513   2.703  22.031  0.00  0.00    +0.000 C 
ATOM     13  C   UNL     1       2.264   4.301  20.134  0.00  0.00    +0.000 A 
ATOM     14  N   UNL     1       1.821   5.533  20.571  0.00  0.00    +0.000 NA
ATOM     15  C   UNL     1       2.030   6.652  19.786  0.00  0.00    +0.000 A 
ENDROOT
BRANCH   1  17
ATOM     16  C   UNL     1       0.950   9.406  22.024  0.00  0.00    +0.000 C 
ATOM     17  O   UNL     1       0.920   8.185  21.347  0.00  0.00    +0.000 OA
ENDBRANCH   1  17
BRANCH   6  18
ATOM     18  N   UNL     1       3.864   5.177  16.841  0.00  0.00    +0.000 N 
ATOM     19  H   UNL     1       3.403   5.433  15.956  0.00  0.00    +0.000 HD
BRANCH  18  20
ATOM     20  C   UNL     1       5.264   5.000  16.791  0.00  0.00    +0.000 C 
BRANCH  20  21
ATOM     21  C   UNL     1       5.739   3.885  15.888  0.00  0.00    +0.000 C 
BRANCH  21  22
ATOM     22  C   UNL     1       5.619   4.453  14.459  0.00  0.00    +0.000 C 
BRANCH  22  23
ATOM     23  N   UNL     1       6.586   3.890  13.505  0.00  0.00    +0.000 NA
ATOM     24  C   UNL     1       5.896   3.335  12.329  0.00  0.00    +0.000 C 
ATOM     25  C   UNL     1       7.483   4.978  13.074  0.00  0.00    +0.000 C 
ENDBRANCH  22  23
ENDBRANCH  21  22
ENDBRANCH  20  21
ENDBRANCH  18  20
ENDBRANCH   6  18
TORSDOF 6
ENDMDL
MODEL 3
REMARK VINA RESULT:      -6.5      0.974      1.083
REMARK  Name = 
REMARK  11 active torsions:
REMARK  status: ('A' for Active; 'I' for Inactive)
REMARK    1  A    between atoms: C_1  and  O_2
REMARK    2  A    between atoms: O_2  and  C_3
REMARK    3  A    between atoms: C_8  and  N_9
REMARK    4  A    between atoms: N_9  and  C_10
REMARK    5  A    between atoms: C_10  and  C_11
REMARK    6  A    between atoms: C_11  and  C_12
REMARK    7  A    between atoms: C_12  and  N_13
REMARK    8  A    between atoms: N_13  and  C_14
REMARK    9  A    between atoms: N_13  and  C_15
REMARK   10  A    between atoms: C_17  and  C_18
REMARK   11  A    between atoms: N_20  and  C_21
REMARK                            x       y       z     vdW  Elec       q    Type
REMARK                         _______ _______ _______ _____ _____    ______ ____
ROOT
ATOM      1  C   UNL     1       1.183   8.537  20.356  0.00  0.00    +0.000 A 
ATOM      2  C   UNL     1       1.160   9.714  19.568  0.00  0.00    +0.000 A 
ATOM      3  C   UNL     1       1.758   9.769  18.335  0.00  0.00    +0.000 A 
ATOM      4  C   UNL     1       2.400   8.662  17.835  0.00  0.00    +0.000 A 
ATOM      5  C   UNL     1       2.473   7.452  18.562  0.00  0.00    +0.000 A 
ATOM      6  C   UNL     1       3.129   6.320  17.998  0.00  0.00    +0.000 A 
ATOM      7  C   UNL     1       3.132   5.092  18.747  0.00  0.00    +0.000 A 
ATOM      8  C   UNL     1       3.641   3.744  18.601  0.00  0.00    +0.000 A 
ATOM      9  C   UNL     1       4.414   2.884  17.614  0.00  0.00    +0.000 C 
ATOM     10  N   UNL     1       3.297   3.069  19.701  0.00  0.00    +0.000 NA
ATOM     11  N   UNL     1       2.625   3.833  20.530  0.00  0.00    +0.000 N 
ATOM     12  C   UNL     1       2.158   3.229  21.773  0.00  0.00    +0.000 C 
ATOM     13  C   UNL     1       2.511   5.074  19.989  0.00  0.00    +0.000 A 
ATOM     14  N   UNL     1       1.881   6.169  20.545  0.00  0.00    +0.000 NA
ATOM     15  C   UNL     1       1.845   7.364  19.848  0.00  0.00    +0.000 A 
ENDROOT
BRANCH   1  17
ATOM     16  C   UNL     1       0.910   9.430  22.601  0.00  0.00    +0.000 C 
ATOM     17  O   UNL     1       0.567   8.549  21.574  0.00  0.00    +0.000 OA
ENDBRANCH   1  17
BRANCH   6  18
ATOM     18  N   UNL     1       3.752   6.470  16.720  0.00  0.00    +0.000 N 
ATOM     19  H   UNL     1       3.198   6.511  15.852  0.00  0.00    +0.000 HD
BRANCH  18  20
ATOM     20  C   UNL     1       5.115   6.820  16.612  0.00  0.00    +0.000 C 
BRANCH  20  21
ATOM     21  C   UNL     1       6.003   5.762  15.996  0.00  0.00    +0.000 C 
BRANCH  21  22
ATOM     22  C   UNL     1       7.068   5.462  17.070  0.00  0.00    +0.000 C 
BRANCH  22  23
ATOM     23  N   UNL     1       6.912   6.243  18.306  0.00  0.00    +0.000 NA
ATOM     24  C   UNL     1       6.835   5.355  19.478  0.00  0.00    +0.000 C 
ATOM     25  C   UNL     1       8.087   7.123  18.438  0.00  0.00    +0.000 C 
ENDBRANCH  22  23
ENDBRANCH  21  22
ENDBRANCH  20  21
ENDBRANCH  18  20
ENDBRANCH   6  18
TORSDOF 6
ENDMDL
MODEL 4
REMARK VINA RESULT:      -6.2      1.443      2.182
REMARK  Name = 
REMARK  11 active torsions:
REMARK  status: ('A' for Active; 'I' for Inactive)
REMARK    1  A    between atoms: C_1  and  O_2
REMARK    2  A    between atoms: O_2  and  C_3
REMARK    3  A    between atoms: C_8  and  N_9
REMARK    4  A    between atoms: N_9  and  C_10
REMARK    5  A    between atoms: C_10  and  C_11
REMARK    6  A    between atoms: C_11  and  C_12
REMARK    7  A    between atoms: C_12  and  N_13
REMARK    8  A    between atoms: N_13  and  C_14
REMARK    9  A    between atoms: N_13  and  C_15
REMARK   10  A    between atoms: C_17  and  C_18
REMARK   11  A    between atoms: N_20  and  C_21
REMARK                            x       y       z     vdW  Elec       q    Type
REMARK                         _______ _______ _______ _____ _____    ______ ____
ROOT
ATOM      1  C   UNL     1       1.075   8.517  20.439  0.00  0.00    +0.000 A 
ATOM      2  C   UNL     1       1.106   9.701  19.664  0.00  0.00    +0.000 A 
ATOM      3  C   UNL     1       1.801   9.774  18.483  0.00  0.00    +0.000 A 
ATOM      4  C   UNL     1       2.490   8.676  18.025  0.00  0.00    +0.000 A 
ATOM      5  C   UNL     1       2.513   7.459  18.744  0.00  0.00    +0.000 A 
ATOM      6  C   UNL     1       3.221   6.338  18.223  0.00  0.00    +0.000 A 
ATOM      7  C   UNL     1       3.172   5.102  18.957  0.00  0.00    +0.000 A 
ATOM      8  C   UNL     1       3.702   3.759  18.839  0.00  0.00    +0.000 A 
ATOM      9  C   UNL     1       4.558   2.915  17.909  0.00  0.00    +0.000 C 
ATOM     10  N   UNL     1       3.275   3.071  19.900  0.00  0.00    +0.000 NA
ATOM     11  N   UNL     1       2.533   3.821  20.681  0.00  0.00    +0.000 N 
ATOM     12  C   UNL     1       1.973   3.201  21.876  0.00  0.00    +0.000 C 
ATOM     13  C   UNL     1       2.454   5.066  20.145  0.00  0.00    +0.000 A 
ATOM     14  N   UNL     1       1.773   6.151  20.659  0.00  0.00    +0.000 NA
ATOM     15  C   UNL     1       1.784   7.353  19.974  0.00  0.00    +0.000 A 
ENDROOT
BRANCH   1  17
ATOM     16  C   UNL     1       0.404   9.549  22.536  0.00  0.00    +0.000 C 
ATOM     17  O   UNL     1       0.362   8.511  21.603  0.00  0.00    +0.000 OA
ENDBRANCH   1  17
BRANCH   6  18
ATOM     18  N   UNL     1       3.943   6.506  17.001  0.00  0.00    +0.000 N 
ATOM     19  H   UNL     1       3.461   6.536  16.089  0.00  0.00    +0.000 HD
BRANCH  18  20
ATOM     20  C   UNL     1       5.302   6.888  17.006  0.00  0.00    +0.000 C 
BRANCH  20  21
ATOM     21  C   UNL     1       6.254   5.880  16.404  0.00  0.00    +0.000 C 
BRANCH  21  22
ATOM     22  C   UNL     1       5.427   5.142  15.333  0.00  0.00    +0.000 C 
BRANCH  22  23
ATOM     23  N   UNL     1       6.216   4.244  14.477  0.00  0.00    +0.000 NA
ATOM     24  C   UNL     1       5.432   3.820  13.305  0.00  0.00    +0.000 C 
ATOM     25  C   UNL     1       7.410   4.980  14.024  0.00  0.00    +0.000 C 
ENDBRANCH  22  23
ENDBRANCH  21  22
ENDBRANCH  20  21
ENDBRANCH  18  20
ENDBRANCH   6  18
TORSDOF 6
ENDMDL
MODEL 5
REMARK VINA RESULT:      -6.1      2.484      6.920
REMARK  Name = 
REMARK  11 active torsions:
REMARK  status: ('A' for Active; 'I' for Inactive)
REMARK    1  A    between atoms: C_1  and  O_2
REMARK    2  A    between atoms: O_2  and  C_3
REMARK    3  A    between atoms: C_8  and  N_9
REMARK    4  A    between atoms: N_9  and  C_10
REMARK    5  A    between atoms: C_10  and  C_11
REMARK    6  A    between atoms: C_11  and  C_12
REMARK    7  A    between atoms: C_12  and  N_13
REMARK    8  A    between atoms: N_13  and  C_14
REMARK    9  A    between atoms: N_13  and  C_15
REMARK   10  A    between atoms: C_17  and  C_18
REMARK   11  A    between atoms: N_20  and  C_21
REMARK                            x       y       z     vdW  Elec       q    Type
REMARK                         _______ _______ _______ _____ _____    ______ ____
ROOT
ATOM      1  C   UNL     1       3.517   2.786  19.962  0.00  0.00    +0.000 A 
ATOM      2  C   UNL     1       2.777   2.276  21.057  0.00  0.00    +0.000 A 
ATOM      3  C   UNL     1       1.841   3.035  21.713  0.00  0.00    +0.000 A 
ATOM      4  C   UNL     1       1.602   4.327  21.309  0.00  0.00    +0.000 A 
ATOM      5  C   UNL     1       2.304   4.912  20.229  0.00  0.00    +0.000 A 
ATOM      6  C   UNL     1       2.009   6.247  19.828  0.00  0.00    +0.000 A 
ATOM      7  C   UNL     1       2.705   6.783  18.690  0.00  0.00    +0.000 A 
ATOM      8  C   UNL     1       2.748   8.023  17.941  0.00  0.00    +0.000 A 
ATOM      9  C   UNL     1       2.103   9.399  17.915  0.00  0.00    +0.000 C 
ATOM     10  N   UNL     1       3.648   7.866  16.967  0.00  0.00    +0.000 NA
ATOM     11  N   UNL     1       4.183   6.668  17.009  0.00  0.00    +0.000 N 
ATOM     12  C   UNL     1       5.173   6.337  15.990  0.00  0.00    +0.000 C 
ATOM     13  C   UNL     1       3.641   5.982  18.048  0.00  0.00    +0.000 A 
ATOM     14  N   UNL     1       3.936   4.691  18.437  0.00  0.00    +0.000 NA
ATOM     15  C   UNL     1       3.277   4.135  19.519  0.00  0.00    +0.000 A 
ENDROOT
BRANCH   1  17
ATOM     16  C   UNL     1       4.126   1.155  18.266  0.00  0.00    +0.000 C 
ATOM     17  O   UNL     1       4.431   1.977  19.352  0.00  0.00    +0.000 OA
ENDBRANCH   1  17
BRANCH   6  18
ATOM     18  N   UNL     1       1.041   6.979  20.583  0.00  0.00    +0.000 N 
ATOM     19  H   UNL     1       0.181   6.532  20.935  0.00  0.00    +0.000 HD
BRANCH  18  20
ATOM     20  C   UNL     1       1.335   8.263  21.091  0.00  0.00    +0.000 C 
BRANCH  20  21
ATOM     21  C   UNL     1       0.155   9.204  21.178  0.00  0.00    +0.000 C 
BRANCH  21  22
ATOM     22  C   UNL     1       0.091   9.623  22.661  0.00  0.00    +0.000 C 
BRANCH  22  23
ATOM     23  N   UNL     1      -0.184  11.052  22.871  0.00  0.00    +0.000 NA
ATOM     24  C   UNL     1       0.165  11.831  21.671  0.00  0.00    +0.000 C 
ATOM     25  C   UNL     1      -1.624  11.202  23.147  0.00  0.00    +0.000 C 
ENDBRANCH  22  23
ENDBRANCH  21  22
ENDBRANCH  20  21
ENDBRANCH  18  20
ENDBRANCH   6  18
TORSDOF 6
ENDMDL
MODEL 6
REMARK VINA RESULT:      -6.1      4.036      6.497
REMARK  Name = 
REMARK  11 active torsions:
REMARK  status: ('A' for Active; 'I' for Inactive)
REMARK    1  A    between atoms: C_1  and  O_2
REMARK    2  A    between atoms: O_2  and  C_3
REMARK    3  A    between atoms: C_8  and  N_9
REMARK    4  A    between atoms: N_9  and  C_10
REMARK    5  A    between atoms: C_10  and  C_11
REMARK    6  A    between atoms: C_11  and  C_12
REMARK    7  A    between atoms: C_12  and  N_13
REMARK    8  A    between atoms: N_13  and  C_14
REMARK    9  A    between atoms: N_13  and  C_15
REMARK   10  A    between atoms: C_17  and  C_18
REMARK   11  A    between atoms: N_20  and  C_21
REMARK                            x       y       z     vdW  Elec       q    Type
REMARK                         _______ _______ _______ _____ _____    ______ ____
ROOT
ATOM      1  C   UNL     1       5.918   3.698  12.785  0.00  0.00    +0.000 A 
ATOM      2  C   UNL     1       6.933   4.283  11.990  0.00  0.00    +0.000 A 
ATOM      3  C   UNL     1       7.839   5.171  12.512  0.00  0.00    +0.000 A 
ATOM      4  C   UNL     1       7.774   5.514  13.842  0.00  0.00    +0.000 A 
ATOM      5  C   UNL     1       6.786   4.979  14.701  0.00  0.00    +0.000 A 
ATOM      6  C   UNL     1       6.768   5.342  16.078  0.00  0.00    +0.000 A 
ATOM      7  C   UNL     1       5.782   4.732  16.929  0.00  0.00    +0.000 A 
ATOM      8  C   UNL     1       5.386   4.779  18.321  0.00  0.00    +0.000 A 
ATOM      9  C   UNL     1       5.774   5.451  19.628  0.00  0.00    +0.000 C 
ATOM     10  N   UNL     1       4.351   3.947  18.467  0.00  0.00    +0.000 NA
ATOM     11  N   UNL     1       4.044   3.375  17.326  0.00  0.00    +0.000 N 
ATOM     12  C   UNL     1       2.942   2.418  17.328  0.00  0.00    +0.000 C 
ATOM     13  C   UNL     1       4.887   3.833  16.365  0.00  0.00    +0.000 A 
ATOM     14  N   UNL     1       4.894   3.483  15.030  0.00  0.00    +0.000 NA
ATOM     15  C   UNL     1       5.837   4.038  14.183  0.00  0.00    +0.000 A 
ENDROOT
BRANCH   1  17
ATOM     16  C   UNL     1       4.119   3.189  11.232  0.00  0.00    +0.000 C 
ATOM     17  O   UNL     1       5.051   2.820  12.204  0.00  0.00    +0.000 OA
ENDBRANCH   1  17
BRANCH   6  18
ATOM     18  N   UNL     1       7.729   6.296  16.535  0.00  0.00    +0.000 N 
ATOM     19  H   UNL     1       8.732   6.198  16.319  0.00  0.00    +0.000 HD
BRANCH  18  20
ATOM     20  C   UNL     1       7.322   7.534  17.081  0.00  0.00    +0.000 C 
BRANCH  20  21
ATOM     21  C   UNL     1       8.295   8.157  18.055  0.00  0.00    +0.000 C 
BRANCH  21  22
ATOM     22  C   UNL     1       8.061   9.676  17.934  0.00  0.00    +0.000 C 
BRANCH  22  23
ATOM     23  N   UNL     1       9.223  10.495  18.310  0.00  0.00    +0.000 NA
ATOM     24  C   UNL     1       9.017  11.901  17.921  0.00  0.00    +0.000 C 
ATOM     25  C   UNL     1       9.382  10.413  19.773  0.00  0.00    +0.000 C 
ENDBRANCH  22  23
ENDBRANCH  21  22
ENDBRANCH  20  21
ENDBRANCH  18  20
ENDBRANCH   6  18
TORSDOF 6
ENDMDL
MODEL 7
REMARK VINA RESULT:      -6.0      0.839      1.169
REMARK  Name = 
REMARK  11 active torsions:
REMARK  status: ('A' for Active; 'I' for Inactive)
REMARK    1  A    between atoms: C_1  and  O_2
REMARK    2  A    between atoms: O_2  and  C_3
REMARK    3  A    between atoms: C_8  and  N_9
REMARK    4  A    between atoms: N_9  and  C_10
REMARK    5  A    between atoms: C_10  and  C_11
REMARK    6  A    between atoms: C_11  and  C_12
REMARK    7  A    between atoms: C_12  and  N_13
REMARK    8  A    between atoms: N_13  and  C_14
REMARK    9  A    between atoms: N_13  and  C_15
REMARK   10  A    between atoms: C_17  and  C_18
REMARK   11  A    between atoms: N_20  and  C_21
REMARK                            x       y       z     vdW  Elec       q    Type
REMARK                         _______ _______ _______ _____ _____    ______ ____
ROOT
ATOM      1  C   UNL     1       1.565   7.830  20.178  0.00  0.00    +0.000 A 
ATOM      2  C   UNL     1       1.852   8.876  19.268  0.00  0.00    +0.000 A 
ATOM      3  C   UNL     1       2.512   8.646  18.087  0.00  0.00    +0.000 A 
ATOM      4  C   UNL     1       2.911   7.372  17.763  0.00  0.00    +0.000 A 
ATOM      5  C   UNL     1       2.669   6.274  18.621  0.00  0.00    +0.000 A 
ATOM      6  C   UNL     1       3.080   4.966  18.237  0.00  0.00    +0.000 A 
ATOM      7  C   UNL     1       2.763   3.869  19.113  0.00  0.00    +0.000 A 
ATOM      8  C   UNL     1       2.961   2.435  19.155  0.00  0.00    +0.000 A 
ATOM      9  C   UNL     1       3.569   1.311  18.332  0.00  0.00    +0.000 C 
ATOM     10  N   UNL     1       2.414   1.994  20.290  0.00  0.00    +0.000 NA
ATOM     11  N   UNL     1       1.890   2.983  20.976  0.00  0.00    +0.000 N 
ATOM     12  C   UNL     1       1.232   2.654  22.236  0.00  0.00    +0.000 C 
ATOM     13  C   UNL     1       2.089   4.141  20.296  0.00  0.00    +0.000 A 
ATOM     14  N   UNL     1       1.696   5.408  20.677  0.00  0.00    +0.000 NA
ATOM     15  C   UNL     1       1.969   6.486  19.854  0.00  0.00    +0.000 A 
ENDROOT
BRANCH   1  17
ATOM     16  C   UNL     1       1.247   9.195  22.165  0.00  0.00    +0.000 C 
ATOM     17  O   UNL     1       0.903   8.127  21.334  0.00  0.00    +0.000 OA
ENDBRANCH   1  17
BRANCH   6  18
ATOM     18  N   UNL     1       3.787   4.817  17.004  0.00  0.00    +0.000 N 
ATOM     19  H   UNL     1       3.525   5.353  16.163  0.00  0.00    +0.000 HD
BRANCH  18  20
ATOM     20  C   UNL     1       5.018   4.127  16.951  0.00  0.00    +0.000 C 
BRANCH  20  21
ATOM     21  C   UNL     1       6.078   4.630  17.904  0.00  0.00    +0.000 C 
BRANCH  21  22
ATOM     22  C   UNL     1       7.396   4.552  17.108  0.00  0.00    +0.000 C 
BRANCH  22  23
ATOM     23  N   UNL     1       7.597   5.664  16.167  0.00  0.00    +0.000 NA
ATOM     24  C   UNL     1       6.943   5.381  14.879  0.00  0.00    +0.000 C 
ATOM     25  C   UNL     1       7.001   6.874  16.761  0.00  0.00    +0.000 C 
ENDBRANCH  22  23
ENDBRANCH  21  22
ENDBRANCH  20  21
ENDBRANCH  18  20
ENDBRANCH   6  18
TORSDOF 6
ENDMDL
MODEL 8
REMARK VINA RESULT:      -5.9      2.417      6.615
REMARK  Name = 
REMARK  11 active torsions:
REMARK  status: ('A' for Active; 'I' for Inactive)
REMARK    1  A    between atoms: C_1  and  O_2
REMARK    2  A    between atoms: O_2  and  C_3
REMARK    3  A    between atoms: C_8  and  N_9
REMARK    4  A    between atoms: N_9  and  C_10
REMARK    5  A    between atoms: C_10  and  C_11
REMARK    6  A    between atoms: C_11  and  C_12
REMARK    7  A    between atoms: C_12  and  N_13
REMARK    8  A    between atoms: N_13  and  C_14
REMARK    9  A    between atoms: N_13  and  C_15
REMARK   10  A    between atoms: C_17  and  C_18
REMARK   11  A    between atoms: N_20  and  C_21
REMARK                            x       y       z     vdW  Elec       q    Type
REMARK                         _______ _______ _______ _____ _____    ______ ____
ROOT
ATOM      1  C   UNL     1       3.463   2.906  20.000  0.00  0.00    +0.000 A 
ATOM      2  C   UNL     1       2.720   2.443  21.113  0.00  0.00    +0.000 A 
ATOM      3  C   UNL     1       1.814   3.244  21.761  0.00  0.00    +0.000 A 
ATOM      4  C   UNL     1       1.609   4.533  21.330  0.00  0.00    +0.000 A 
ATOM      5  C   UNL     1       2.316   5.072  20.231  0.00  0.00    +0.000 A 
ATOM      6  C   UNL     1       2.056   6.406  19.802  0.00  0.00    +0.000 A 
ATOM      7  C   UNL     1       2.756   6.896  18.645  0.00  0.00    +0.000 A 
ATOM      8  C   UNL     1       2.827   8.117  17.869  0.00  0.00    +0.000 A 
ATOM      9  C   UNL     1       2.222   9.510  17.817  0.00  0.00    +0.000 C 
ATOM     10  N   UNL     1       3.712   7.912  16.890  0.00  0.00    +0.000 NA
ATOM     11  N   UNL     1       4.212   6.700  16.953  0.00  0.00    +0.000 N 
ATOM     12  C   UNL     1       5.181   6.317  15.932  0.00  0.00    +0.000 C 
ATOM     13  C   UNL     1       3.661   6.053  18.013  0.00  0.00    +0.000 A 
ATOM     14  N   UNL     1       3.922   4.763  18.428  0.00  0.00    +0.000 NA
ATOM     15  C   UNL     1       3.258   4.251  19.529  0.00  0.00    +0.000 A 
ENDROOT
BRANCH   1  17
ATOM     16  C   UNL     1       4.003   1.209  18.345  0.00  0.00    +0.000 C 
ATOM     17  O   UNL     1       4.347   2.057  19.400  0.00  0.00    +0.000 OA
ENDBRANCH   1  17
BRANCH   6  18
ATOM     18  N   UNL     1       1.118   7.183  20.550  0.00  0.00    +0.000 N 
ATOM     19  H   UNL     1       0.165   6.840  20.742  0.00  0.00    +0.000 HD
BRANCH  18  20
ATOM     20  C   UNL     1       1.530   8.328  21.266  0.00  0.00    +0.000 C 
BRANCH  20  21
ATOM     21  C   UNL     1       0.577   8.788  22.345  0.00  0.00    +0.000 C 
BRANCH  21  22
ATOM     22  C   UNL     1       0.211  10.236  21.963  0.00  0.00    +0.000 C 
BRANCH  22  23
ATOM     23  N   UNL     1       0.482  10.573  20.558  0.00  0.00    +0.000 NA
ATOM     24  C   UNL     1      -0.767  10.603  19.779  0.00  0.00    +0.000 C 
ATOM     25  C   UNL     1       1.110  11.907  20.523  0.00  0.00    +0.000 C 
ENDBRANCH  22  23
ENDBRANCH  21  22
ENDBRANCH  20  21
ENDBRANCH  18  20
ENDBRANCH   6  18
TORSDOF 6
ENDMDL
MODEL 9
REMARK VINA RESULT:      -5.9      1.784      4.408
REMARK  Name = 
REMARK  11 active torsions:
REMARK  status: ('A' for Active; 'I' for Inactive)
REMARK    1  A    between atoms: C_1  and  O_2
REMARK    2  A    between atoms: O_2  and  C_3
REMARK    3  A    between atoms: C_8  and  N_9
REMARK    4  A    between atoms: N_9  and  C_10
REMARK    5  A    between atoms: C_10  and  C_11
REMARK    6  A    between atoms: C_11  and  C_12
REMARK    7  A    between atoms: C_12  and  N_13
REMARK    8  A    between atoms: N_13  and  C_14
REMARK    9  A    between atoms: N_13  and  C_15
REMARK   10  A    between atoms: C_17  and  C_18
REMARK   11  A    between atoms: N_20  and  C_21
REMARK                            x       y       z     vdW  Elec       q    Type
REMARK                         _______ _______ _______ _____ _____    ______ ____
ROOT
ATOM      1  C   UNL     1       2.995   3.359  20.824  0.00  0.00    +0.000 A 
ATOM      2  C   UNL     1       3.769   2.390  20.141  0.00  0.00    +0.000 A 
ATOM      3  C   UNL     1       4.316   2.640  18.908  0.00  0.00    +0.000 A 
ATOM      4  C   UNL     1       4.119   3.860  18.306  0.00  0.00    +0.000 A 
ATOM      5  C   UNL     1       3.353   4.878  18.919  0.00  0.00    +0.000 A 
ATOM      6  C   UNL     1       3.192   6.136  18.271  0.00  0.00    +0.000 A 
ATOM      7  C   UNL     1       2.452   7.164  18.955  0.00  0.00    +0.000 A 
ATOM      8  C   UNL     1       2.040   8.532  18.717  0.00  0.00    +0.000 A 
ATOM      9  C   UNL     1       2.160   9.626  17.669  0.00  0.00    +0.000 C 
ATOM     10  N   UNL     1       1.341   8.926  19.784  0.00  0.00    +0.000 NA
ATOM     11  N   UNL     1       1.262   7.965  20.675  0.00  0.00    +0.000 N 
ATOM     12  C   UNL     1       0.544   8.253  21.913  0.00  0.00    +0.000 C 
ATOM     13  C   UNL     1       1.919   6.874  20.204  0.00  0.00    +0.000 A 
ATOM     14  N   UNL     1       2.065   5.655  20.833  0.00  0.00    +0.000 NA
ATOM     15  C   UNL     1       2.781   4.647  20.213  0.00  0.00    +0.000 A 
ENDROOT
BRANCH   1  17
ATOM     16  C   UNL     1       1.239   2.435  22.228  0.00  0.00    +0.000 C 
ATOM     17  O   UNL     1       2.481   3.047  22.049  0.00  0.00    +0.000 OA
ENDBRANCH   1  17
BRANCH   6  18
ATOM     18  N   UNL     1       3.770   6.305  16.975  0.00  0.00    +0.000 N 
ATOM     19  H   UNL     1       3.338   5.895  16.134  0.00  0.00    +0.000 HD
BRANCH  18  20
ATOM     20  C   UNL     1       4.805   7.241  16.757  0.00  0.00    +0.000 C 
BRANCH  20  21
ATOM     21  C   UNL     1       6.155   6.642  16.437  0.00  0.00    +0.000 C 
BRANCH  21  22
ATOM     22  C   UNL     1       6.962   6.758  17.747  0.00  0.00    +0.000 C 
BRANCH  22  23
ATOM     23  N   UNL     1       7.118   5.488  18.471  0.00  0.00    +0.000 NA
ATOM     24  C   UNL     1       7.688   4.454  17.591  0.00  0.00    +0.000 C 
ATOM     25  C   UNL     1       8.032   5.721  19.604  0.00  0.00    +0.000 C 
ENDBRANCH  22  23
ENDBRANCH  21  22
ENDBRANCH  20  21
ENDBRANCH  18  20
ENDBRANCH   6  18
TORSDOF 6
ENDMDL
