MODEL 1
REMARK VINA RESULT:      -7.6      0.000      0.000
REMARK  Name = 
REMARK  7 active torsions:
REMARK  status: ('A' for Active; 'I' for Inactive)
REMARK    1  A    between atoms: C_1  and  C_2
REMARK    2  A    between atoms: C_5  and  C_6
REMARK    3  A    between atoms: C_6  and  C_7
REMARK    4  A    between atoms: C_6  and  N_8
REMARK    5  A    between atoms: C_14  and  C_15
REMARK    6  A    between atoms: C_15  and  C_16
REMARK    7  A    between atoms: C_16  and  C_17
REMARK                            x       y       z     vdW  Elec       q    Type
REMARK                         _______ _______ _______ _____ _____    ______ ____
ROOT
ATOM      1  N   UNL     1       1.038   9.589  20.047  0.00  0.00    +0.000 N 
ATOM      2  C   UNL     1       1.462   8.865  18.970  0.00  0.00    +0.000 C 
ATOM      3  O   UNL     1       1.252   9.229  17.818  0.00  0.00    +0.000 OA
ATOM      4  N   UNL     1       2.141   7.703  19.291  0.00  0.00    +0.000 N 
ATOM      5  C   UNL     1       2.806   6.948  18.228  0.00  0.00    +0.000 C 
ATOM      6  C   UNL     1       2.180   5.563  18.046  0.00  0.00    +0.000 C 
ATOM      7  C   UNL     1       2.080   4.783  19.375  0.00  0.00    +0.000 C 
ATOM      8  C   UNL     1       1.341   5.667  20.395  0.00  0.00    +0.000 C 
ATOM      9  C   UNL     1       2.034   7.016  20.579  0.00  0.00    +0.000 C 
ATOM     10  H   UNL     1       1.618   9.542  20.874  0.00  0.00    +0.000 HD
ENDROOT
BRANCH   1  11
ATOM     11  C   UNL     1       0.283  10.822  19.890  0.00  0.00    +0.000 C 
ATOM     12  C   UNL     1      -0.819  10.908  20.940  0.00  0.00    +0.000 C 
BRANCH  11  17
ATOM     13  C   UNL     1       3.400  14.137  18.244  0.00  0.00    +0.000 C 
ATOM     14  C   UNL     1       2.615  13.451  19.282  0.00  0.00    +0.000 A 
ATOM     15  C   UNL     1       2.479  13.574  20.644  0.00  0.00    +0.000 A 
ATOM     16  N   UNL     1       1.605  12.626  21.116  0.00  0.00    +0.000 NA
ATOM     17  C   UNL     1       1.224  11.981  20.026  0.00  0.00    +0.000 A 
ATOM     18  O   UNL     1       1.807  12.431  18.870  0.00  0.00    +0.000 OA
ENDBRANCH  11  17
ENDBRANCH   1  11
BRANCH   7  19
ATOM     19  C   UNL     1       3.472   4.313  19.860  0.00  0.00    +0.000 C 
BRANCH  19  20
ATOM     20  C   UNL     1       4.327   3.699  18.746  0.00  0.00    +0.000 C 
BRANCH  20  21
ATOM     21  C   UNL     1       5.374   4.656  18.234  0.00  0.00    +0.000 A 
ATOM     22  C   UNL     1       6.265   5.284  19.113  0.00  0.00    +0.000 A 
ATOM     23  C   UNL     1       7.212   6.185  18.622  0.00  0.00    +0.000 A 
ATOM     24  C   UNL     1       7.271   6.452  17.257  0.00  0.00    +0.000 A 
ATOM     25  F   UNL     1       8.175   7.325  16.796  0.00  0.00    +0.000 F 
ATOM     26  C   UNL     1       6.407   5.829  16.367  0.00  0.00    +0.000 A 
ATOM     27  C   UNL     1       5.468   4.933  16.863  0.00  0.00    +0.000 A 
ATOM     28  F   UNL     1       4.633   4.331  16.004  0.00  0.00    +0.000 F 
ENDBRANCH  20  21
ENDBRANCH  19  20
ENDBRANCH   7  19
TORSDOF 5
ENDMDL
MODEL 2
REMARK VINA RESULT:      -7.5      4.291      8.948
REMARK  Name = 
REMARK  7 active torsions:
REMARK  status: ('A' for Active; 'I' for Inactive)
REMARK    1  A    between atoms: C_1  and  C_2
REMARK    2  A    between atoms: C_5  and  C_6
REMARK    3  A    between atoms: C_6  and  C_7
REMARK    4  A    between atoms: C_6  and  N_8
REMARK    5  A    between atoms: C_14  and  C_15
REMARK    6  A    between atoms: C_15  and  C_16
REMARK    7  A    between atoms: C_16  and  C_17
REMARK                            x       y       z     vdW  Elec       q    Type
REMARK                         _______ _______ _______ _____ _____    ______ ____
ROOT
ATOM      1  N   UNL     1       2.761   6.519  18.854  0.00  0.00    +0.000 N 
ATOM      2  C   UNL     1       1.992   7.036  19.857  0.00  0.00    +0.000 C 
ATOM      3  O   UNL     1       1.578   6.345  20.781  0.00  0.00    +0.000 OA
ATOM      4  N   UNL     1       1.730   8.390  19.741  0.00  0.00    +0.000 N 
ATOM      5  C   UNL     1       1.082   9.089  20.851  0.00  0.00    +0.000 C 
ATOM      6  C   UNL     1      -0.297   9.620  20.452  0.00  0.00    +0.000 C 
ATOM      7  C   UNL     1      -0.255  10.450  19.151  0.00  0.00    +0.000 C 
ATOM      8  C   UNL     1       0.420   9.599  18.060  0.00  0.00    +0.000 C 
ATOM      9  C   UNL     1       1.814   9.139  18.486  0.00  0.00    +0.000 C 
ATOM     10  H   UNL     1       3.444   7.144  18.446  0.00  0.00    +0.000 HD
ENDROOT
BRANCH   1  11
ATOM     11  C   UNL     1       3.107   5.108  18.806  0.00  0.00    +0.000 C 
ATOM     12  C   UNL     1       2.203   4.373  17.822  0.00  0.00    +0.000 C 
BRANCH  11  17
ATOM     13  C   UNL     1       7.876   5.735  19.322  0.00  0.00    +0.000 C 
ATOM     14  C   UNL     1       6.665   5.268  18.630  0.00  0.00    +0.000 A 
ATOM     15  C   UNL     1       6.404   4.627  17.443  0.00  0.00    +0.000 A 
ATOM     16  N   UNL     1       5.050   4.459  17.288  0.00  0.00    +0.000 NA
ATOM     17  C   UNL     1       4.542   4.979  18.392  0.00  0.00    +0.000 A 
ATOM     18  O   UNL     1       5.473   5.495  19.255  0.00  0.00    +0.000 OA
ENDBRANCH  11  17
ENDBRANCH   1  11
BRANCH   7  19
ATOM     19  C   UNL     1       0.430  11.819  19.376  0.00  0.00    +0.000 C 
BRANCH  19  20
ATOM     20  C   UNL     1      -0.564  12.975  19.541  0.00  0.00    +0.000 C 
BRANCH  20  21
ATOM     21  C   UNL     1      -1.344  12.880  20.827  0.00  0.00    +0.000 A 
ATOM     22  C   UNL     1      -0.699  12.973  22.067  0.00  0.00    +0.000 A 
ATOM     23  C   UNL     1      -1.436  12.860  23.247  0.00  0.00    +0.000 A 
ATOM     24  C   UNL     1      -2.812  12.660  23.188  0.00  0.00    +0.000 A 
ATOM     25  F   UNL     1      -3.510  12.542  24.325  0.00  0.00    +0.000 F 
ATOM     26  C   UNL     1      -3.473  12.579  21.970  0.00  0.00    +0.000 A 
ATOM     27  C   UNL     1      -2.733  12.694  20.800  0.00  0.00    +0.000 A 
ATOM     28  F   UNL     1      -3.371  12.617  19.623  0.00  0.00    +0.000 F 
ENDBRANCH  20  21
ENDBRANCH  19  20
ENDBRANCH   7  19
TORSDOF 5
ENDMDL
MODEL 3
REMARK VINA RESULT:      -7.4      1.442      1.625
REMARK  Name = 
REMARK  7 active torsions:
REMARK  status: ('A' for Active; 'I' for Inactive)
REMARK    1  A    between atoms: C_1  and  C_2
REMARK    2  A    between atoms: C_5  and  C_6
REMARK    3  A    between atoms: C_6  and  C_7
REMARK    4  A    between atoms: C_6  and  N_8
REMARK    5  A    between atoms: C_14  and  C_15
REMARK    6  A    between atoms: C_15  and  C_16
REMARK    7  A    between atoms: C_16  and  C_17
REMARK                            x       y       z     vdW  Elec       q    Type
REMARK                         _______ _______ _______ _____ _____    ______ ____
ROOT
ATOM      1  N   UNL     1       0.559   9.923  20.514  0.00  0.00    +0.000 N 
ATOM      2  C   UNL     1       1.023   9.376  19.352  0.00  0.00    +0.000 C 
ATOM      3  O   UNL     1       0.673   9.790  18.252  0.00  0.00    +0.000 OA
ATOM      4  N   UNL     1       1.914   8.331  19.525  0.00  0.00    +0.000 N 
ATOM      5  C   UNL     1       2.621   7.796  18.361  0.00  0.00    +0.000 C 
ATOM      6  C   UNL     1       2.232   6.341  18.086  0.00  0.00    +0.000 C 
ATOM      7  C   UNL     1       2.361   5.450  19.340  0.00  0.00    +0.000 C 
ATOM      8  C   UNL     1       1.555   6.102  20.477  0.00  0.00    +0.000 C 
ATOM      9  C   UNL     1       2.017   7.533  20.748  0.00  0.00    +0.000 C 
ATOM     10  H   UNL     1       1.195   9.912  21.300  0.00  0.00    +0.000 HD
ENDROOT
BRANCH   1  11
ATOM     11  C   UNL     1      -0.406  11.011  20.514  0.00  0.00    +0.000 C 
ATOM     12  C   UNL     1      -1.114  11.093  21.863  0.00  0.00    +0.000 C 
BRANCH  11  17
ATOM     13  C   UNL     1       2.731  14.568  21.469  0.00  0.00    +0.000 C 
ATOM     14  C   UNL     1       1.715  13.874  20.664  0.00  0.00    +0.000 A 
ATOM     15  C   UNL     1       1.075  14.122  19.472  0.00  0.00    +0.000 A 
ATOM     16  N   UNL     1       0.175  13.121  19.205  0.00  0.00    +0.000 NA
ATOM     17  C   UNL     1       0.317  12.292  20.226  0.00  0.00    +0.000 A 
ATOM     18  O   UNL     1       1.239  12.694  21.157  0.00  0.00    +0.000 OA
ENDBRANCH  11  17
ENDBRANCH   1  11
BRANCH   7  19
ATOM     19  C   UNL     1       3.844   5.196  19.702  0.00  0.00    +0.000 C 
BRANCH  19  20
ATOM     20  C   UNL     1       4.405   3.906  19.091  0.00  0.00    +0.000 C 
BRANCH  20  21
ATOM     21  C   UNL     1       5.237   4.168  17.862  0.00  0.00    +0.000 A 
ATOM     22  C   UNL     1       6.571   4.579  17.972  0.00  0.00    +0.000 A 
ATOM     23  C   UNL     1       7.319   4.839  16.822  0.00  0.00    +0.000 A 
ATOM     24  C   UNL     1       6.735   4.685  15.568  0.00  0.00    +0.000 A 
ATOM     25  F   UNL     1       7.456   4.947  14.470  0.00  0.00    +0.000 F 
ATOM     26  C   UNL     1       5.419   4.265  15.436  0.00  0.00    +0.000 A 
ATOM     27  C   UNL     1       4.682   4.006  16.585  0.00  0.00    +0.000 A 
ATOM     28  F   UNL     1       3.410   3.600  16.459  0.00  0.00    +0.000 F 
ENDBRANCH  20  21
ENDBRANCH  19  20
ENDBRANCH   7  19
TORSDOF 5
ENDMDL
MODEL 4
REMARK VINA RESULT:      -7.4      1.156      1.546
REMARK  Name = 
REMARK  7 active torsions:
REMARK  status: ('A' for Active; 'I' for Inactive)
REMARK    1  A    between atoms: C_1  and  C_2
REMARK    2  A    between atoms: C_5  and  C_6
REMARK    3  A    between atoms: C_6  and  C_7
REMARK    4  A    between atoms: C_6  and  N_8
REMARK    5  A    between atoms: C_14  and  C_15
REMARK    6  A    between atoms: C_15  and  C_16
REMARK    7  A    between atoms: C_16  and  C_17
REMARK                            x       y       z     vdW  Elec       q    Type
REMARK                         _______ _______ _______ _____ _____    ______ ____
ROOT
ATOM      1  N   UNL     1       1.204   9.813  19.621  0.00  0.00    +0.000 N 
ATOM      2  C   UNL     1       1.617   8.995  18.608  0.00  0.00    +0.000 C 
ATOM      3  O   UNL     1       1.410   9.263  17.430  0.00  0.00    +0.000 OA
ATOM      4  N   UNL     1       2.283   7.856  19.026  0.00  0.00    +0.000 N 
ATOM      5  C   UNL     1       2.936   7.006  18.030  0.00  0.00    +0.000 C 
ATOM      6  C   UNL     1       2.293   5.618  17.967  0.00  0.00    +0.000 C 
ATOM      7  C   UNL     1       2.186   4.955  19.357  0.00  0.00    +0.000 C 
ATOM      8  C   UNL     1       1.459   5.931  20.299  0.00  0.00    +0.000 C 
ATOM      9  C   UNL     1       2.169   7.282  20.368  0.00  0.00    +0.000 C 
ATOM     10  H   UNL     1       1.785   9.829  20.448  0.00  0.00    +0.000 HD
ENDROOT
BRANCH   1  11
ATOM     11  C   UNL     1       0.464  11.037  19.360  0.00  0.00    +0.000 C 
ATOM     12  C   UNL     1      -0.822  11.065  20.179  0.00  0.00    +0.000 C 
BRANCH  11  17
ATOM     13  C   UNL     1       3.404  14.752  18.378  0.00  0.00    +0.000 C 
ATOM     14  C   UNL     1       2.645  13.857  19.265  0.00  0.00    +0.000 A 
ATOM     15  C   UNL     1       2.480  13.739  20.624  0.00  0.00    +0.000 A 
ATOM     16  N   UNL     1       1.657  12.677  20.907  0.00  0.00    +0.000 NA
ATOM     17  C   UNL     1       1.333  12.207  19.714  0.00  0.00    +0.000 A 
ATOM     18  O   UNL     1       1.905  12.879  18.666  0.00  0.00    +0.000 OA
ENDBRANCH  11  17
ENDBRANCH   1  11
BRANCH   7  19
ATOM     19  C   UNL     1       3.573   4.510  19.879  0.00  0.00    +0.000 C 
BRANCH  19  20
ATOM     20  C   UNL     1       4.197   3.378  19.055  0.00  0.00    +0.000 C 
BRANCH  20  21
ATOM     21  C   UNL     1       5.072   3.896  17.942  0.00  0.00    +0.000 A 
ATOM     22  C   UNL     1       4.791   3.589  16.605  0.00  0.00    +0.000 A 
ATOM     23  C   UNL     1       5.627   4.059  15.590  0.00  0.00    +0.000 A 
ATOM     24  C   UNL     1       6.736   4.836  15.911  0.00  0.00    +0.000 A 
ATOM     25  F   UNL     1       7.539   5.274  14.933  0.00  0.00    +0.000 F 
ATOM     26  C   UNL     1       7.025   5.163  17.228  0.00  0.00    +0.000 A 
ATOM     27  C   UNL     1       6.187   4.693  18.232  0.00  0.00    +0.000 A 
ATOM     28  F   UNL     1       6.466   5.009  19.506  0.00  0.00    +0.000 F 
ENDBRANCH  20  21
ENDBRANCH  19  20
ENDBRANCH   7  19
TORSDOF 5
ENDMDL
MODEL 5
REMARK VINA RESULT:      -7.4      1.335      1.530
REMARK  Name = 
REMARK  7 active torsions:
REMARK  status: ('A' for Active; 'I' for Inactive)
REMARK    1  A    between atoms: C_1  and  C_2
REMARK    2  A    between atoms: C_5  and  C_6
REMARK    3  A    between atoms: C_6  and  C_7
REMARK    4  A    between atoms: C_6  and  N_8
REMARK    5  A    between atoms: C_14  and  C_15
REMARK    6  A    between atoms: C_15  and  C_16
REMARK    7  A    between atoms: C_16  and  C_17
REMARK                            x       y       z     vdW  Elec       q    Type
REMARK                         _______ _______ _______ _____ _____    ______ ____
ROOT
ATOM      1  N   UNL     1       0.683   8.830  21.179  0.00  0.00    +0.000 N 
ATOM      2  C   UNL     1       1.121   8.570  19.912  0.00  0.00    +0.000 C 
ATOM      3  O   UNL     1       0.783   9.256  18.954  0.00  0.00    +0.000 OA
ATOM      4  N   UNL     1       1.971   7.482  19.811  0.00  0.00    +0.000 N 
ATOM      5  C   UNL     1       2.652   7.226  18.541  0.00  0.00    +0.000 C 
ATOM      6  C   UNL     1       2.205   5.900  17.921  0.00  0.00    +0.000 C 
ATOM      7  C   UNL     1       2.305   4.722  18.914  0.00  0.00    +0.000 C 
ATOM      8  C   UNL     1       1.529   5.102  20.188  0.00  0.00    +0.000 C 
ATOM      9  C   UNL     1       2.048   6.404  20.797  0.00  0.00    +0.000 C 
ATOM     10  H   UNL     1       1.321   8.602  21.930  0.00  0.00    +0.000 HD
ENDROOT
BRANCH   1  11
ATOM     11  C   UNL     1      -0.239   9.919  21.461  0.00  0.00    +0.000 C 
ATOM     12  C   UNL     1      -0.536   9.990  22.955  0.00  0.00    +0.000 C 
BRANCH  11  17
ATOM     13  C   UNL     1      -0.045  13.957  18.803  0.00  0.00    +0.000 C 
ATOM     14  C   UNL     1       0.456  12.996  19.798  0.00  0.00    +0.000 A 
ATOM     15  C   UNL     1       1.582  12.897  20.580  0.00  0.00    +0.000 A 
ATOM     16  N   UNL     1       1.536  11.746  21.326  0.00  0.00    +0.000 NA
ATOM     17  C   UNL     1       0.377  11.202  20.991  0.00  0.00    +0.000 A 
ATOM     18  O   UNL     1      -0.333  11.912  20.058  0.00  0.00    +0.000 OA
ENDBRANCH  11  17
ENDBRANCH   1  11
BRANCH   7  19
ATOM     19  C   UNL     1       3.778   4.332  19.183  0.00  0.00    +0.000 C 
BRANCH  19  20
ATOM     20  C   UNL     1       4.656   4.378  17.926  0.00  0.00    +0.000 C 
BRANCH  20  21
ATOM     21  C   UNL     1       5.799   5.351  18.061  0.00  0.00    +0.000 A 
ATOM     22  C   UNL     1       6.753   5.204  19.076  0.00  0.00    +0.000 A 
ATOM     23  C   UNL     1       7.791   6.128  19.199  0.00  0.00    +0.000 A 
ATOM     24  C   UNL     1       7.878   7.194  18.307  0.00  0.00    +0.000 A 
ATOM     25  F   UNL     1       8.871   8.083  18.438  0.00  0.00    +0.000 F 
ATOM     26  C   UNL     1       6.952   7.351  17.285  0.00  0.00    +0.000 A 
ATOM     27  C   UNL     1       5.922   6.425  17.169  0.00  0.00    +0.000 A 
ATOM     28  F   UNL     1       5.027   6.576  16.182  0.00  0.00    +0.000 F 
ENDBRANCH  20  21
ENDBRANCH  19  20
ENDBRANCH   7  19
TORSDOF 5
ENDMDL
MODEL 6
REMARK VINA RESULT:      -7.4      3.168      7.933
REMARK  Name = 
REMARK  7 active torsions:
REMARK  status: ('A' for Active; 'I' for Inactive)
REMARK    1  A    between atoms: C_1  and  C_2
REMARK    2  A    between atoms: C_5  and  C_6
REMARK    3  A    between atoms: C_6  and  C_7
REMARK    4  A    between atoms: C_6  and  N_8
REMARK    5  A    between atoms: C_14  and  C_15
REMARK    6  A    between atoms: C_15  and  C_16
REMARK    7  A    between atoms: C_16  and  C_17
REMARK                            x       y       z     vdW  Elec       q    Type
REMARK                         _______ _______ _______ _____ _____    ______ ____
ROOT
ATOM      1  N   UNL     1       2.698   6.497  18.872  0.00  0.00    +0.000 N 
ATOM      2  C   UNL     1       1.981   6.964  19.936  0.00  0.00    +0.000 C 
ATOM      3  O   UNL     1       1.608   6.228  20.843  0.00  0.00    +0.000 OA
ATOM      4  N   UNL     1       1.721   8.323  19.900  0.00  0.00    +0.000 N 
ATOM      5  C   UNL     1       1.129   8.967  21.074  0.00  0.00    +0.000 C 
ATOM      6  C   UNL     1      -0.264   9.521  20.769  0.00  0.00    +0.000 C 
ATOM      7  C   UNL     1      -0.281  10.415  19.511  0.00  0.00    +0.000 C 
ATOM      8  C   UNL     1       0.337   9.618  18.348  0.00  0.00    +0.000 C 
ATOM      9  C   UNL     1       1.747   9.134  18.681  0.00  0.00    +0.000 C 
ATOM     10  H   UNL     1       3.364   7.139  18.463  0.00  0.00    +0.000 HD
ENDROOT
BRANCH   1  11
ATOM     11  C   UNL     1       3.034   5.088  18.736  0.00  0.00    +0.000 C 
ATOM     12  C   UNL     1       2.122   4.421  17.712  0.00  0.00    +0.000 C 
BRANCH  11  17
ATOM     13  C   UNL     1       7.800   5.777  19.206  0.00  0.00    +0.000 C 
ATOM     14  C   UNL     1       6.588   5.292  18.527  0.00  0.00    +0.000 A 
ATOM     15  C   UNL     1       6.324   4.643  17.344  0.00  0.00    +0.000 A 
ATOM     16  N   UNL     1       4.972   4.458  17.202  0.00  0.00    +0.000 NA
ATOM     17  C   UNL     1       4.467   4.976  18.310  0.00  0.00    +0.000 A 
ATOM     18  O   UNL     1       5.399   5.507  19.162  0.00  0.00    +0.000 OA
ENDBRANCH  11  17
ENDBRANCH   1  11
BRANCH   7  19
ATOM     19  C   UNL     1       0.421  11.769  19.771  0.00  0.00    +0.000 C 
BRANCH  19  20
ATOM     20  C   UNL     1       0.263  12.766  18.616  0.00  0.00    +0.000 C 
BRANCH  20  21
ATOM     21  C   UNL     1       1.355  13.805  18.603  0.00  0.00    +0.000 A 
ATOM     22  C   UNL     1       1.091  15.129  18.974  0.00  0.00    +0.000 A 
ATOM     23  C   UNL     1       2.111  16.082  18.933  0.00  0.00    +0.000 A 
ATOM     24  C   UNL     1       3.389  15.711  18.527  0.00  0.00    +0.000 A 
ATOM     25  F   UNL     1       4.359  16.633  18.480  0.00  0.00    +0.000 F 
ATOM     26  C   UNL     1       3.676  14.401  18.168  0.00  0.00    +0.000 A 
ATOM     27  C   UNL     1       2.656  13.458  18.214  0.00  0.00    +0.000 A 
ATOM     28  F   UNL     1       2.932  12.192  17.868  0.00  0.00    +0.000 F 
ENDBRANCH  20  21
ENDBRANCH  19  20
ENDBRANCH   7  19
TORSDOF 5
ENDMDL
MODEL 7
REMARK VINA RESULT:      -7.4      2.033      2.958
REMARK  Name = 
REMARK  7 active torsions:
REMARK  status: ('A' for Active; 'I' for Inactive)
REMARK    1  A    between atoms: C_1  and  C_2
REMARK    2  A    between atoms: C_5  and  C_6
REMARK    3  A    between atoms: C_6  and  C_7
REMARK    4  A    between atoms: C_6  and  N_8
REMARK    5  A    between atoms: C_14  and  C_15
REMARK    6  A    between atoms: C_15  and  C_16
REMARK    7  A    between atoms: C_16  and  C_17
REMARK                            x       y       z     vdW  Elec       q    Type
REMARK                         _______ _______ _______ _____ _____    ______ ____
ROOT
ATOM      1  N   UNL     1       0.550   9.969  19.889  0.00  0.00    +0.000 N 
ATOM      2  C   UNL     1       1.132   9.319  18.838  0.00  0.00    +0.000 C 
ATOM      3  O   UNL     1       0.922   9.643  17.675  0.00  0.00    +0.000 OA
ATOM      4  N   UNL     1       1.971   8.279  19.201  0.00  0.00    +0.000 N 
ATOM      5  C   UNL     1       2.795   7.636  18.176  0.00  0.00    +0.000 C 
ATOM      6  C   UNL     1       2.405   6.170  17.979  0.00  0.00    +0.000 C 
ATOM      7  C   UNL     1       2.367   5.387  19.309  0.00  0.00    +0.000 C 
ATOM      8  C   UNL     1       1.451   6.145  20.286  0.00  0.00    +0.000 C 
ATOM      9  C   UNL     1       1.914   7.587  20.490  0.00  0.00    +0.000 C 
ATOM     10  H   UNL     1       1.091  10.016  20.742  0.00  0.00    +0.000 HD
ENDROOT
BRANCH   1  11
ATOM     11  C   UNL     1      -0.381  11.067  19.685  0.00  0.00    +0.000 C 
ATOM     12  C   UNL     1      -1.547  10.619  18.811  0.00  0.00    +0.000 C 
BRANCH  11  17
ATOM     13  C   UNL     1      -3.684  12.838  22.746  0.00  0.00    +0.000 C 
ATOM     14  C   UNL     1      -2.357  12.320  22.377  0.00  0.00    +0.000 A 
ATOM     15  C   UNL     1      -1.172  12.109  23.040  0.00  0.00    +0.000 A 
ATOM     16  N   UNL     1      -0.229  11.618  22.171  0.00  0.00    +0.000 NA
ATOM     17  C   UNL     1      -0.879  11.527  21.022  0.00  0.00    +0.000 A 
ATOM     18  O   UNL     1      -2.184  11.943  21.076  0.00  0.00    +0.000 OA
ENDBRANCH  11  17
ENDBRANCH   1  11
BRANCH   7  19
ATOM     19  C   UNL     1       3.791   5.143  19.862  0.00  0.00    +0.000 C 
BRANCH  19  20
ATOM     20  C   UNL     1       4.451   3.878  19.301  0.00  0.00    +0.000 C 
BRANCH  20  21
ATOM     21  C   UNL     1       5.250   4.154  18.054  0.00  0.00    +0.000 A 
ATOM     22  C   UNL     1       4.772   3.770  16.794  0.00  0.00    +0.000 A 
ATOM     23  C   UNL     1       5.538   4.015  15.653  0.00  0.00    +0.000 A 
ATOM     24  C   UNL     1       6.774   4.643  15.770  0.00  0.00    +0.000 A 
ATOM     25  F   UNL     1       7.507   4.864  14.671  0.00  0.00    +0.000 F 
ATOM     26  C   UNL     1       7.261   5.044  17.006  0.00  0.00    +0.000 A 
ATOM     27  C   UNL     1       6.492   4.799  18.138  0.00  0.00    +0.000 A 
ATOM     28  F   UNL     1       6.961   5.186  19.333  0.00  0.00    +0.000 F 
ENDBRANCH  20  21
ENDBRANCH  19  20
ENDBRANCH   7  19
TORSDOF 5
ENDMDL
MODEL 8
REMARK VINA RESULT:      -7.4      3.187      8.042
REMARK  Name = 
REMARK  7 active torsions:
REMARK  status: ('A' for Active; 'I' for Inactive)
REMARK    1  A    between atoms: C_1  and  C_2
REMARK    2  A    between atoms: C_5  and  C_6
REMARK    3  A    between atoms: C_6  and  C_7
REMARK    4  A    between atoms: C_6  and  N_8
REMARK    5  A    between atoms: C_14  and  C_15
REMARK    6  A    between atoms: C_15  and  C_16
REMARK    7  A    between atoms: C_16  and  C_17
REMARK                            x       y       z     vdW  Elec       q    Type
REMARK                         _______ _______ _______ _____ _____    ______ ____
ROOT
ATOM      1  N   UNL     1       2.737   6.315  18.737  0.00  0.00    +0.000 N 
ATOM      2  C   UNL     1       2.051   6.785  19.820  0.00  0.00    +0.000 C 
ATOM      3  O   UNL     1       1.675   6.046  20.724  0.00  0.00    +0.000 OA
ATOM      4  N   UNL     1       1.824   8.150  19.808  0.00  0.00    +0.000 N 
ATOM      5  C   UNL     1       1.270   8.792  21.001  0.00  0.00    +0.000 C 
ATOM      6  C   UNL     1      -0.114   9.385  20.729  0.00  0.00    +0.000 C 
ATOM      7  C   UNL     1      -0.130  10.297  19.484  0.00  0.00    +0.000 C 
ATOM      8  C   UNL     1       0.446   9.502  18.299  0.00  0.00    +0.000 C 
ATOM      9  C   UNL     1       1.850   8.978  18.601  0.00  0.00    +0.000 C 
ATOM     10  H   UNL     1       3.412   6.947  18.326  0.00  0.00    +0.000 HD
ENDROOT
BRANCH   1  11
ATOM     11  C   UNL     1       3.035   4.901  18.576  0.00  0.00    +0.000 C 
ATOM     12  C   UNL     1       1.973   4.229  17.712  0.00  0.00    +0.000 C 
BRANCH  11  17
ATOM     13  C   UNL     1       6.076   3.992  14.924  0.00  0.00    +0.000 C 
ATOM     14  C   UNL     1       5.732   4.354  16.308  0.00  0.00    +0.000 A 
ATOM     15  C   UNL     1       6.444   4.648  17.446  0.00  0.00    +0.000 A 
ATOM     16  N   UNL     1       5.584   4.893  18.488  0.00  0.00    +0.000 NA
ATOM     17  C   UNL     1       4.386   4.765  17.941  0.00  0.00    +0.000 A 
ATOM     18  O   UNL     1       4.404   4.433  16.612  0.00  0.00    +0.000 OA
ENDBRANCH  11  17
ENDBRANCH   1  11
BRANCH   7  19
ATOM     19  C   UNL     1       0.610  11.629  19.750  0.00  0.00    +0.000 C 
BRANCH  19  20
ATOM     20  C   UNL     1       0.352  12.692  18.675  0.00  0.00    +0.000 C 
BRANCH  20  21
ATOM     21  C   UNL     1       1.420  13.755  18.652  0.00  0.00    +0.000 A 
ATOM     22  C   UNL     1       1.140  15.065  19.060  0.00  0.00    +0.000 A 
ATOM     23  C   UNL     1       2.137  16.040  19.010  0.00  0.00    +0.000 A 
ATOM     24  C   UNL     1       3.410  15.706  18.557  0.00  0.00    +0.000 A 
ATOM     25  F   UNL     1       4.358  16.650  18.502  0.00  0.00    +0.000 F 
ATOM     26  C   UNL     1       3.714  14.411  18.161  0.00  0.00    +0.000 A 
ATOM     27  C   UNL     1       2.716  13.445  18.216  0.00  0.00    +0.000 A 
ATOM     28  F   UNL     1       3.008  12.193  17.834  0.00  0.00    +0.000 F 
ENDBRANCH  20  21
ENDBRANCH  19  20
ENDBRANCH   7  19
TORSDOF 5
ENDMDL
MODEL 9
REMARK VINA RESULT:      -7.4      1.149      1.240
REMARK  Name = 
REMARK  7 active torsions:
REMARK  status: ('A' for Active; 'I' for Inactive)
REMARK    1  A    between atoms: C_1  and  C_2
REMARK    2  A    between atoms: C_5  and  C_6
REMARK    3  A    between atoms: C_6  and  C_7
REMARK    4  A    between atoms: C_6  and  N_8
REMARK    5  A    between atoms: C_14  and  C_15
REMARK    6  A    between atoms: C_15  and  C_16
REMARK    7  A    between atoms: C_16  and  C_17
REMARK                            x       y       z     vdW  Elec       q    Type
REMARK                         _______ _______ _______ _____ _____    ______ ____
ROOT
ATOM      1  N   UNL     1       1.000  10.043  19.683  0.00  0.00    +0.000 N 
ATOM      2  C   UNL     1       1.450   9.252  18.665  0.00  0.00    +0.000 C 
ATOM      3  O   UNL     1       1.220   9.510  17.489  0.00  0.00    +0.000 OA
ATOM      4  N   UNL     1       2.181   8.150  19.075  0.00  0.00    +0.000 N 
ATOM      5  C   UNL     1       2.873   7.340  18.071  0.00  0.00    +0.000 C 
ATOM      6  C   UNL     1       2.308   5.919  18.009  0.00  0.00    +0.000 C 
ATOM      7  C   UNL     1       2.248   5.248  19.398  0.00  0.00    +0.000 C 
ATOM      8  C   UNL     1       1.475   6.180  20.348  0.00  0.00    +0.000 C 
ATOM      9  C   UNL     1       2.110   7.568  20.416  0.00  0.00    +0.000 C 
ATOM     10  H   UNL     1       1.585  10.090  20.506  0.00  0.00    +0.000 HD
ENDROOT
BRANCH   1  11
ATOM     11  C   UNL     1       0.191  11.225  19.431  0.00  0.00    +0.000 C 
ATOM     12  C   UNL     1      -1.116  11.151  20.213  0.00  0.00    +0.000 C 
BRANCH  11  17
ATOM     13  C   UNL     1       2.005  15.668  18.811  0.00  0.00    +0.000 C 
ATOM     14  C   UNL     1       1.781  14.416  19.550  0.00  0.00    +0.000 A 
ATOM     15  C   UNL     1       2.186  13.910  20.762  0.00  0.00    +0.000 A 
ATOM     16  N   UNL     1       1.684  12.645  20.935  0.00  0.00    +0.000 NA
ATOM     17  C   UNL     1       0.974  12.437  19.838  0.00  0.00    +0.000 A 
ATOM     18  O   UNL     1       0.993  13.478  18.946  0.00  0.00    +0.000 OA
ENDBRANCH  11  17
ENDBRANCH   1  11
BRANCH   7  19
ATOM     19  C   UNL     1       3.661   4.880  19.910  0.00  0.00    +0.000 C 
BRANCH  19  20
ATOM     20  C   UNL     1       4.251   3.642  19.223  0.00  0.00    +0.000 C 
BRANCH  20  21
ATOM     21  C   UNL     1       5.142   4.001  18.062  0.00  0.00    +0.000 A 
ATOM     22  C   UNL     1       6.412   4.551  18.273  0.00  0.00    +0.000 A 
ATOM     23  C   UNL     1       7.213   4.898  17.184  0.00  0.00    +0.000 A 
ATOM     24  C   UNL     1       6.747   4.691  15.888  0.00  0.00    +0.000 A 
ATOM     25  F   UNL     1       7.517   5.037  14.849  0.00  0.00    +0.000 F 
ATOM     26  C   UNL     1       5.497   4.134  15.656  0.00  0.00    +0.000 A 
ATOM     27  C   UNL     1       4.707   3.789  16.746  0.00  0.00    +0.000 A 
ATOM     28  F   UNL     1       3.499   3.251  16.523  0.00  0.00    +0.000 F 
ENDBRANCH  20  21
ENDBRANCH  19  20
ENDBRANCH   7  19
TORSDOF 5
ENDMDL
