MODEL 1
REMARK VINA RESULT:      -6.0      0.000      0.000
REMARK  Name = 
REMARK  12 active torsions:
REMARK  status: ('A' for Active; 'I' for Inactive)
REMARK    1  A    between atoms: C_1  and  C_2
REMARK    2  A    between atoms: C_2  and  C_4
REMARK    3  A    between atoms: C_5  and  C_6
REMARK    4  A    between atoms: C_13  and  C_14
REMARK    5  A    between atoms: N_22  and  C_23
REMARK    6  A    between atoms: C_23  and  C_24
REMARK    7  A    between atoms: C_24  and  O_25
REMARK    8  A    between atoms: O_25  and  C_26
REMARK    9  A    between atoms: C_26  and  C_28
REMARK   10  A    between atoms: C_28  and  C_29
REMARK   11  A    between atoms: C_28  and  C_30
REMARK   12  A    between atoms: C_28  and  C_31
REMARK                            x       y       z     vdW  Elec       q    Type
REMARK                         _______ _______ _______ _____ _____    ______ ____
ROOT
ATOM      1  C   UNL     1      -2.152  14.598  22.578  0.00  0.00    +0.000 A 
ATOM      2  C   UNL     1      -1.324  13.629  22.120  0.00  0.00    +0.000 A 
ATOM      3  C   UNL     1      -1.624  12.215  22.567  0.00  0.00    +0.000 A 
ATOM      4  N   UNL     1      -2.599  11.911  23.371  0.00  0.00    +0.000 NA
ATOM      5  N   UNL     1      -3.401  12.908  23.846  0.00  0.00    +0.000 N 
ATOM      6  C   UNL     1      -3.293  14.230  23.467  0.00  0.00    +0.000 A 
ATOM      7  O   UNL     1      -4.102  15.081  23.836  0.00  0.00    +0.000 OA
ENDROOT
BRANCH   2   8
ATOM      8  C   UNL     1      -0.218  13.964  21.202  0.00  0.00    +0.000 A 
ATOM      9  C   UNL     1       1.056  14.281  21.709  0.00  0.00    +0.000 A 
ATOM     10  C   UNL     1       2.086  14.660  20.846  0.00  0.00    +0.000 A 
ATOM     11  C   UNL     1       1.835  14.781  19.481  0.00  0.00    +0.000 A 
ATOM     12 CL   UNL     1       3.086  15.316  18.429  0.00  0.00    +0.000 Cl
ATOM     13  C   UNL     1       0.573  14.488  18.966  0.00  0.00    +0.000 A 
ATOM     14  C   UNL     1      -0.448  14.064  19.821  0.00  0.00    +0.000 A 
ENDBRANCH   2   8
BRANCH   3  15
ATOM     15  C   UNL     1      -0.800  11.049  22.062  0.00  0.00    +0.000 A 
ATOM     16  C   UNL     1      -0.132  10.152  22.902  0.00  0.00    +0.000 A 
ATOM     17  C   UNL     1       0.669   9.128  22.388  0.00  0.00    +0.000 A 
ATOM     18  C   UNL     1       0.743   8.931  21.016  0.00  0.00    +0.000 A 
ATOM     19 CL   UNL     1       1.714   7.658  20.388  0.00  0.00    +0.000 Cl
ATOM     20  C   UNL     1       0.015   9.750  20.157  0.00  0.00    +0.000 A 
ATOM     21  C   UNL     1      -0.746  10.808  20.676  0.00  0.00    +0.000 A 
ENDBRANCH   3  15
BRANCH   1  23
ATOM     22  C   UNL     1      -2.717  16.615  21.017  0.00  0.00    +0.000 C 
ATOM     23  C   UNL     1      -1.973  16.055  22.206  0.00  0.00    +0.000 C 
ATOM     24  O   UNL     1      -1.224  16.805  22.835  0.00  0.00    +0.000 OA
ENDBRANCH   1  23
BRANCH   5  25
ATOM     25  C   UNL     1      -4.462  12.506  24.771  0.00  0.00    +0.000 C 
BRANCH  25  26
ATOM     26  C   UNL     1      -5.857  12.575  24.154  0.00  0.00    +0.000 C 
BRANCH  26  27
ATOM     27  O   UNL     1      -5.834  12.177  22.763  0.00  0.00    +0.000 OA
BRANCH  27  28
ATOM     28  C   UNL     1      -6.439  13.042  21.902  0.00  0.00    +0.000 C 
ATOM     29  O   UNL     1      -7.200  13.938  22.260  0.00  0.00    +0.000 OA
BRANCH  28  30
ATOM     30  C   UNL     1      -6.071  12.760  20.446  0.00  0.00    +0.000 C 
ATOM     31  C   UNL     1      -4.546  12.695  20.308  0.00  0.00    +0.000 C 
ATOM     32  C   UNL     1      -6.669  11.400  20.034  0.00  0.00    +0.000 C 
ATOM     33  C   UNL     1      -6.643  13.846  19.526  0.00  0.00    +0.000 C 
ENDBRANCH  28  30
ENDBRANCH  27  28
ENDBRANCH  26  27
ENDBRANCH  25  26
ENDBRANCH   5  25
TORSDOF 8
ENDMDL
MODEL 2
REMARK VINA RESULT:      -5.9      4.656      7.516
REMARK  Name = 
REMARK  12 active torsions:
REMARK  status: ('A' for Active; 'I' for Inactive)
REMARK    1  A    between atoms: C_1  and  C_2
REMARK    2  A    between atoms: C_2  and  C_4
REMARK    3  A    between atoms: C_5  and  C_6
REMARK    4  A    between atoms: C_13  and  C_14
REMARK    5  A    between atoms: N_22  and  C_23
REMARK    6  A    between atoms: C_23  and  C_24
REMARK    7  A    between atoms: C_24  and  O_25
REMARK    8  A    between atoms: O_25  and  C_26
REMARK    9  A    between atoms: C_26  and  C_28
REMARK   10  A    between atoms: C_28  and  C_29
REMARK   11  A    between atoms: C_28  and  C_30
REMARK   12  A    between atoms: C_28  and  C_31
REMARK                            x       y       z     vdW  Elec       q    Type
REMARK                         _______ _______ _______ _____ _____    ______ ____
ROOT
ATOM      1  C   UNL     1       1.680  13.309  19.261  0.00  0.00    +0.000 A 
ATOM      2  C   UNL     1       0.620  13.507  20.080  0.00  0.00    +0.000 A 
ATOM      3  C   UNL     1      -0.316  12.335  20.273  0.00  0.00    +0.000 A 
ATOM      4  N   UNL     1      -0.161  11.191  19.676  0.00  0.00    +0.000 NA
ATOM      5  N   UNL     1       0.896  11.023  18.829  0.00  0.00    +0.000 N 
ATOM      6  C   UNL     1       1.870  11.976  18.615  0.00  0.00    +0.000 A 
ATOM      7  O   UNL     1       2.864  11.747  17.926  0.00  0.00    +0.000 OA
ENDROOT
BRANCH   2   8
ATOM      8  C   UNL     1       0.439  14.801  20.766  0.00  0.00    +0.000 A 
ATOM      9  C   UNL     1       1.015  15.023  22.031  0.00  0.00    +0.000 A 
ATOM     10  C   UNL     1       0.792  16.223  22.709  0.00  0.00    +0.000 A 
ATOM     11  C   UNL     1      -0.052  17.183  22.155  0.00  0.00    +0.000 A 
ATOM     12 CL   UNL     1      -0.381  18.631  23.024  0.00  0.00    +0.000 Cl
ATOM     13  C   UNL     1      -0.645  16.970  20.911  0.00  0.00    +0.000 A 
ATOM     14  C   UNL     1      -0.387  15.789  20.209  0.00  0.00    +0.000 A 
ENDBRANCH   2   8
BRANCH   3  15
ATOM     15  C   UNL     1      -1.496  12.429  21.218  0.00  0.00    +0.000 A 
ATOM     16  C   UNL     1      -1.414  12.153  22.587  0.00  0.00    +0.000 A 
ATOM     17  C   UNL     1      -2.545  12.192  23.409  0.00  0.00    +0.000 A 
ATOM     18  C   UNL     1      -3.765  12.597  22.885  0.00  0.00    +0.000 A 
ATOM     19 CL   UNL     1      -5.149  12.663  23.904  0.00  0.00    +0.000 Cl
ATOM     20  C   UNL     1      -3.858  12.968  21.547  0.00  0.00    +0.000 A 
ATOM     21  C   UNL     1      -2.732  12.878  20.716  0.00  0.00    +0.000 A 
ENDBRANCH   3  15
BRANCH   1  23
ATOM     22  C   UNL     1       2.461  15.367  17.854  0.00  0.00    +0.000 C 
ATOM     23  C   UNL     1       2.701  14.392  18.983  0.00  0.00    +0.000 C 
ATOM     24  O   UNL     1       3.737  14.500  19.640  0.00  0.00    +0.000 OA
ENDBRANCH   1  23
BRANCH   5  25
ATOM     25  C   UNL     1       1.000   9.723  18.164  0.00  0.00    +0.000 C 
BRANCH  25  26
ATOM     26  C   UNL     1       1.676   8.659  19.024  0.00  0.00    +0.000 C 
BRANCH  26  27
ATOM     27  O   UNL     1       2.400   7.708  18.207  0.00  0.00    +0.000 OA
BRANCH  27  28
ATOM     28  C   UNL     1       2.701   6.528  18.818  0.00  0.00    +0.000 C 
ATOM     29  O   UNL     1       2.119   6.111  19.817  0.00  0.00    +0.000 OA
BRANCH  28  30
ATOM     30  C   UNL     1       3.849   5.795  18.126  0.00  0.00    +0.000 C 
ATOM     31  C   UNL     1       4.493   6.721  17.087  0.00  0.00    +0.000 C 
ATOM     32  C   UNL     1       4.907   5.416  19.181  0.00  0.00    +0.000 C 
ATOM     33  C   UNL     1       3.343   4.513  17.455  0.00  0.00    +0.000 C 
ENDBRANCH  28  30
ENDBRANCH  27  28
ENDBRANCH  26  27
ENDBRANCH  25  26
ENDBRANCH   5  25
TORSDOF 8
ENDMDL
MODEL 3
REMARK VINA RESULT:      -5.9      4.835      7.769
REMARK  Name = 
REMARK  12 active torsions:
REMARK  status: ('A' for Active; 'I' for Inactive)
REMARK    1  A    between atoms: C_1  and  C_2
REMARK    2  A    between atoms: C_2  and  C_4
REMARK    3  A    between atoms: C_5  and  C_6
REMARK    4  A    between atoms: C_13  and  C_14
REMARK    5  A    between atoms: N_22  and  C_23
REMARK    6  A    between atoms: C_23  and  C_24
REMARK    7  A    between atoms: C_24  and  O_25
REMARK    8  A    between atoms: O_25  and  C_26
REMARK    9  A    between atoms: C_26  and  C_28
REMARK   10  A    between atoms: C_28  and  C_29
REMARK   11  A    between atoms: C_28  and  C_30
REMARK   12  A    between atoms: C_28  and  C_31
REMARK                            x       y       z     vdW  Elec       q    Type
REMARK                         _______ _______ _______ _____ _____    ______ ____
ROOT
ATOM      1  C   UNL     1       1.836  13.082  19.059  0.00  0.00    +0.000 A 
ATOM      2  C   UNL     1       0.821  13.260  19.938  0.00  0.00    +0.000 A 
ATOM      3  C   UNL     1      -0.070  12.066  20.196  0.00  0.00    +0.000 A 
ATOM      4  N   UNL     1       0.081  10.920  19.601  0.00  0.00    +0.000 NA
ATOM      5  N   UNL     1       1.091  10.772  18.695  0.00  0.00    +0.000 N 
ATOM      6  C   UNL     1       2.025  11.748  18.416  0.00  0.00    +0.000 A 
ATOM      7  O   UNL     1       2.982  11.538  17.671  0.00  0.00    +0.000 OA
ENDROOT
BRANCH   2   8
ATOM      8  C   UNL     1       0.646  14.557  20.622  0.00  0.00    +0.000 A 
ATOM      9  C   UNL     1      -0.027  15.614  19.981  0.00  0.00    +0.000 A 
ATOM     10  C   UNL     1      -0.139  16.859  20.601  0.00  0.00    +0.000 A 
ATOM     11  C   UNL     1       0.470  17.074  21.836  0.00  0.00    +0.000 A 
ATOM     12 CL   UNL     1       0.391  18.630  22.565  0.00  0.00    +0.000 Cl
ATOM     13  C   UNL     1       1.156  16.043  22.475  0.00  0.00    +0.000 A 
ATOM     14  C   UNL     1       1.230  14.780  21.878  0.00  0.00    +0.000 A 
ENDBRANCH   2   8
BRANCH   3  15
ATOM     15  C   UNL     1      -1.194  12.139  21.208  0.00  0.00    +0.000 A 
ATOM     16  C   UNL     1      -2.446  12.699  20.935  0.00  0.00    +0.000 A 
ATOM     17  C   UNL     1      -3.432  12.801  21.921  0.00  0.00    +0.000 A 
ATOM     18  C   UNL     1      -3.208  12.260  23.180  0.00  0.00    +0.000 A 
ATOM     19 CL   UNL     1      -4.430  12.370  24.385  0.00  0.00    +0.000 Cl
ATOM     20  C   UNL     1      -2.007  11.613  23.454  0.00  0.00    +0.000 A 
ATOM     21  C   UNL     1      -1.002  11.559  22.476  0.00  0.00    +0.000 A 
ENDBRANCH   3  15
BRANCH   1  23
ATOM     22  C   UNL     1       4.002  14.437  19.604  0.00  0.00    +0.000 C 
ATOM     23  C   UNL     1       2.809  14.189  18.712  0.00  0.00    +0.000 C 
ATOM     24  O   UNL     1       2.654  14.912  17.727  0.00  0.00    +0.000 OA
ENDBRANCH   1  23
BRANCH   5  25
ATOM     25  C   UNL     1       1.191   9.467  18.037  0.00  0.00    +0.000 C 
BRANCH  25  26
ATOM     26  C   UNL     1       2.001   8.450  18.837  0.00  0.00    +0.000 C 
BRANCH  26  27
ATOM     27  O   UNL     1       2.879   7.687  17.975  0.00  0.00    +0.000 OA
BRANCH  27  28
ATOM     28  C   UNL     1       2.919   6.349  18.226  0.00  0.00    +0.000 C 
ATOM     29  O   UNL     1       1.990   5.723  18.734  0.00  0.00    +0.000 OA
BRANCH  28  30
ATOM     30  C   UNL     1       4.252   5.723  17.816  0.00  0.00    +0.000 C 
ATOM     31  C   UNL     1       5.019   6.701  16.919  0.00  0.00    +0.000 C 
ATOM     32  C   UNL     1       5.084   5.449  19.084  0.00  0.00    +0.000 C 
ATOM     33  C   UNL     1       4.021   4.397  17.083  0.00  0.00    +0.000 C 
ENDBRANCH  28  30
ENDBRANCH  27  28
ENDBRANCH  26  27
ENDBRANCH  25  26
ENDBRANCH   5  25
TORSDOF 8
ENDMDL
MODEL 4
REMARK VINA RESULT:      -5.9      1.222      1.522
REMARK  Name = 
REMARK  12 active torsions:
REMARK  status: ('A' for Active; 'I' for Inactive)
REMARK    1  A    between atoms: C_1  and  C_2
REMARK    2  A    between atoms: C_2  and  C_4
REMARK    3  A    between atoms: C_5  and  C_6
REMARK    4  A    between atoms: C_13  and  C_14
REMARK    5  A    between atoms: N_22  and  C_23
REMARK    6  A    between atoms: C_23  and  C_24
REMARK    7  A    between atoms: C_24  and  O_25
REMARK    8  A    between atoms: O_25  and  C_26
REMARK    9  A    between atoms: C_26  and  C_28
REMARK   10  A    between atoms: C_28  and  C_29
REMARK   11  A    between atoms: C_28  and  C_30
REMARK   12  A    between atoms: C_28  and  C_31
REMARK                            x       y       z     vdW  Elec       q    Type
REMARK                         _______ _______ _______ _____ _____    ______ ____
ROOT
ATOM      1  C   UNL     1      -1.885  15.162  21.632  0.00  0.00    +0.000 A 
ATOM      2  C   UNL     1      -1.161  14.028  21.478  0.00  0.00    +0.000 A 
ATOM      3  C   UNL     1      -1.756  12.760  22.048  0.00  0.00    +0.000 A 
ATOM      4  N   UNL     1      -2.889  12.727  22.685  0.00  0.00    +0.000 NA
ATOM      5  N   UNL     1      -3.587  13.888  22.857  0.00  0.00    +0.000 N 
ATOM      6  C   UNL     1      -3.204  15.102  22.328  0.00  0.00    +0.000 A 
ATOM      7  O   UNL     1      -3.915  16.103  22.416  0.00  0.00    +0.000 OA
ENDROOT
BRANCH   2   8
ATOM      8  C   UNL     1       0.124  14.056  20.751  0.00  0.00    +0.000 A 
ATOM      9  C   UNL     1       1.335  14.203  21.452  0.00  0.00    +0.000 A 
ATOM     10  C   UNL     1       2.545  14.292  20.761  0.00  0.00    +0.000 A 
ATOM     11  C   UNL     1       2.547  14.296  19.368  0.00  0.00    +0.000 A 
ATOM     12 CL   UNL     1       4.032  14.478  18.519  0.00  0.00    +0.000 Cl
ATOM     13  C   UNL     1       1.354  14.170  18.659  0.00  0.00    +0.000 A 
ATOM     14  C   UNL     1       0.145  14.034  19.348  0.00  0.00    +0.000 A 
ENDBRANCH   2   8
BRANCH   3  15
ATOM     15  C   UNL     1      -1.059  11.427  21.875  0.00  0.00    +0.000 A 
ATOM     16  C   UNL     1      -0.655  10.620  22.943  0.00  0.00    +0.000 A 
ATOM     17  C   UNL     1       0.041   9.427  22.735  0.00  0.00    +0.000 A 
ATOM     18  C   UNL     1       0.269   8.976  21.442  0.00  0.00    +0.000 A 
ATOM     19 CL   UNL     1       1.109   7.498  21.189  0.00  0.00    +0.000 Cl
ATOM     20  C   UNL     1      -0.203   9.711  20.358  0.00  0.00    +0.000 A 
ATOM     21  C   UNL     1      -0.858  10.933  20.572  0.00  0.00    +0.000 A 
ENDBRANCH   3  15
BRANCH   1  23
ATOM     22  C   UNL     1      -0.539  17.375  21.974  0.00  0.00    +0.000 C 
ATOM     23  C   UNL     1      -1.412  16.501  21.105  0.00  0.00    +0.000 C 
ATOM     24  O   UNL     1      -1.730  16.915  19.989  0.00  0.00    +0.000 OA
ENDBRANCH   1  23
BRANCH   5  25
ATOM     25  C   UNL     1      -4.840  13.790  23.609  0.00  0.00    +0.000 C 
BRANCH  25  26
ATOM     26  C   UNL     1      -5.828  12.795  23.006  0.00  0.00    +0.000 C 
BRANCH  26  27
ATOM     27  O   UNL     1      -6.071  13.081  21.607  0.00  0.00    +0.000 OA
BRANCH  27  28
ATOM     28  C   UNL     1      -6.398  12.002  20.843  0.00  0.00    +0.000 C 
ATOM     29  O   UNL     1      -7.049  11.046  21.258  0.00  0.00    +0.000 OA
BRANCH  28  30
ATOM     30  C   UNL     1      -5.854  12.116  19.420  0.00  0.00    +0.000 C 
ATOM     31  C   UNL     1      -6.200  10.843  18.638  0.00  0.00    +0.000 C 
ATOM     32  C   UNL     1      -6.515  13.323  18.727  0.00  0.00    +0.000 C 
ATOM     33  C   UNL     1      -4.336  12.331  19.440  0.00  0.00    +0.000 C 
ENDBRANCH  28  30
ENDBRANCH  27  28
ENDBRANCH  26  27
ENDBRANCH  25  26
ENDBRANCH   5  25
TORSDOF 8
ENDMDL
MODEL 5
REMARK VINA RESULT:      -5.9      2.776      5.752
REMARK  Name = 
REMARK  12 active torsions:
REMARK  status: ('A' for Active; 'I' for Inactive)
REMARK    1  A    between atoms: C_1  and  C_2
REMARK    2  A    between atoms: C_2  and  C_4
REMARK    3  A    between atoms: C_5  and  C_6
REMARK    4  A    between atoms: C_13  and  C_14
REMARK    5  A    between atoms: N_22  and  C_23
REMARK    6  A    between atoms: C_23  and  C_24
REMARK    7  A    between atoms: C_24  and  O_25
REMARK    8  A    between atoms: O_25  and  C_26
REMARK    9  A    between atoms: C_26  and  C_28
REMARK   10  A    between atoms: C_28  and  C_29
REMARK   11  A    between atoms: C_28  and  C_30
REMARK   12  A    between atoms: C_28  and  C_31
REMARK                            x       y       z     vdW  Elec       q    Type
REMARK                         _______ _______ _______ _____ _____    ______ ____
ROOT
ATOM      1  C   UNL     1      -5.593  11.730  19.929  0.00  0.00    +0.000 A 
ATOM      2  C   UNL     1      -4.320  11.893  19.497  0.00  0.00    +0.000 A 
ATOM      3  C   UNL     1      -3.354  12.544  20.461  0.00  0.00    +0.000 A 
ATOM      4  N   UNL     1      -3.698  12.965  21.642  0.00  0.00    +0.000 NA
ATOM      5  N   UNL     1      -4.994  12.821  22.045  0.00  0.00    +0.000 N 
ATOM      6  C   UNL     1      -5.964  12.181  21.303  0.00  0.00    +0.000 A 
ATOM      7  O   UNL     1      -7.094  11.978  21.747  0.00  0.00    +0.000 OA
ENDROOT
BRANCH   2   8
ATOM      8  C   UNL     1      -3.919  11.411  18.159  0.00  0.00    +0.000 A 
ATOM      9  C   UNL     1      -4.479  11.982  17.001  0.00  0.00    +0.000 A 
ATOM     10  C   UNL     1      -4.149  11.486  15.739  0.00  0.00    +0.000 A 
ATOM     11  C   UNL     1      -3.305  10.382  15.629  0.00  0.00    +0.000 A 
ATOM     12 CL   UNL     1      -2.956   9.728  14.076  0.00  0.00    +0.000 Cl
ATOM     13  C   UNL     1      -2.758   9.794  16.768  0.00  0.00    +0.000 A 
ATOM     14  C   UNL     1      -3.050  10.317  18.031  0.00  0.00    +0.000 A 
ENDBRANCH   2   8
BRANCH   3  15
ATOM     15  C   UNL     1      -1.892  12.714  20.101  0.00  0.00    +0.000 A 
ATOM     16  C   UNL     1      -1.385  13.834  19.435  0.00  0.00    +0.000 A 
ATOM     17  C   UNL     1      -0.038  13.918  19.068  0.00  0.00    +0.000 A 
ATOM     18  C   UNL     1       0.843  12.913  19.443  0.00  0.00    +0.000 A 
ATOM     19 CL   UNL     1       2.503  13.029  19.007  0.00  0.00    +0.000 Cl
ATOM     20  C   UNL     1       0.386  11.830  20.188  0.00  0.00    +0.000 A 
ATOM     21  C   UNL     1      -0.976  11.727  20.510  0.00  0.00    +0.000 A 
ENDBRANCH   3  15
BRANCH   1  23
ATOM     22  C   UNL     1      -6.855   9.591  19.120  0.00  0.00    +0.000 C 
ATOM     23  C   UNL     1      -6.663  11.088  19.071  0.00  0.00    +0.000 C 
ATOM     24  O   UNL     1      -7.380  11.747  18.316  0.00  0.00    +0.000 OA
ENDBRANCH   1  23
BRANCH   5  25
ATOM     25  C   UNL     1      -5.326  13.343  23.372  0.00  0.00    +0.000 C 
BRANCH  25  26
ATOM     26  C   UNL     1      -4.100  13.578  24.251  0.00  0.00    +0.000 C 
BRANCH  26  27
ATOM     27  O   UNL     1      -3.728  14.977  24.266  0.00  0.00    +0.000 OA
BRANCH  27  28
ATOM     28  C   UNL     1      -2.466  15.237  24.707  0.00  0.00    +0.000 C 
ATOM     29  O   UNL     1      -2.128  15.163  25.886  0.00  0.00    +0.000 OA
BRANCH  28  30
ATOM     30  C   UNL     1      -1.528  15.642  23.570  0.00  0.00    +0.000 C 
ATOM     31  C   UNL     1      -2.350  16.216  22.410  0.00  0.00    +0.000 C 
ATOM     32  C   UNL     1      -0.561  16.727  24.083  0.00  0.00    +0.000 C 
ATOM     33  C   UNL     1      -0.707  14.437  23.094  0.00  0.00    +0.000 C 
ENDBRANCH  28  30
ENDBRANCH  27  28
ENDBRANCH  26  27
ENDBRANCH  25  26
ENDBRANCH   5  25
TORSDOF 8
ENDMDL
MODEL 6
REMARK VINA RESULT:      -5.9      2.917      5.648
REMARK  Name = 
REMARK  12 active torsions:
REMARK  status: ('A' for Active; 'I' for Inactive)
REMARK    1  A    between atoms: C_1  and  C_2
REMARK    2  A    between atoms: C_2  and  C_4
REMARK    3  A    between atoms: C_5  and  C_6
REMARK    4  A    between atoms: C_13  and  C_14
REMARK    5  A    between atoms: N_22  and  C_23
REMARK    6  A    between atoms: C_23  and  C_24
REMARK    7  A    between atoms: C_24  and  O_25
REMARK    8  A    between atoms: O_25  and  C_26
REMARK    9  A    between atoms: C_26  and  C_28
REMARK   10  A    between atoms: C_28  and  C_29
REMARK   11  A    between atoms: C_28  and  C_30
REMARK   12  A    between atoms: C_28  and  C_31
REMARK                            x       y       z     vdW  Elec       q    Type
REMARK                         _______ _______ _______ _____ _____    ______ ____
ROOT
ATOM      1  C   UNL     1      -5.379  11.732  19.777  0.00  0.00    +0.000 A 
ATOM      2  C   UNL     1      -4.126  11.761  19.264  0.00  0.00    +0.000 A 
ATOM      3  C   UNL     1      -3.046  12.348  20.145  0.00  0.00    +0.000 A 
ATOM      4  N   UNL     1      -3.275  12.836  21.328  0.00  0.00    +0.000 NA
ATOM      5  N   UNL     1      -4.551  12.825  21.813  0.00  0.00    +0.000 N 
ATOM      6  C   UNL     1      -5.620  12.256  21.154  0.00  0.00    +0.000 A 
ATOM      7  O   UNL     1      -6.734  12.173  21.671  0.00  0.00    +0.000 OA
ENDROOT
BRANCH   2   8
ATOM      8  C   UNL     1      -3.855  11.205  17.923  0.00  0.00    +0.000 A 
ATOM      9  C   UNL     1      -3.023  10.079  17.775  0.00  0.00    +0.000 A 
ATOM     10  C   UNL     1      -2.716   9.591  16.504  0.00  0.00    +0.000 A 
ATOM     11  C   UNL     1      -3.188  10.257  15.374  0.00  0.00    +0.000 A 
ATOM     12 CL   UNL     1      -2.749   9.694  13.809  0.00  0.00    +0.000 Cl
ATOM     13  C   UNL     1      -3.997  11.384  15.505  0.00  0.00    +0.000 A 
ATOM     14  C   UNL     1      -4.345  11.849  16.776  0.00  0.00    +0.000 A 
ENDBRANCH   2   8
BRANCH   3  15
ATOM     15  C   UNL     1      -1.600  12.371  19.693  0.00  0.00    +0.000 A 
ATOM     16  C   UNL     1      -0.657  11.409  20.069  0.00  0.00    +0.000 A 
ATOM     17  C   UNL     1       0.682  11.506  19.678  0.00  0.00    +0.000 A 
ATOM     18  C   UNL     1       1.080  12.528  18.827  0.00  0.00    +0.000 A 
ATOM     19 CL   UNL     1       2.723  12.634  18.332  0.00  0.00    +0.000 Cl
ATOM     20  C   UNL     1       0.145  13.447  18.360  0.00  0.00    +0.000 A 
ATOM     21  C   UNL     1      -1.187  13.374  18.796  0.00  0.00    +0.000 A 
ENDBRANCH   3  15
BRANCH   1  23
ATOM     22  C   UNL     1      -7.446  12.099  18.222  0.00  0.00    +0.000 C 
ATOM     23  C   UNL     1      -6.554  11.167  19.008  0.00  0.00    +0.000 C 
ATOM     24  O   UNL     1      -6.822   9.964  19.012  0.00  0.00    +0.000 OA
ENDBRANCH   1  23
BRANCH   5  25
ATOM     25  C   UNL     1      -4.750  13.415  23.138  0.00  0.00    +0.000 C 
BRANCH  25  26
ATOM     26  C   UNL     1      -4.968  14.925  23.099  0.00  0.00    +0.000 C 
BRANCH  26  27
ATOM     27  O   UNL     1      -4.006  15.614  23.933  0.00  0.00    +0.000 OA
BRANCH  27  28
ATOM     28  C   UNL     1      -2.826  15.921  23.326  0.00  0.00    +0.000 C 
ATOM     29  O   UNL     1      -2.748  16.496  22.242  0.00  0.00    +0.000 OA
BRANCH  28  30
ATOM     30  C   UNL     1      -1.618  15.459  24.141  0.00  0.00    +0.000 C 
ATOM     31  C   UNL     1      -0.500  16.502  24.032  0.00  0.00    +0.000 C 
ATOM     32  C   UNL     1      -2.036  15.325  25.618  0.00  0.00    +0.000 C 
ATOM     33  C   UNL     1      -1.124  14.095  23.643  0.00  0.00    +0.000 C 
ENDBRANCH  28  30
ENDBRANCH  27  28
ENDBRANCH  26  27
ENDBRANCH  25  26
ENDBRANCH   5  25
TORSDOF 8
ENDMDL
MODEL 7
REMARK VINA RESULT:      -5.8      4.888      7.702
REMARK  Name = 
REMARK  12 active torsions:
REMARK  status: ('A' for Active; 'I' for Inactive)
REMARK    1  A    between atoms: C_1  and  C_2
REMARK    2  A    between atoms: C_2  and  C_4
REMARK    3  A    between atoms: C_5  and  C_6
REMARK    4  A    between atoms: C_13  and  C_14
REMARK    5  A    between atoms: N_22  and  C_23
REMARK    6  A    between atoms: C_23  and  C_24
REMARK    7  A    between atoms: C_24  and  O_25
REMARK    8  A    between atoms: O_25  and  C_26
REMARK    9  A    between atoms: C_26  and  C_28
REMARK   10  A    between atoms: C_28  and  C_29
REMARK   11  A    between atoms: C_28  and  C_30
REMARK   12  A    between atoms: C_28  and  C_31
REMARK                            x       y       z     vdW  Elec       q    Type
REMARK                         _______ _______ _______ _____ _____    ______ ____
ROOT
ATOM      1  C   UNL     1       1.843  13.008  18.963  0.00  0.00    +0.000 A 
ATOM      2  C   UNL     1       0.853  13.185  19.870  0.00  0.00    +0.000 A 
ATOM      3  C   UNL     1      -0.036  11.993  20.146  0.00  0.00    +0.000 A 
ATOM      4  N   UNL     1       0.095  10.849  19.541  0.00  0.00    +0.000 NA
ATOM      5  N   UNL     1       1.079  10.702  18.607  0.00  0.00    +0.000 N 
ATOM      6  C   UNL     1       2.008  11.677  18.308  0.00  0.00    +0.000 A 
ATOM      7  O   UNL     1       2.944  11.468  17.536  0.00  0.00    +0.000 OA
ENDROOT
BRANCH   2   8
ATOM      8  C   UNL     1       0.701  14.479  20.565  0.00  0.00    +0.000 A 
ATOM      9  C   UNL     1       1.274  14.675  21.835  0.00  0.00    +0.000 A 
ATOM     10  C   UNL     1       1.079  15.875  22.521  0.00  0.00    +0.000 A 
ATOM     11  C   UNL     1       0.262  16.861  21.970  0.00  0.00    +0.000 A 
ATOM     12 CL   UNL     1      -0.035  18.310  22.849  0.00  0.00    +0.000 Cl
ATOM     13  C   UNL     1      -0.328  16.673  20.721  0.00  0.00    +0.000 A 
ATOM     14  C   UNL     1      -0.097  15.492  20.011  0.00  0.00    +0.000 A 
ENDBRANCH   2   8
BRANCH   3  15
ATOM     15  C   UNL     1      -1.132  12.064  21.189  0.00  0.00    +0.000 A 
ATOM     16  C   UNL     1      -2.386  12.639  20.956  0.00  0.00    +0.000 A 
ATOM     17  C   UNL     1      -3.343  12.738  21.969  0.00  0.00    +0.000 A 
ATOM     18  C   UNL     1      -3.091  12.182  23.215  0.00  0.00    +0.000 A 
ATOM     19 CL   UNL     1      -4.279  12.289  24.454  0.00  0.00    +0.000 Cl
ATOM     20  C   UNL     1      -1.888  11.521  23.450  0.00  0.00    +0.000 A 
ATOM     21  C   UNL     1      -0.911  11.469  22.445  0.00  0.00    +0.000 A 
ENDBRANCH   3  15
BRANCH   1  23
ATOM     22  C   UNL     1       4.033  14.346  19.451  0.00  0.00    +0.000 C 
ATOM     23  C   UNL     1       2.810  14.113  18.595  0.00  0.00    +0.000 C 
ATOM     24  O   UNL     1       2.627  14.847  17.623  0.00  0.00    +0.000 OA
ENDBRANCH   1  23
BRANCH   5  25
ATOM     25  C   UNL     1       1.156   9.401  17.940  0.00  0.00    +0.000 C 
BRANCH  25  26
ATOM     26  C   UNL     1       2.176   8.459  18.572  0.00  0.00    +0.000 C 
BRANCH  26  27
ATOM     27  O   UNL     1       2.129   7.149  17.959  0.00  0.00    +0.000 OA
BRANCH  27  28
ATOM     28  C   UNL     1       3.332   6.523  17.833  0.00  0.00    +0.000 C 
ATOM     29  O   UNL     1       4.372   7.103  17.528  0.00  0.00    +0.000 OA
BRANCH  28  30
ATOM     30  C   UNL     1       3.234   5.022  18.101  0.00  0.00    +0.000 C 
ATOM     31  C   UNL     1       3.684   4.730  19.537  0.00  0.00    +0.000 C 
ATOM     32  C   UNL     1       1.767   4.580  17.937  0.00  0.00    +0.000 C 
ATOM     33  C   UNL     1       4.097   4.240  17.104  0.00  0.00    +0.000 C 
ENDBRANCH  28  30
ENDBRANCH  27  28
ENDBRANCH  26  27
ENDBRANCH  25  26
ENDBRANCH   5  25
TORSDOF 8
ENDMDL
MODEL 8
REMARK VINA RESULT:      -5.8      2.478      3.104
REMARK  Name = 
REMARK  12 active torsions:
REMARK  status: ('A' for Active; 'I' for Inactive)
REMARK    1  A    between atoms: C_1  and  C_2
REMARK    2  A    between atoms: C_2  and  C_4
REMARK    3  A    between atoms: C_5  and  C_6
REMARK    4  A    between atoms: C_13  and  C_14
REMARK    5  A    between atoms: N_22  and  C_23
REMARK    6  A    between atoms: C_23  and  C_24
REMARK    7  A    between atoms: C_24  and  O_25
REMARK    8  A    between atoms: O_25  and  C_26
REMARK    9  A    between atoms: C_26  and  C_28
REMARK   10  A    between atoms: C_28  and  C_29
REMARK   11  A    between atoms: C_28  and  C_30
REMARK   12  A    between atoms: C_28  and  C_31
REMARK                            x       y       z     vdW  Elec       q    Type
REMARK                         _______ _______ _______ _____ _____    ______ ____
ROOT
ATOM      1  C   UNL     1      -1.176  14.695  20.476  0.00  0.00    +0.000 A 
ATOM      2  C   UNL     1      -0.333  13.642  20.352  0.00  0.00    +0.000 A 
ATOM      3  C   UNL     1      -0.937  12.266  20.522  0.00  0.00    +0.000 A 
ATOM      4  N   UNL     1      -2.191  12.066  20.802  0.00  0.00    +0.000 NA
ATOM      5  N   UNL     1      -3.016  13.143  20.955  0.00  0.00    +0.000 N 
ATOM      6  C   UNL     1      -2.622  14.449  20.756  0.00  0.00    +0.000 A 
ATOM      7  O   UNL     1      -3.422  15.384  20.800  0.00  0.00    +0.000 OA
ENDROOT
BRANCH   2   8
ATOM      8  C   UNL     1       1.090  13.861  20.028  0.00  0.00    +0.000 A 
ATOM      9  C   UNL     1       2.046  13.967  21.055  0.00  0.00    +0.000 A 
ATOM     10  C   UNL     1       3.382  14.236  20.753  0.00  0.00    +0.000 A 
ATOM     11  C   UNL     1       3.760  14.459  19.431  0.00  0.00    +0.000 A 
ATOM     12 CL   UNL     1       5.393  14.860  19.069  0.00  0.00    +0.000 Cl
ATOM     13  C   UNL     1       2.822  14.375  18.404  0.00  0.00    +0.000 A 
ATOM     14  C   UNL     1       1.492  14.060  18.698  0.00  0.00    +0.000 A 
ENDBRANCH   2   8
BRANCH   3  15
ATOM     15  C   UNL     1      -0.097  11.020  20.339  0.00  0.00    +0.000 A 
ATOM     16  C   UNL     1       0.403  10.597  19.103  0.00  0.00    +0.000 A 
ATOM     17  C   UNL     1       1.121   9.405  18.974  0.00  0.00    +0.000 A 
ATOM     18  C   UNL     1       1.428   8.658  20.103  0.00  0.00    +0.000 A 
ATOM     19 CL   UNL     1       2.329   7.202  19.943  0.00  0.00    +0.000 Cl
ATOM     20  C   UNL     1       1.025   9.101  21.359  0.00  0.00    +0.000 A 
ATOM     21  C   UNL     1       0.261  10.272  21.477  0.00  0.00    +0.000 A 
ENDBRANCH   3  15
BRANCH   1  23
ATOM     22  C   UNL     1      -0.204  16.877  21.534  0.00  0.00    +0.000 C 
ATOM     23  C   UNL     1      -0.709  16.127  20.324  0.00  0.00    +0.000 C 
ATOM     24  O   UNL     1      -0.740  16.715  19.242  0.00  0.00    +0.000 OA
ENDBRANCH   1  23
BRANCH   5  25
ATOM     25  C   UNL     1      -4.409  12.853  21.300  0.00  0.00    +0.000 C 
BRANCH  25  26
ATOM     26  C   UNL     1      -5.177  12.164  20.176  0.00  0.00    +0.000 C 
BRANCH  26  27
ATOM     27  O   UNL     1      -4.493  12.311  18.908  0.00  0.00    +0.000 OA
BRANCH  27  28
ATOM     28  C   UNL     1      -4.853  11.415  17.947  0.00  0.00    +0.000 C 
ATOM     29  O   UNL     1      -6.017  11.095  17.717  0.00  0.00    +0.000 OA
BRANCH  28  30
ATOM     30  C   UNL     1      -3.645  10.851  17.201  0.00  0.00    +0.000 C 
ATOM     31  C   UNL     1      -2.447  11.789  17.387  0.00  0.00    +0.000 C 
ATOM     32  C   UNL     1      -3.295   9.470  17.791  0.00  0.00    +0.000 C 
ATOM     33  C   UNL     1      -3.962  10.683  15.711  0.00  0.00    +0.000 C 
ENDBRANCH  28  30
ENDBRANCH  27  28
ENDBRANCH  26  27
ENDBRANCH  25  26
ENDBRANCH   5  25
TORSDOF 8
ENDMDL
MODEL 9
REMARK VINA RESULT:      -5.8      4.452      7.885
REMARK  Name = 
REMARK  12 active torsions:
REMARK  status: ('A' for Active; 'I' for Inactive)
REMARK    1  A    between atoms: C_1  and  C_2
REMARK    2  A    between atoms: C_2  and  C_4
REMARK    3  A    between atoms: C_5  and  C_6
REMARK    4  A    between atoms: C_13  and  C_14
REMARK    5  A    between atoms: N_22  and  C_23
REMARK    6  A    between atoms: C_23  and  C_24
REMARK    7  A    between atoms: C_24  and  O_25
REMARK    8  A    between atoms: O_25  and  C_26
REMARK    9  A    between atoms: C_26  and  C_28
REMARK   10  A    between atoms: C_28  and  C_29
REMARK   11  A    between atoms: C_28  and  C_30
REMARK   12  A    between atoms: C_28  and  C_31
REMARK                            x       y       z     vdW  Elec       q    Type
REMARK                         _______ _______ _______ _____ _____    ______ ____
ROOT
ATOM      1  C   UNL     1      -0.622  12.236  20.002  0.00  0.00    +0.000 A 
ATOM      2  C   UNL     1       0.335  13.194  20.015  0.00  0.00    +0.000 A 
ATOM      3  C   UNL     1       1.615  12.883  19.272  0.00  0.00    +0.000 A 
ATOM      4  N   UNL     1       1.833  11.754  18.665  0.00  0.00    +0.000 NA
ATOM      5  N   UNL     1       0.867  10.790  18.692  0.00  0.00    +0.000 N 
ATOM      6  C   UNL     1      -0.376  10.961  19.265  0.00  0.00    +0.000 A 
ATOM      7  O   UNL     1      -1.256  10.106  19.176  0.00  0.00    +0.000 OA
ENDROOT
BRANCH   2   8
ATOM      8  C   UNL     1       0.094  14.481  20.697  0.00  0.00    +0.000 A 
ATOM      9  C   UNL     1      -0.462  15.565  19.994  0.00  0.00    +0.000 A 
ATOM     10  C   UNL     1      -0.632  16.801  20.621  0.00  0.00    +0.000 A 
ATOM     11  C   UNL     1      -0.194  16.977  21.932  0.00  0.00    +0.000 A 
ATOM     12 CL   UNL     1      -0.340  18.521  22.678  0.00  0.00    +0.000 Cl
ATOM     13  C   UNL     1       0.375  15.918  22.635  0.00  0.00    +0.000 A 
ATOM     14  C   UNL     1       0.505  14.666  22.027  0.00  0.00    +0.000 A 
ENDBRANCH   2   8
BRANCH   3  15
ATOM     15  C   UNL     1       2.724  13.910  19.170  0.00  0.00    +0.000 A 
ATOM     16  C   UNL     1       3.594  14.216  20.222  0.00  0.00    +0.000 A 
ATOM     17  C   UNL     1       4.563  15.216  20.100  0.00  0.00    +0.000 A 
ATOM     18  C   UNL     1       4.733  15.869  18.887  0.00  0.00    +0.000 A 
ATOM     19 CL   UNL     1       5.939  17.087  18.736  0.00  0.00    +0.000 Cl
ATOM     20  C   UNL     1       3.945  15.521  17.795  0.00  0.00    +0.000 A 
ATOM     21  C   UNL     1       2.941  14.552  17.937  0.00  0.00    +0.000 A 
ENDBRANCH   3  15
BRANCH   1  23
ATOM     22  C   UNL     1      -2.073  12.095  22.170  0.00  0.00    +0.000 C 
ATOM     23  C   UNL     1      -1.955  12.415  20.699  0.00  0.00    +0.000 C 
ATOM     24  O   UNL     1      -2.960  12.802  20.101  0.00  0.00    +0.000 OA
ENDBRANCH   1  23
BRANCH   5  25
ATOM     25  C   UNL     1       1.184   9.531  18.016  0.00  0.00    +0.000 C 
BRANCH  25  26
ATOM     26  C   UNL     1       2.006   8.575  18.877  0.00  0.00    +0.000 C 
BRANCH  26  27
ATOM     27  O   UNL     1       2.764   7.653  18.057  0.00  0.00    +0.000 OA
BRANCH  27  28
ATOM     28  C   UNL     1       2.909   6.402  18.574  0.00  0.00    +0.000 C 
ATOM     29  O   UNL     1       2.166   5.928  19.430  0.00  0.00    +0.000 OA
BRANCH  28  30
ATOM     30  C   UNL     1       4.107   5.665  17.975  0.00  0.00    +0.000 C 
ATOM     31  C   UNL     1       5.128   5.368  19.080  0.00  0.00    +0.000 C 
ATOM     32  C   UNL     1       3.622   4.332  17.371  0.00  0.00    +0.000 C 
ATOM     33  C   UNL     1       4.753   6.501  16.864  0.00  0.00    +0.000 C 
ENDBRANCH  28  30
ENDBRANCH  27  28
ENDBRANCH  26  27
ENDBRANCH  25  26
ENDBRANCH   5  25
TORSDOF 8
ENDMDL
