MODEL 1
REMARK VINA RESULT:      -6.0      0.000      0.000
REMARK  Name = 
REMARK  3 active torsions:
REMARK  status: ('A' for Active; 'I' for Inactive)
REMARK    1  A    between atoms: C_1  and  S_2
REMARK    2  A    between atoms: S_2  and  C_3
REMARK    3  A    between atoms: C_8  and  C_10
REMARK                            x       y       z     vdW  Elec       q    Type
REMARK                         _______ _______ _______ _____ _____    ______ ____
ROOT
ATOM      1  C   UNL     1       6.737   5.767  16.477  0.00  0.00    +0.000 C 
ATOM      2  N   UNL     1       7.379   5.540  15.373  0.00  0.00    +0.000 NA
ATOM      3  C   UNL     1       6.705   4.382  14.765  0.00  0.00    +0.000 C 
ATOM      4  C   UNL     1       5.859   3.785  15.866  0.00  0.00    +0.000 C 
ATOM      5  N   UNL     1       5.735   4.857  16.819  0.00  0.00    +0.000 N 
ATOM      6  C   UNL     1       4.785   4.898  17.857  0.00  0.00    +0.000 C 
ATOM      7  O   UNL     1       4.642   5.877  18.588  0.00  0.00    +0.000 OA
ENDROOT
BRANCH   6   8
ATOM      8  C   UNL     1       3.866   3.768  17.984  0.00  0.00    +0.000 A 
ATOM      9  C   UNL     1       2.604   3.590  17.443  0.00  0.00    +0.000 A 
ATOM     10  C   UNL     1       2.176   2.290  17.812  0.00  0.00    +0.000 A 
ATOM     11  C   UNL     1       3.174   1.772  18.600  0.00  0.00    +0.000 A 
ATOM     12  O   UNL     1       4.188   2.664  18.730  0.00  0.00    +0.000 OA
ENDBRANCH   6   8
BRANCH   1  14
ATOM     13  C   UNL     1       7.980   6.278  18.842  0.00  0.00    +0.000 C 
ATOM     14  S   UNL     1       7.136   7.117  17.485  0.00  0.00    +0.000 S 
ENDBRANCH   1  14
TORSDOF 2
ENDMDL
MODEL 2
REMARK VINA RESULT:      -6.0      1.023      1.046
REMARK  Name = 
REMARK  3 active torsions:
REMARK  status: ('A' for Active; 'I' for Inactive)
REMARK    1  A    between atoms: C_1  and  S_2
REMARK    2  A    between atoms: S_2  and  C_3
REMARK    3  A    between atoms: C_8  and  C_10
REMARK                            x       y       z     vdW  Elec       q    Type
REMARK                         _______ _______ _______ _____ _____    ______ ____
ROOT
ATOM      1  C   UNL     1       6.900   5.209  17.269  0.00  0.00    +0.000 C 
ATOM      2  N   UNL     1       7.463   5.014  16.117  0.00  0.00    +0.000 NA
ATOM      3  C   UNL     1       6.459   4.301  15.311  0.00  0.00    +0.000 C 
ATOM      4  C   UNL     1       5.426   3.809  16.300  0.00  0.00    +0.000 C 
ATOM      5  N   UNL     1       5.639   4.639  17.457  0.00  0.00    +0.000 N 
ATOM      6  C   UNL     1       4.726   4.781  18.518  0.00  0.00    +0.000 C 
ATOM      7  O   UNL     1       4.897   5.577  19.440  0.00  0.00    +0.000 OA
ENDROOT
BRANCH   6   8
ATOM      8  C   UNL     1       3.477   4.024  18.448  0.00  0.00    +0.000 A 
ATOM      9  C   UNL     1       2.226   4.421  18.004  0.00  0.00    +0.000 A 
ATOM     10  C   UNL     1       1.382   3.285  18.075  0.00  0.00    +0.000 A 
ATOM     11  C   UNL     1       2.147   2.278  18.609  0.00  0.00    +0.000 A 
ATOM     12  O   UNL     1       3.406   2.718  18.858  0.00  0.00    +0.000 OA
ENDBRANCH   6   8
BRANCH   1  14
ATOM     13  C   UNL     1       7.767   7.742  17.752  0.00  0.00    +0.000 C 
ATOM     14  S   UNL     1       7.697   6.108  18.516  0.00  0.00    +0.000 S 
ENDBRANCH   1  14
TORSDOF 2
ENDMDL
MODEL 3
REMARK VINA RESULT:      -5.9      1.117      1.309
REMARK  Name = 
REMARK  3 active torsions:
REMARK  status: ('A' for Active; 'I' for Inactive)
REMARK    1  A    between atoms: C_1  and  S_2
REMARK    2  A    between atoms: S_2  and  C_3
REMARK    3  A    between atoms: C_8  and  C_10
REMARK                            x       y       z     vdW  Elec       q    Type
REMARK                         _______ _______ _______ _____ _____    ______ ____
ROOT
ATOM      1  C   UNL     1       6.906   5.561  17.065  0.00  0.00    +0.000 C 
ATOM      2  N   UNL     1       7.371   5.577  15.854  0.00  0.00    +0.000 NA
ATOM      3  C   UNL     1       6.406   4.804  15.058  0.00  0.00    +0.000 C 
ATOM      4  C   UNL     1       5.562   4.056  16.065  0.00  0.00    +0.000 C 
ATOM      5  N   UNL     1       5.768   4.784  17.290  0.00  0.00    +0.000 N 
ATOM      6  C   UNL     1       4.956   4.670  18.434  0.00  0.00    +0.000 C 
ATOM      7  O   UNL     1       5.103   5.383  19.425  0.00  0.00    +0.000 OA
ENDROOT
BRANCH   6   8
ATOM      8  C   UNL     1       3.831   3.739  18.381  0.00  0.00    +0.000 A 
ATOM      9  C   UNL     1       3.770   2.403  18.741  0.00  0.00    +0.000 A 
ATOM     10  C   UNL     1       2.427   1.987  18.563  0.00  0.00    +0.000 A 
ATOM     11  C   UNL     1       1.759   3.072  18.054  0.00  0.00    +0.000 A 
ATOM     12  O   UNL     1       2.600   4.128  17.918  0.00  0.00    +0.000 OA
ENDBRANCH   6   8
BRANCH   1  14
ATOM     13  C   UNL     1       7.756   8.088  17.606  0.00  0.00    +0.000 C 
ATOM     14  S   UNL     1       7.686   6.439  18.337  0.00  0.00    +0.000 S 
ENDBRANCH   1  14
TORSDOF 2
ENDMDL
MODEL 4
REMARK VINA RESULT:      -5.8      2.169      2.712
REMARK  Name = 
REMARK  3 active torsions:
REMARK  status: ('A' for Active; 'I' for Inactive)
REMARK    1  A    between atoms: C_1  and  S_2
REMARK    2  A    between atoms: S_2  and  C_3
REMARK    3  A    between atoms: C_8  and  C_10
REMARK                            x       y       z     vdW  Elec       q    Type
REMARK                         _______ _______ _______ _____ _____    ______ ____
ROOT
ATOM      1  C   UNL     1       5.601   5.630  17.758  0.00  0.00    +0.000 C 
ATOM      2  N   UNL     1       5.439   6.766  17.153  0.00  0.00    +0.000 NA
ATOM      3  C   UNL     1       4.034   7.133  17.388  0.00  0.00    +0.000 C 
ATOM      4  C   UNL     1       3.366   5.869  17.879  0.00  0.00    +0.000 C 
ATOM      5  N   UNL     1       4.464   5.054  18.328  0.00  0.00    +0.000 N 
ATOM      6  C   UNL     1       4.335   3.922  19.155  0.00  0.00    +0.000 C 
ATOM      7  O   UNL     1       5.305   3.312  19.601  0.00  0.00    +0.000 OA
ENDROOT
BRANCH   6   8
ATOM      8  C   UNL     1       2.990   3.540  19.579  0.00  0.00    +0.000 A 
ATOM      9  C   UNL     1       2.311   3.843  20.748  0.00  0.00    +0.000 A 
ATOM     10  C   UNL     1       1.012   3.290  20.628  0.00  0.00    +0.000 A 
ATOM     11  C   UNL     1       0.989   2.636  19.421  0.00  0.00    +0.000 A 
ATOM     12  O   UNL     1       2.183   2.761  18.790  0.00  0.00    +0.000 OA
ENDBRANCH   6   8
BRANCH   1  14
ATOM     13  C   UNL     1       7.911   5.761  19.190  0.00  0.00    +0.000 C 
ATOM     14  S   UNL     1       7.151   4.861  17.822  0.00  0.00    +0.000 S 
ENDBRANCH   1  14
TORSDOF 2
ENDMDL
MODEL 5
REMARK VINA RESULT:      -5.7      2.173      3.083
REMARK  Name = 
REMARK  3 active torsions:
REMARK  status: ('A' for Active; 'I' for Inactive)
REMARK    1  A    between atoms: C_1  and  S_2
REMARK    2  A    between atoms: S_2  and  C_3
REMARK    3  A    between atoms: C_8  and  C_10
REMARK                            x       y       z     vdW  Elec       q    Type
REMARK                         _______ _______ _______ _____ _____    ______ ____
ROOT
ATOM      1  C   UNL     1       5.918   4.517  17.324  0.00  0.00    +0.000 C 
ATOM      2  N   UNL     1       6.911   5.282  17.659  0.00  0.00    +0.000 NA
ATOM      3  C   UNL     1       6.722   5.556  19.092  0.00  0.00    +0.000 C 
ATOM      4  C   UNL     1       5.298   5.150  19.394  0.00  0.00    +0.000 C 
ATOM      5  N   UNL     1       4.954   4.274  18.305  0.00  0.00    +0.000 N 
ATOM      6  C   UNL     1       3.854   3.396  18.301  0.00  0.00    +0.000 C 
ATOM      7  O   UNL     1       3.652   2.589  17.394  0.00  0.00    +0.000 OA
ENDROOT
BRANCH   6   8
ATOM      8  C   UNL     1       2.992   3.379  19.480  0.00  0.00    +0.000 A 
ATOM      9  C   UNL     1       1.780   4.013  19.699  0.00  0.00    +0.000 A 
ATOM     10  C   UNL     1       1.326   3.607  20.979  0.00  0.00    +0.000 A 
ATOM     11  C   UNL     1       2.309   2.796  21.490  0.00  0.00    +0.000 A 
ATOM     12  O   UNL     1       3.329   2.670  20.604  0.00  0.00    +0.000 OA
ENDBRANCH   6   8
BRANCH   1  14
ATOM     13  C   UNL     1       7.044   4.839  14.869  0.00  0.00    +0.000 C 
ATOM     14  S   UNL     1       5.788   3.865  15.725  0.00  0.00    +0.000 S 
ENDBRANCH   1  14
TORSDOF 2
ENDMDL
MODEL 6
REMARK VINA RESULT:      -5.7      2.266      3.050
REMARK  Name = 
REMARK  3 active torsions:
REMARK  status: ('A' for Active; 'I' for Inactive)
REMARK    1  A    between atoms: C_1  and  S_2
REMARK    2  A    between atoms: S_2  and  C_3
REMARK    3  A    between atoms: C_8  and  C_10
REMARK                            x       y       z     vdW  Elec       q    Type
REMARK                         _______ _______ _______ _____ _____    ______ ____
ROOT
ATOM      1  C   UNL     1       6.368   4.496  16.828  0.00  0.00    +0.000 C 
ATOM      2  N   UNL     1       7.581   4.840  17.138  0.00  0.00    +0.000 NA
ATOM      3  C   UNL     1       7.526   5.209  18.561  0.00  0.00    +0.000 C 
ATOM      4  C   UNL     1       6.058   5.380  18.876  0.00  0.00    +0.000 C 
ATOM      5  N   UNL     1       5.396   4.664  17.816  0.00  0.00    +0.000 N 
ATOM      6  C   UNL     1       4.046   4.266  17.841  0.00  0.00    +0.000 C 
ATOM      7  O   UNL     1       3.544   3.568  16.962  0.00  0.00    +0.000 OA
ENDROOT
BRANCH   6   8
ATOM      8  C   UNL     1       3.256   4.613  19.021  0.00  0.00    +0.000 A 
ATOM      9  C   UNL     1       2.473   5.729  19.264  0.00  0.00    +0.000 A 
ATOM     10  C   UNL     1       1.862   5.538  20.529  0.00  0.00    +0.000 A 
ATOM     11  C   UNL     1       2.348   4.347  21.008  0.00  0.00    +0.000 A 
ATOM     12  O   UNL     1       3.206   3.790  20.117  0.00  0.00    +0.000 OA
ENDBRANCH   6   8
BRANCH   1  14
ATOM     13  C   UNL     1       7.064   4.916  14.232  0.00  0.00    +0.000 C 
ATOM     14  S   UNL     1       5.983   3.892  15.252  0.00  0.00    +0.000 S 
ENDBRANCH   1  14
TORSDOF 2
ENDMDL
MODEL 7
REMARK VINA RESULT:      -5.6      3.215      5.223
REMARK  Name = 
REMARK  3 active torsions:
REMARK  status: ('A' for Active; 'I' for Inactive)
REMARK    1  A    between atoms: C_1  and  S_2
REMARK    2  A    between atoms: S_2  and  C_3
REMARK    3  A    between atoms: C_8  and  C_10
REMARK                            x       y       z     vdW  Elec       q    Type
REMARK                         _______ _______ _______ _____ _____    ______ ____
ROOT
ATOM      1  C   UNL     1       2.553   4.887  20.441  0.00  0.00    +0.000 C 
ATOM      2  N   UNL     1       1.860   5.982  20.499  0.00  0.00    +0.000 NA
ATOM      3  C   UNL     1       2.421   6.851  19.453  0.00  0.00    +0.000 C 
ATOM      4  C   UNL     1       3.746   6.226  19.080  0.00  0.00    +0.000 C 
ATOM      5  N   UNL     1       3.630   4.871  19.552  0.00  0.00    +0.000 N 
ATOM      6  C   UNL     1       4.472   3.813  19.162  0.00  0.00    +0.000 C 
ATOM      7  O   UNL     1       4.278   2.649  19.507  0.00  0.00    +0.000 OA
ENDROOT
BRANCH   6   8
ATOM      8  C   UNL     1       5.548   4.112  18.220  0.00  0.00    +0.000 A 
ATOM      9  C   UNL     1       5.530   4.139  16.835  0.00  0.00    +0.000 A 
ATOM     10  C   UNL     1       6.815   4.558  16.412  0.00  0.00    +0.000 A 
ATOM     11  C   UNL     1       7.560   4.709  17.555  0.00  0.00    +0.000 A 
ATOM     12  O   UNL     1       6.813   4.421  18.651  0.00  0.00    +0.000 OA
ENDBRANCH   6   8
BRANCH   1  14
ATOM     13  C   UNL     1       0.972   2.674  20.403  0.00  0.00    +0.000 C 
ATOM     14  S   UNL     1       2.171   3.530  21.446  0.00  0.00    +0.000 S 
ENDBRANCH   1  14
TORSDOF 2
ENDMDL
MODEL 8
REMARK VINA RESULT:      -5.6      2.169      2.947
REMARK  Name = 
REMARK  3 active torsions:
REMARK  status: ('A' for Active; 'I' for Inactive)
REMARK    1  A    between atoms: C_1  and  S_2
REMARK    2  A    between atoms: S_2  and  C_3
REMARK    3  A    between atoms: C_8  and  C_10
REMARK                            x       y       z     vdW  Elec       q    Type
REMARK                         _______ _______ _______ _____ _____    ______ ____
ROOT
ATOM      1  C   UNL     1       5.464   5.777  17.684  0.00  0.00    +0.000 C 
ATOM      2  N   UNL     1       5.225   6.913  17.105  0.00  0.00    +0.000 NA
ATOM      3  C   UNL     1       3.846   7.259  17.485  0.00  0.00    +0.000 C 
ATOM      4  C   UNL     1       3.249   5.984  18.035  0.00  0.00    +0.000 C 
ATOM      5  N   UNL     1       4.399   5.182  18.364  0.00  0.00    +0.000 N 
ATOM      6  C   UNL     1       4.371   4.046  19.194  0.00  0.00    +0.000 C 
ATOM      7  O   UNL     1       5.390   3.448  19.535  0.00  0.00    +0.000 OA
ENDROOT
BRANCH   6   8
ATOM      8  C   UNL     1       3.082   3.642  19.752  0.00  0.00    +0.000 A 
ATOM      9  C   UNL     1       2.114   2.804  19.225  0.00  0.00    +0.000 A 
ATOM     10  C   UNL     1       1.092   2.687  20.201  0.00  0.00    +0.000 A 
ATOM     11  C   UNL     1       1.467   3.502  21.240  0.00  0.00    +0.000 A 
ATOM     12  O   UNL     1       2.654   4.100  20.972  0.00  0.00    +0.000 OA
ENDBRANCH   6   8
BRANCH   1  14
ATOM     13  C   UNL     1       7.033   4.517  15.853  0.00  0.00    +0.000 C 
ATOM     14  S   UNL     1       7.023   5.030  17.584  0.00  0.00    +0.000 S 
ENDBRANCH   1  14
TORSDOF 2
ENDMDL
MODEL 9
REMARK VINA RESULT:      -5.5      2.249      3.222
REMARK  Name = 
REMARK  3 active torsions:
REMARK  status: ('A' for Active; 'I' for Inactive)
REMARK    1  A    between atoms: C_1  and  S_2
REMARK    2  A    between atoms: S_2  and  C_3
REMARK    3  A    between atoms: C_8  and  C_10
REMARK                            x       y       z     vdW  Elec       q    Type
REMARK                         _______ _______ _______ _____ _____    ______ ____
ROOT
ATOM      1  C   UNL     1       5.900   4.605  17.232  0.00  0.00    +0.000 C 
ATOM      2  N   UNL     1       6.933   5.326  17.544  0.00  0.00    +0.000 NA
ATOM      3  C   UNL     1       6.812   5.569  18.991  0.00  0.00    +0.000 C 
ATOM      4  C   UNL     1       5.388   5.203  19.342  0.00  0.00    +0.000 C 
ATOM      5  N   UNL     1       4.970   4.368  18.246  0.00  0.00    +0.000 N 
ATOM      6  C   UNL     1       3.841   3.528  18.266  0.00  0.00    +0.000 C 
ATOM      7  O   UNL     1       3.574   2.753  17.349  0.00  0.00    +0.000 OA
ENDROOT
BRANCH   6   8
ATOM      8  C   UNL     1       3.028   3.509  19.480  0.00  0.00    +0.000 A 
ATOM      9  C   UNL     1       3.140   2.713  20.608  0.00  0.00    +0.000 A 
ATOM     10  C   UNL     1       2.151   3.150  21.524  0.00  0.00    +0.000 A 
ATOM     11  C   UNL     1       1.457   4.147  20.884  0.00  0.00    +0.000 A 
ATOM     12  O   UNL     1       1.963   4.357  19.643  0.00  0.00    +0.000 OA
ENDBRANCH   6   8
BRANCH   1  14
ATOM     13  C   UNL     1       7.037   4.834  14.771  0.00  0.00    +0.000 C 
ATOM     14  S   UNL     1       5.682   4.000  15.625  0.00  0.00    +0.000 S 
ENDBRANCH   1  14
TORSDOF 2
ENDMDL
