MODEL 1
REMARK VINA RESULT:      -6.0      0.000      0.000
REMARK  Name = 
REMARK  17 active torsions:
REMARK  status: ('A' for Active; 'I' for Inactive)
REMARK    1  A    between atoms: C_1  and  C_2
REMARK    2  A    between atoms: C_2  and  C_3
REMARK    3  A    between atoms: C_2  and  C_4
REMARK    4  A    between atoms: C_4  and  C_5
REMARK    5  A    between atoms: C_5  and  C_6
REMARK    6  A    between atoms: C_5  and  C_19
REMARK    7  A    between atoms: C_7  and  O_8
REMARK    8  A    between atoms: C_9  and  C_10
REMARK    9  A    between atoms: C_12  and  O_13
REMARK   10  A    between atoms: C_14  and  C_15
REMARK   11  A    between atoms: C_17  and  O_18
REMARK   12  A    between atoms: C_22  and  C_23
REMARK   13  A    between atoms: C_26  and  C_27
REMARK   14  A    between atoms: C_27  and  C_28
REMARK   15  A    between atoms: C_27  and  C_29
REMARK   16  A    between atoms: C_27  and  O_30
REMARK   17  A    between atoms: C_33  and  C_34
REMARK                            x       y       z     vdW  Elec       q    Type
REMARK                         _______ _______ _______ _____ _____    ______ ____
ROOT
ATOM      1  C   UNL     1      -1.237  12.299  19.846  0.00  0.00    +0.000 C 
ENDROOT
BRANCH   1   2
ATOM      2  C   UNL     1      -0.384  13.468  19.168  0.00  0.00    +0.000 C 
ATOM      3  C   UNL     1       0.929  12.979  18.517  0.00  0.00    +0.000 C 
ATOM      4  C   UNL     1       2.090  12.802  19.493  0.00  0.00    +0.000 C 
ATOM      5  C   UNL     1       2.369  14.024  20.386  0.00  0.00    +0.000 C 
ATOM      6  C   UNL     1       3.303  14.989  19.642  0.00  0.00    +0.000 C 
ATOM      7  C   UNL     1       1.101  14.683  20.942  0.00  0.00    +0.000 C 
ATOM      8  C   UNL     1       1.049  15.152  22.216  0.00  0.00    +0.000 C 
ATOM      9  C   UNL     1      -0.183  15.793  22.865  0.00  0.00    +0.000 C 
ATOM     10  C   UNL     1      -1.107  16.345  21.772  0.00  0.00    +0.000 C 
ATOM     11  C   UNL     1      -1.386  15.249  20.751  0.00  0.00    +0.000 C 
ATOM     12  C   UNL     1      -0.109  14.801  19.993  0.00  0.00    +0.000 C 
ATOM     13  C   UNL     1       0.220  15.968  19.005  0.00  0.00    +0.000 C 
BRANCH   9  14
ATOM     14  C   UNL     1       0.040  16.828  24.027  0.00  0.00    +0.000 C 
ATOM     15  C   UNL     1       1.374  17.576  23.976  0.00  0.00    +0.000 C 
ATOM     16  C   UNL     1      -1.109  17.860  24.062  0.00  0.00    +0.000 C 
BRANCH  14  17
ATOM     17  O   UNL     1      -0.013  16.113  25.272  0.00  0.00    +0.000 OA
ATOM     18  H   UNL     1      -0.649  15.380  25.169  0.00  0.00    +0.000 HD
ENDBRANCH  14  17
ENDBRANCH   9  14
ENDBRANCH   1   2
BRANCH   1  19
ATOM     19  C   UNL     1      -2.583  12.068  19.103  0.00  0.00    +0.000 A 
ATOM     20  C   UNL     1      -2.702  11.608  17.772  0.00  0.00    +0.000 A 
ATOM     21  C   UNL     1      -3.956  11.325  17.193  0.00  0.00    +0.000 A 
ATOM     22  C   UNL     1      -5.136  11.511  17.926  0.00  0.00    +0.000 A 
ATOM     23  C   UNL     1      -5.055  11.985  19.230  0.00  0.00    +0.000 A 
ATOM     24  C   UNL     1      -3.798  12.267  19.811  0.00  0.00    +0.000 A 
BRANCH  20  25
ATOM     25  O   UNL     1      -1.620  11.392  16.963  0.00  0.00    +0.000 OA
ATOM     26  H   UNL     1      -1.526  12.134  16.346  0.00  0.00    +0.000 HD
ENDBRANCH  20  25
BRANCH  21  27
ATOM     27  C   UNL     1      -4.016  10.832  15.800  0.00  0.00    +0.000 C 
ATOM     28  O   UNL     1      -3.342   9.865  15.453  0.00  0.00    +0.000 OA
ENDBRANCH  21  27
BRANCH  22  29
ATOM     29  O   UNL     1      -6.370  11.243  17.392  0.00  0.00    +0.000 OA
ATOM     30  H   UNL     1      -6.787  10.511  17.910  0.00  0.00    +0.000 HD
ENDBRANCH  22  29
BRANCH  23  31
ATOM     31  C   UNL     1      -6.310  12.177  19.995  0.00  0.00    +0.000 C 
ATOM     32  O   UNL     1      -6.443  11.679  21.108  0.00  0.00    +0.000 OA
ENDBRANCH  23  31
BRANCH  24  33
ATOM     33  O   UNL     1      -3.715  12.741  21.101  0.00  0.00    +0.000 OA
ATOM     34  H   UNL     1      -3.029  13.449  21.140  0.00  0.00    +0.000 HD
ENDBRANCH  24  33
ENDBRANCH   1  19
BRANCH   1  35
ATOM     35  C   UNL     1      -0.469  11.005  20.252  0.00  0.00    +0.000 C 
BRANCH  35  37
ATOM     36  C   UNL     1      -0.817  11.917  22.582  0.00  0.00    +0.000 C 
ATOM     37  C   UNL     1      -0.052  10.887  21.741  0.00  0.00    +0.000 C 
ATOM     38  C   UNL     1      -0.275   9.482  22.291  0.00  0.00    +0.000 C 
ENDBRANCH  35  37
ENDBRANCH   1  35
TORSDOF 11
ENDMDL
MODEL 2
REMARK VINA RESULT:      -5.8      0.513      2.569
REMARK  Name = 
REMARK  17 active torsions:
REMARK  status: ('A' for Active; 'I' for Inactive)
REMARK    1  A    between atoms: C_1  and  C_2
REMARK    2  A    between atoms: C_2  and  C_3
REMARK    3  A    between atoms: C_2  and  C_4
REMARK    4  A    between atoms: C_4  and  C_5
REMARK    5  A    between atoms: C_5  and  C_6
REMARK    6  A    between atoms: C_5  and  C_19
REMARK    7  A    between atoms: C_7  and  O_8
REMARK    8  A    between atoms: C_9  and  C_10
REMARK    9  A    between atoms: C_12  and  O_13
REMARK   10  A    between atoms: C_14  and  C_15
REMARK   11  A    between atoms: C_17  and  O_18
REMARK   12  A    between atoms: C_22  and  C_23
REMARK   13  A    between atoms: C_26  and  C_27
REMARK   14  A    between atoms: C_27  and  C_28
REMARK   15  A    between atoms: C_27  and  C_29
REMARK   16  A    between atoms: C_27  and  O_30
REMARK   17  A    between atoms: C_33  and  C_34
REMARK                            x       y       z     vdW  Elec       q    Type
REMARK                         _______ _______ _______ _____ _____    ______ ____
ROOT
ATOM      1  C   UNL     1      -1.100  12.178  19.764  0.00  0.00    +0.000 C 
ENDROOT
BRANCH   1   2
ATOM      2  C   UNL     1      -0.382  13.457  19.128  0.00  0.00    +0.000 C 
ATOM      3  C   UNL     1       0.960  13.133  18.436  0.00  0.00    +0.000 C 
ATOM      4  C   UNL     1       2.152  13.031  19.385  0.00  0.00    +0.000 C 
ATOM      5  C   UNL     1       2.325  14.233  20.330  0.00  0.00    +0.000 C 
ATOM      6  C   UNL     1       3.142  15.321  19.617  0.00  0.00    +0.000 C 
ATOM      7  C   UNL     1       1.007  14.736  20.935  0.00  0.00    +0.000 C 
ATOM      8  C   UNL     1       0.934  15.139  22.230  0.00  0.00    +0.000 C 
ATOM      9  C   UNL     1      -0.343  15.622  22.926  0.00  0.00    +0.000 C 
ATOM     10  C   UNL     1      -1.340  16.126  21.874  0.00  0.00    +0.000 C 
ATOM     11  C   UNL     1      -1.527  15.054  20.808  0.00  0.00    +0.000 C 
ATOM     12  C   UNL     1      -0.227  14.773  20.011  0.00  0.00    +0.000 C 
ATOM     13  C   UNL     1      -0.036  16.010  19.073  0.00  0.00    +0.000 C 
BRANCH   9  14
ATOM     14  C   UNL     1      -0.203  16.621  24.132  0.00  0.00    +0.000 C 
ATOM     15  C   UNL     1      -0.727  18.033  23.861  0.00  0.00    +0.000 C 
ATOM     16  C   UNL     1      -0.909  16.060  25.386  0.00  0.00    +0.000 C 
BRANCH  14  17
ATOM     17  O   UNL     1       1.192  16.727  24.459  0.00  0.00    +0.000 OA
ATOM     18  H   UNL     1       1.442  15.930  24.964  0.00  0.00    +0.000 HD
ENDBRANCH  14  17
ENDBRANCH   9  14
ENDBRANCH   1   2
BRANCH   1  19
ATOM     19  C   UNL     1      -2.504  11.940  19.139  0.00  0.00    +0.000 A 
ATOM     20  C   UNL     1      -3.731  12.166  19.803  0.00  0.00    +0.000 A 
ATOM     21  C   UNL     1      -4.969  12.024  19.143  0.00  0.00    +0.000 A 
ATOM     22  C   UNL     1      -5.017  11.633  17.798  0.00  0.00    +0.000 A 
ATOM     23  C   UNL     1      -3.829  11.379  17.124  0.00  0.00    +0.000 A 
ATOM     24  C   UNL     1      -2.589  11.524  17.784  0.00  0.00    +0.000 A 
BRANCH  20  25
ATOM     25  O   UNL     1      -3.806  12.549  21.114  0.00  0.00    +0.000 OA
ATOM     26  H   UNL     1      -2.955  12.382  21.547  0.00  0.00    +0.000 HD
ENDBRANCH  20  25
BRANCH  21  27
ATOM     27  C   UNL     1      -6.220  12.289  19.886  0.00  0.00    +0.000 C 
ATOM     28  O   UNL     1      -6.510  11.619  20.874  0.00  0.00    +0.000 OA
ENDBRANCH  21  27
BRANCH  22  29
ATOM     29  O   UNL     1      -6.205  11.489  17.129  0.00  0.00    +0.000 OA
ATOM     30  H   UNL     1      -6.236  12.147  16.391  0.00  0.00    +0.000 HD
ENDBRANCH  22  29
BRANCH  23  31
ATOM     31  C   UNL     1      -3.894  10.968  15.702  0.00  0.00    +0.000 C 
ATOM     32  O   UNL     1      -3.052  10.206  15.235  0.00  0.00    +0.000 OA
ENDBRANCH  23  31
BRANCH  24  33
ATOM     33  O   UNL     1      -1.409  11.269  17.120  0.00  0.00    +0.000 OA
ATOM     34  H   UNL     1      -1.248  11.988  16.464  0.00  0.00    +0.000 HD
ENDBRANCH  24  33
ENDBRANCH   1  19
BRANCH   1  35
ATOM     35  C   UNL     1      -0.230  10.900  19.956  0.00  0.00    +0.000 C 
BRANCH  35  37
ATOM     36  C   UNL     1      -0.588  11.456  22.394  0.00  0.00    +0.000 C 
ATOM     37  C   UNL     1       0.150  10.534  21.415  0.00  0.00    +0.000 C 
ATOM     38  C   UNL     1      -0.145   9.073  21.737  0.00  0.00    +0.000 C 
ENDBRANCH  35  37
ENDBRANCH   1  35
TORSDOF 11
ENDMDL
MODEL 3
REMARK VINA RESULT:      -5.8      1.313      1.555
REMARK  Name = 
REMARK  17 active torsions:
REMARK  status: ('A' for Active; 'I' for Inactive)
REMARK    1  A    between atoms: C_1  and  C_2
REMARK    2  A    between atoms: C_2  and  C_3
REMARK    3  A    between atoms: C_2  and  C_4
REMARK    4  A    between atoms: C_4  and  C_5
REMARK    5  A    between atoms: C_5  and  C_6
REMARK    6  A    between atoms: C_5  and  C_19
REMARK    7  A    between atoms: C_7  and  O_8
REMARK    8  A    between atoms: C_9  and  C_10
REMARK    9  A    between atoms: C_12  and  O_13
REMARK   10  A    between atoms: C_14  and  C_15
REMARK   11  A    between atoms: C_17  and  O_18
REMARK   12  A    between atoms: C_22  and  C_23
REMARK   13  A    between atoms: C_26  and  C_27
REMARK   14  A    between atoms: C_27  and  C_28
REMARK   15  A    between atoms: C_27  and  C_29
REMARK   16  A    between atoms: C_27  and  O_30
REMARK   17  A    between atoms: C_33  and  C_34
REMARK                            x       y       z     vdW  Elec       q    Type
REMARK                         _______ _______ _______ _____ _____    ______ ____
ROOT
ATOM      1  C   UNL     1      -1.502  12.700  20.435  0.00  0.00    +0.000 C 
ENDROOT
BRANCH   1   2
ATOM      2  C   UNL     1      -0.701  14.028  20.049  0.00  0.00    +0.000 C 
ATOM      3  C   UNL     1       0.777  13.774  19.677  0.00  0.00    +0.000 C 
ATOM      4  C   UNL     1       1.716  13.648  20.875  0.00  0.00    +0.000 C 
ATOM      5  C   UNL     1       1.620  14.800  21.890  0.00  0.00    +0.000 C 
ATOM      6  C   UNL     1       2.542  15.944  21.443  0.00  0.00    +0.000 C 
ATOM      7  C   UNL     1       0.181  15.238  22.191  0.00  0.00    +0.000 C 
ATOM      8  C   UNL     1      -0.208  15.567  23.450  0.00  0.00    +0.000 C 
ATOM      9  C   UNL     1      -1.629  15.982  23.848  0.00  0.00    +0.000 C 
ATOM     10  C   UNL     1      -2.369  16.520  22.616  0.00  0.00    +0.000 C 
ATOM     11  C   UNL     1      -2.263  15.504  21.486  0.00  0.00    +0.000 C 
ATOM     12  C   UNL     1      -0.803  15.297  21.005  0.00  0.00    +0.000 C 
ATOM     13  C   UNL     1      -0.442  16.588  20.199  0.00  0.00    +0.000 C 
BRANCH   9  14
ATOM     14  C   UNL     1      -1.811  16.916  25.099  0.00  0.00    +0.000 C 
ATOM     15  C   UNL     1      -1.185  16.388  26.392  0.00  0.00    +0.000 C 
ATOM     16  C   UNL     1      -1.246  18.325  24.812  0.00  0.00    +0.000 C 
BRANCH  14  17
ATOM     17  O   UNL     1      -3.219  17.078  25.330  0.00  0.00    +0.000 OA
ATOM     18  H   UNL     1      -3.593  16.198  25.529  0.00  0.00    +0.000 HD
ENDBRANCH  14  17
ENDBRANCH   9  14
ENDBRANCH   1   2
BRANCH   1  19
ATOM     19  C   UNL     1      -2.503  12.290  19.319  0.00  0.00    +0.000 A 
ATOM     20  C   UNL     1      -2.137  11.744  18.067  0.00  0.00    +0.000 A 
ATOM     21  C   UNL     1      -3.102  11.302  17.140  0.00  0.00    +0.000 A 
ATOM     22  C   UNL     1      -4.469  11.408  17.430  0.00  0.00    +0.000 A 
ATOM     23  C   UNL     1      -4.862  11.963  18.641  0.00  0.00    +0.000 A 
ATOM     24  C   UNL     1      -3.895  12.404  19.572  0.00  0.00    +0.000 A 
BRANCH  20  25
ATOM     25  O   UNL     1      -0.835  11.593  17.676  0.00  0.00    +0.000 OA
ATOM     26  H   UNL     1      -0.271  12.186  18.196  0.00  0.00    +0.000 HD
ENDBRANCH  20  25
BRANCH  21  27
ATOM     27  C   UNL     1      -2.658  10.725  15.852  0.00  0.00    +0.000 C 
ATOM     28  O   UNL     1      -3.243  11.007  14.810  0.00  0.00    +0.000 OA
ENDBRANCH  21  27
BRANCH  22  29
ATOM     29  O   UNL     1      -5.431  10.985  16.549  0.00  0.00    +0.000 OA
ATOM     30  H   UNL     1      -5.607  11.709  15.900  0.00  0.00    +0.000 HD
ENDBRANCH  22  29
BRANCH  23  31
ATOM     31  C   UNL     1      -6.311  12.070  18.937  0.00  0.00    +0.000 C 
ATOM     32  O   UNL     1      -6.995  11.060  19.072  0.00  0.00    +0.000 OA
ENDBRANCH  23  31
BRANCH  24  33
ATOM     33  O   UNL     1      -4.282  12.959  20.772  0.00  0.00    +0.000 OA
ATOM     34  H   UNL     1      -3.514  12.954  21.391  0.00  0.00    +0.000 HD
ENDBRANCH  24  33
ENDBRANCH   1  19
BRANCH   1  35
ATOM     35  C   UNL     1      -0.679  11.531  21.055  0.00  0.00    +0.000 C 
BRANCH  35  37
ATOM     36  C   UNL     1      -1.993  12.014  23.157  0.00  0.00    +0.000 C 
ATOM     37  C   UNL     1      -0.692  11.419  22.602  0.00  0.00    +0.000 C 
ATOM     38  C   UNL     1      -0.521   9.980  23.075  0.00  0.00    +0.000 C 
ENDBRANCH  35  37
ENDBRANCH   1  35
TORSDOF 11
ENDMDL
MODEL 4
REMARK VINA RESULT:      -5.8      2.924      6.058
REMARK  Name = 
REMARK  17 active torsions:
REMARK  status: ('A' for Active; 'I' for Inactive)
REMARK    1  A    between atoms: C_1  and  C_2
REMARK    2  A    between atoms: C_2  and  C_3
REMARK    3  A    between atoms: C_2  and  C_4
REMARK    4  A    between atoms: C_4  and  C_5
REMARK    5  A    between atoms: C_5  and  C_6
REMARK    6  A    between atoms: C_5  and  C_19
REMARK    7  A    between atoms: C_7  and  O_8
REMARK    8  A    between atoms: C_9  and  C_10
REMARK    9  A    between atoms: C_12  and  O_13
REMARK   10  A    between atoms: C_14  and  C_15
REMARK   11  A    between atoms: C_17  and  O_18
REMARK   12  A    between atoms: C_22  and  C_23
REMARK   13  A    between atoms: C_26  and  C_27
REMARK   14  A    between atoms: C_27  and  C_28
REMARK   15  A    between atoms: C_27  and  C_29
REMARK   16  A    between atoms: C_27  and  O_30
REMARK   17  A    between atoms: C_33  and  C_34
REMARK                            x       y       z     vdW  Elec       q    Type
REMARK                         _______ _______ _______ _____ _____    ______ ____
ROOT
ATOM      1  C   UNL     1       0.122  12.686  19.053  0.00  0.00    +0.000 C 
ENDROOT
BRANCH   1   2
ATOM      2  C   UNL     1       0.171  13.883  20.111  0.00  0.00    +0.000 C 
ATOM      3  C   UNL     1      -0.928  14.947  19.894  0.00  0.00    +0.000 C 
ATOM      4  C   UNL     1      -0.601  15.983  18.821  0.00  0.00    +0.000 C 
ATOM      5  C   UNL     1       0.767  16.668  18.986  0.00  0.00    +0.000 C 
ATOM      6  C   UNL     1       0.618  17.870  19.929  0.00  0.00    +0.000 C 
ATOM      7  C   UNL     1       1.895  15.703  19.374  0.00  0.00    +0.000 C 
ATOM      8  C   UNL     1       3.139  15.822  18.842  0.00  0.00    +0.000 C 
ATOM      9  C   UNL     1       4.315  14.887  19.145  0.00  0.00    +0.000 C 
ATOM     10  C   UNL     1       4.087  14.200  20.498  0.00  0.00    +0.000 C 
ATOM     11  C   UNL     1       2.705  13.558  20.506  0.00  0.00    +0.000 C 
ATOM     12  C   UNL     1       1.562  14.601  20.400  0.00  0.00    +0.000 C 
ATOM     13  C   UNL     1       1.507  15.303  21.796  0.00  0.00    +0.000 C 
BRANCH   9  14
ATOM     14  C   UNL     1       5.775  15.456  19.011  0.00  0.00    +0.000 C 
ATOM     15  C   UNL     1       6.583  14.886  17.843  0.00  0.00    +0.000 C 
ATOM     16  C   UNL     1       5.748  16.996  18.895  0.00  0.00    +0.000 C 
BRANCH  14  17
ATOM     17  O   UNL     1       6.482  15.147  20.223  0.00  0.00    +0.000 OA
ATOM     18  H   UNL     1       6.659  15.987  20.688  0.00  0.00    +0.000 HD
ENDBRANCH  14  17
ENDBRANCH   9  14
ENDBRANCH   1   2
BRANCH   1  19
ATOM     19  C   UNL     1       0.469  11.323  19.714  0.00  0.00    +0.000 A 
ATOM     20  C   UNL     1       0.064  10.928  21.010  0.00  0.00    +0.000 A 
ATOM     21  C   UNL     1       0.329   9.637  21.510  0.00  0.00    +0.000 A 
ATOM     22  C   UNL     1       1.025   8.702  20.732  0.00  0.00    +0.000 A 
ATOM     23  C   UNL     1       1.459   9.067  19.463  0.00  0.00    +0.000 A 
ATOM     24  C   UNL     1       1.191  10.360  18.961  0.00  0.00    +0.000 A 
BRANCH  20  25
ATOM     25  O   UNL     1      -0.621  11.756  21.857  0.00  0.00    +0.000 OA
ATOM     26  H   UNL     1      -0.022  12.441  22.191  0.00  0.00    +0.000 HD
ENDBRANCH  20  25
BRANCH  21  27
ATOM     27  C   UNL     1      -0.133   9.277  22.867  0.00  0.00    +0.000 C 
ATOM     28  O   UNL     1       0.425   9.741  23.858  0.00  0.00    +0.000 OA
ENDBRANCH  21  27
BRANCH  22  29
ATOM     29  O   UNL     1       1.297   7.438  21.189  0.00  0.00    +0.000 OA
ATOM     30  H   UNL     1       2.255   7.246  21.039  0.00  0.00    +0.000 HD
ENDBRANCH  22  29
BRANCH  23  31
ATOM     31  C   UNL     1       2.194   8.070  18.650  0.00  0.00    +0.000 C 
ATOM     32  O   UNL     1       3.074   8.427  17.872  0.00  0.00    +0.000 OA
ENDBRANCH  23  31
BRANCH  24  33
ATOM     33  O   UNL     1       1.624  10.726  17.705  0.00  0.00    +0.000 OA
ATOM     34  H   UNL     1       0.965  10.421  17.037  0.00  0.00    +0.000 HD
ENDBRANCH  24  33
ENDBRANCH   1  19
BRANCH   1  35
ATOM     35  C   UNL     1      -1.084  12.661  18.066  0.00  0.00    +0.000 C 
BRANCH  35  37
ATOM     36  C   UNL     1      -3.270  11.960  19.119  0.00  0.00    +0.000 C 
ATOM     37  C   UNL     1      -2.098  11.501  18.241  0.00  0.00    +0.000 C 
ATOM     38  C   UNL     1      -2.610  10.979  16.903  0.00  0.00    +0.000 C 
ENDBRANCH  35  37
ENDBRANCH   1  35
TORSDOF 11
ENDMDL
MODEL 5
REMARK VINA RESULT:      -5.5      3.002      5.559
REMARK  Name = 
REMARK  17 active torsions:
REMARK  status: ('A' for Active; 'I' for Inactive)
REMARK    1  A    between atoms: C_1  and  C_2
REMARK    2  A    between atoms: C_2  and  C_3
REMARK    3  A    between atoms: C_2  and  C_4
REMARK    4  A    between atoms: C_4  and  C_5
REMARK    5  A    between atoms: C_5  and  C_6
REMARK    6  A    between atoms: C_5  and  C_19
REMARK    7  A    between atoms: C_7  and  O_8
REMARK    8  A    between atoms: C_9  and  C_10
REMARK    9  A    between atoms: C_12  and  O_13
REMARK   10  A    between atoms: C_14  and  C_15
REMARK   11  A    between atoms: C_17  and  O_18
REMARK   12  A    between atoms: C_22  and  C_23
REMARK   13  A    between atoms: C_26  and  C_27
REMARK   14  A    between atoms: C_27  and  C_28
REMARK   15  A    between atoms: C_27  and  C_29
REMARK   16  A    between atoms: C_27  and  O_30
REMARK   17  A    between atoms: C_33  and  C_34
REMARK                            x       y       z     vdW  Elec       q    Type
REMARK                         _______ _______ _______ _____ _____    ______ ____
ROOT
ATOM      1  C   UNL     1      -0.026  12.459  18.985  0.00  0.00    +0.000 C 
ENDROOT
BRANCH   1   2
ATOM      2  C   UNL     1      -0.017  13.536  20.167  0.00  0.00    +0.000 C 
ATOM      3  C   UNL     1      -1.214  14.512  20.124  0.00  0.00    +0.000 C 
ATOM      4  C   UNL     1      -1.039  15.683  19.160  0.00  0.00    +0.000 C 
ATOM      5  C   UNL     1       0.273  16.467  19.334  0.00  0.00    +0.000 C 
ATOM      6  C   UNL     1       0.078  17.543  20.412  0.00  0.00    +0.000 C 
ATOM      7  C   UNL     1       1.500  15.574  19.556  0.00  0.00    +0.000 C 
ATOM      8  C   UNL     1       2.697  15.862  18.981  0.00  0.00    +0.000 C 
ATOM      9  C   UNL     1       3.963  15.010  19.120  0.00  0.00    +0.000 C 
ATOM     10  C   UNL     1       3.873  14.164  20.397  0.00  0.00    +0.000 C 
ATOM     11  C   UNL     1       2.554  13.401  20.400  0.00  0.00    +0.000 C 
ATOM     12  C   UNL     1       1.322  14.342  20.467  0.00  0.00    +0.000 C 
ATOM     13  C   UNL     1       1.289  14.882  21.934  0.00  0.00    +0.000 C 
BRANCH   9  14
ATOM     14  C   UNL     1       5.359  15.720  18.981  0.00  0.00    +0.000 C 
ATOM     15  C   UNL     1       6.188  15.767  20.267  0.00  0.00    +0.000 C 
ATOM     16  C   UNL     1       6.200  15.052  17.870  0.00  0.00    +0.000 C 
BRANCH  14  17
ATOM     17  O   UNL     1       5.126  17.074  18.561  0.00  0.00    +0.000 OA
ATOM     18  H   UNL     1       5.157  17.094  17.586  0.00  0.00    +0.000 HD
ENDBRANCH  14  17
ENDBRANCH   9  14
ENDBRANCH   1   2
BRANCH   1  19
ATOM     19  C   UNL     1       0.398  11.052  19.489  0.00  0.00    +0.000 A 
ATOM     20  C   UNL     1       1.200  10.142  18.763  0.00  0.00    +0.000 A 
ATOM     21  C   UNL     1       1.630   8.921  19.322  0.00  0.00    +0.000 A 
ATOM     22  C   UNL     1       1.254   8.563  20.624  0.00  0.00    +0.000 A 
ATOM     23  C   UNL     1       0.445   9.424  21.355  0.00  0.00    +0.000 A 
ATOM     24  C   UNL     1       0.017  10.649  20.796  0.00  0.00    +0.000 A 
BRANCH  20  25
ATOM     25  O   UNL     1       1.625  10.384  17.486  0.00  0.00    +0.000 OA
ATOM     26  H   UNL     1       1.674   9.548  16.998  0.00  0.00    +0.000 HD
ENDBRANCH  20  25
BRANCH  21  27
ATOM     27  C   UNL     1       2.480   8.017  18.519  0.00  0.00    +0.000 C 
ATOM     28  O   UNL     1       2.296   6.802  18.546  0.00  0.00    +0.000 OA
ENDBRANCH  21  27
BRANCH  22  29
ATOM     29  O   UNL     1       1.657   7.384  21.196  0.00  0.00    +0.000 OA
ATOM     30  H   UNL     1       1.221   6.635  20.720  0.00  0.00    +0.000 HD
ENDBRANCH  22  29
BRANCH  23  31
ATOM     31  C   UNL     1       0.055   9.035  22.731  0.00  0.00    +0.000 C 
ATOM     32  O   UNL     1       0.369   9.736  23.689  0.00  0.00    +0.000 OA
ENDBRANCH  23  31
BRANCH  24  33
ATOM     33  O   UNL     1      -0.789  11.503  21.518  0.00  0.00    +0.000 OA
ATOM     34  H   UNL     1      -0.435  12.420  21.440  0.00  0.00    +0.000 HD
ENDBRANCH  24  33
ENDBRANCH   1  19
BRANCH   1  35
ATOM     35  C   UNL     1      -1.245  12.482  18.016  0.00  0.00    +0.000 C 
BRANCH  35  37
ATOM     36  C   UNL     1      -3.603  11.725  18.512  0.00  0.00    +0.000 C 
ATOM     37  C   UNL     1      -2.205  11.265  18.082  0.00  0.00    +0.000 C 
ATOM     38  C   UNL     1      -2.277  10.517  16.754  0.00  0.00    +0.000 C 
ENDBRANCH  35  37
ENDBRANCH   1  35
TORSDOF 11
ENDMDL
MODEL 6
REMARK VINA RESULT:      -5.5      3.224      7.332
REMARK  Name = 
REMARK  17 active torsions:
REMARK  status: ('A' for Active; 'I' for Inactive)
REMARK    1  A    between atoms: C_1  and  C_2
REMARK    2  A    between atoms: C_2  and  C_3
REMARK    3  A    between atoms: C_2  and  C_4
REMARK    4  A    between atoms: C_4  and  C_5
REMARK    5  A    between atoms: C_5  and  C_6
REMARK    6  A    between atoms: C_5  and  C_19
REMARK    7  A    between atoms: C_7  and  O_8
REMARK    8  A    between atoms: C_9  and  C_10
REMARK    9  A    between atoms: C_12  and  O_13
REMARK   10  A    between atoms: C_14  and  C_15
REMARK   11  A    between atoms: C_17  and  O_18
REMARK   12  A    between atoms: C_22  and  C_23
REMARK   13  A    between atoms: C_26  and  C_27
REMARK   14  A    between atoms: C_27  and  C_28
REMARK   15  A    between atoms: C_27  and  C_29
REMARK   16  A    between atoms: C_27  and  O_30
REMARK   17  A    between atoms: C_33  and  C_34
REMARK                            x       y       z     vdW  Elec       q    Type
REMARK                         _______ _______ _______ _____ _____    ______ ____
ROOT
ATOM      1  C   UNL     1       1.078  14.302  20.031  0.00  0.00    +0.000 C 
ENDROOT
BRANCH   1   2
ATOM      2  C   UNL     1       0.697  12.753  19.936  0.00  0.00    +0.000 C 
ATOM      3  C   UNL     1       0.576  12.233  18.486  0.00  0.00    +0.000 C 
ATOM      4  C   UNL     1      -0.767  12.524  17.821  0.00  0.00    +0.000 C 
ATOM      5  C   UNL     1      -1.996  12.091  18.640  0.00  0.00    +0.000 C 
ATOM      6  C   UNL     1      -2.306  10.617  18.340  0.00  0.00    +0.000 C 
ATOM      7  C   UNL     1      -1.886  12.416  20.135  0.00  0.00    +0.000 C 
ATOM      8  C   UNL     1      -2.957  12.868  20.839  0.00  0.00    +0.000 C 
ATOM      9  C   UNL     1      -2.931  13.249  22.324  0.00  0.00    +0.000 C 
ATOM     10  C   UNL     1      -1.763  12.534  23.015  0.00  0.00    +0.000 C 
ATOM     11  C   UNL     1      -0.481  12.802  22.237  0.00  0.00    +0.000 C 
ATOM     12  C   UNL     1      -0.515  12.201  20.807  0.00  0.00    +0.000 C 
ATOM     13  C   UNL     1      -0.359  10.656  21.000  0.00  0.00    +0.000 C 
BRANCH   9  14
ATOM     14  C   UNL     1      -4.265  13.131  23.147  0.00  0.00    +0.000 C 
ATOM     15  C   UNL     1      -4.616  14.365  23.983  0.00  0.00    +0.000 C 
ATOM     16  C   UNL     1      -5.453  12.807  22.214  0.00  0.00    +0.000 C 
BRANCH  14  17
ATOM     17  O   UNL     1      -4.133  12.018  24.046  0.00  0.00    +0.000 OA
ATOM     18  H   UNL     1      -4.155  11.200  23.513  0.00  0.00    +0.000 HD
ENDBRANCH  14  17
ENDBRANCH   9  14
ENDBRANCH   1   2
BRANCH   1  19
ATOM     19  C   UNL     1       2.617  14.513  20.065  0.00  0.00    +0.000 A 
ATOM     20  C   UNL     1       3.454  14.532  18.926  0.00  0.00    +0.000 A 
ATOM     21  C   UNL     1       4.829  14.828  19.020  0.00  0.00    +0.000 A 
ATOM     22  C   UNL     1       5.415  15.098  20.264  0.00  0.00    +0.000 A 
ATOM     23  C   UNL     1       4.625  15.063  21.406  0.00  0.00    +0.000 A 
ATOM     24  C   UNL     1       3.246  14.769  21.312  0.00  0.00    +0.000 A 
BRANCH  20  25
ATOM     25  O   UNL     1       2.993  14.282  17.662  0.00  0.00    +0.000 OA
ATOM     26  H   UNL     1       2.064  14.551  17.600  0.00  0.00    +0.000 HD
ENDBRANCH  20  25
BRANCH  21  27
ATOM     27  C   UNL     1       5.652  14.847  17.791  0.00  0.00    +0.000 C 
ATOM     28  O   UNL     1       6.676  14.173  17.717  0.00  0.00    +0.000 OA
ENDBRANCH  21  27
BRANCH  22  29
ATOM     29  O   UNL     1       6.749  15.391  20.388  0.00  0.00    +0.000 OA
ATOM     30  H   UNL     1       7.164  14.731  20.997  0.00  0.00    +0.000 HD
ENDBRANCH  22  29
BRANCH  23  31
ATOM     31  C   UNL     1       5.256  15.351  22.716  0.00  0.00    +0.000 C 
ATOM     32  O   UNL     1       6.108  14.598  23.176  0.00  0.00    +0.000 OA
ENDBRANCH  23  31
BRANCH  24  33
ATOM     33  O   UNL     1       2.460  14.729  22.443  0.00  0.00    +0.000 OA
ATOM     34  H   UNL     1       2.225  15.651  22.702  0.00  0.00    +0.000 HD
ENDBRANCH  24  33
ENDBRANCH   1  19
BRANCH   1  35
ATOM     35  C   UNL     1       0.290  15.283  19.111  0.00  0.00    +0.000 C 
BRANCH  35  37
ATOM     36  C   UNL     1      -0.677  16.274  21.224  0.00  0.00    +0.000 C 
ATOM     37  C   UNL     1      -0.941  15.984  19.740  0.00  0.00    +0.000 C 
ATOM     38  C   UNL     1      -1.308  17.270  19.006  0.00  0.00    +0.000 C 
ENDBRANCH  35  37
ENDBRANCH   1  35
TORSDOF 11
ENDMDL
MODEL 7
REMARK VINA RESULT:      -5.4      3.160      7.301
REMARK  Name = 
REMARK  17 active torsions:
REMARK  status: ('A' for Active; 'I' for Inactive)
REMARK    1  A    between atoms: C_1  and  C_2
REMARK    2  A    between atoms: C_2  and  C_3
REMARK    3  A    between atoms: C_2  and  C_4
REMARK    4  A    between atoms: C_4  and  C_5
REMARK    5  A    between atoms: C_5  and  C_6
REMARK    6  A    between atoms: C_5  and  C_19
REMARK    7  A    between atoms: C_7  and  O_8
REMARK    8  A    between atoms: C_9  and  C_10
REMARK    9  A    between atoms: C_12  and  O_13
REMARK   10  A    between atoms: C_14  and  C_15
REMARK   11  A    between atoms: C_17  and  O_18
REMARK   12  A    between atoms: C_22  and  C_23
REMARK   13  A    between atoms: C_26  and  C_27
REMARK   14  A    between atoms: C_27  and  C_28
REMARK   15  A    between atoms: C_27  and  C_29
REMARK   16  A    between atoms: C_27  and  O_30
REMARK   17  A    between atoms: C_33  and  C_34
REMARK                            x       y       z     vdW  Elec       q    Type
REMARK                         _______ _______ _______ _____ _____    ______ ____
ROOT
ATOM      1  C   UNL     1       0.917  14.301  19.956  0.00  0.00    +0.000 C 
ENDROOT
BRANCH   1   2
ATOM      2  C   UNL     1       0.542  12.747  19.975  0.00  0.00    +0.000 C 
ATOM      3  C   UNL     1       0.409  12.125  18.567  0.00  0.00    +0.000 C 
ATOM      4  C   UNL     1      -0.942  12.364  17.896  0.00  0.00    +0.000 C 
ATOM      5  C   UNL     1      -2.162  11.987  18.755  0.00  0.00    +0.000 C 
ATOM      6  C   UNL     1      -2.469  10.494  18.564  0.00  0.00    +0.000 C 
ATOM      7  C   UNL     1      -2.039  12.418  20.222  0.00  0.00    +0.000 C 
ATOM      8  C   UNL     1      -3.104  12.915  20.902  0.00  0.00    +0.000 C 
ATOM      9  C   UNL     1      -3.066  13.401  22.356  0.00  0.00    +0.000 C 
ATOM     10  C   UNL     1      -1.889  12.740  23.086  0.00  0.00    +0.000 C 
ATOM     11  C   UNL     1      -0.615  12.956  22.278  0.00  0.00    +0.000 C 
ATOM     12  C   UNL     1      -0.661  12.255  20.895  0.00  0.00    +0.000 C 
ATOM     13  C   UNL     1      -0.497  10.728  21.195  0.00  0.00    +0.000 C 
BRANCH   9  14
ATOM     14  C   UNL     1      -4.392  13.338  23.199  0.00  0.00    +0.000 C 
ATOM     15  C   UNL     1      -5.624  12.862  22.425  0.00  0.00    +0.000 C 
ATOM     16  C   UNL     1      -4.204  12.436  24.439  0.00  0.00    +0.000 C 
BRANCH  14  17
ATOM     17  O   UNL     1      -4.667  14.659  23.689  0.00  0.00    +0.000 OA
ATOM     18  H   UNL     1      -4.389  14.696  24.624  0.00  0.00    +0.000 HD
ENDBRANCH  14  17
ENDBRANCH   9  14
ENDBRANCH   1   2
BRANCH   1  19
ATOM     19  C   UNL     1       2.455  14.519  20.018  0.00  0.00    +0.000 A 
ATOM     20  C   UNL     1       3.315  14.523  18.896  0.00  0.00    +0.000 A 
ATOM     21  C   UNL     1       4.686  14.827  19.012  0.00  0.00    +0.000 A 
ATOM     22  C   UNL     1       5.246  15.119  20.264  0.00  0.00    +0.000 A 
ATOM     23  C   UNL     1       4.433  15.099  21.390  0.00  0.00    +0.000 A 
ATOM     24  C   UNL     1       3.058  14.797  21.272  0.00  0.00    +0.000 A 
BRANCH  20  25
ATOM     25  O   UNL     1       2.880  14.251  17.627  0.00  0.00    +0.000 OA
ATOM     26  H   UNL     1       2.105  14.799  17.428  0.00  0.00    +0.000 HD
ENDBRANCH  20  25
BRANCH  21  27
ATOM     27  C   UNL     1       5.533  14.830  17.800  0.00  0.00    +0.000 C 
ATOM     28  O   UNL     1       6.558  14.154  17.755  0.00  0.00    +0.000 OA
ENDBRANCH  21  27
BRANCH  22  29
ATOM     29  O   UNL     1       6.576  15.420  20.410  0.00  0.00    +0.000 OA
ATOM     30  H   UNL     1       6.825  16.094  19.730  0.00  0.00    +0.000 HD
ENDBRANCH  22  29
BRANCH  23  31
ATOM     31  C   UNL     1       5.036  15.411  22.707  0.00  0.00    +0.000 C 
ATOM     32  O   UNL     1       5.796  14.614  23.249  0.00  0.00    +0.000 OA
ENDBRANCH  23  31
BRANCH  24  33
ATOM     33  O   UNL     1       2.249  14.772  22.388  0.00  0.00    +0.000 OA
ATOM     34  H   UNL     1       2.586  14.088  23.013  0.00  0.00    +0.000 HD
ENDBRANCH  24  33
ENDBRANCH   1  19
BRANCH   1  35
ATOM     35  C   UNL     1       0.156  15.201  18.938  0.00  0.00    +0.000 C 
BRANCH  35  37
ATOM     36  C   UNL     1      -0.847  17.443  18.349  0.00  0.00    +0.000 C 
ATOM     37  C   UNL     1      -0.479  16.499  19.501  0.00  0.00    +0.000 C 
ATOM     38  C   UNL     1      -1.703  16.213  20.364  0.00  0.00    +0.000 C 
ENDBRANCH  35  37
ENDBRANCH   1  35
TORSDOF 11
ENDMDL
MODEL 8
REMARK VINA RESULT:      -5.4      1.683      2.303
REMARK  Name = 
REMARK  17 active torsions:
REMARK  status: ('A' for Active; 'I' for Inactive)
REMARK    1  A    between atoms: C_1  and  C_2
REMARK    2  A    between atoms: C_2  and  C_3
REMARK    3  A    between atoms: C_2  and  C_4
REMARK    4  A    between atoms: C_4  and  C_5
REMARK    5  A    between atoms: C_5  and  C_6
REMARK    6  A    between atoms: C_5  and  C_19
REMARK    7  A    between atoms: C_7  and  O_8
REMARK    8  A    between atoms: C_9  and  C_10
REMARK    9  A    between atoms: C_12  and  O_13
REMARK   10  A    between atoms: C_14  and  C_15
REMARK   11  A    between atoms: C_17  and  O_18
REMARK   12  A    between atoms: C_22  and  C_23
REMARK   13  A    between atoms: C_26  and  C_27
REMARK   14  A    between atoms: C_27  and  C_28
REMARK   15  A    between atoms: C_27  and  C_29
REMARK   16  A    between atoms: C_27  and  O_30
REMARK   17  A    between atoms: C_33  and  C_34
REMARK                            x       y       z     vdW  Elec       q    Type
REMARK                         _______ _______ _______ _____ _____    ______ ____
ROOT
ATOM      1  C   UNL     1      -1.374  12.336  20.635  0.00  0.00    +0.000 C 
ENDROOT
BRANCH   1   2
ATOM      2  C   UNL     1      -0.767  13.305  19.517  0.00  0.00    +0.000 C 
ATOM      3  C   UNL     1       0.089  12.572  18.461  0.00  0.00    +0.000 C 
ATOM      4  C   UNL     1       1.528  12.298  18.894  0.00  0.00    +0.000 C 
ATOM      5  C   UNL     1       2.285  13.529  19.423  0.00  0.00    +0.000 C 
ATOM      6  C   UNL     1       2.913  14.279  18.239  0.00  0.00    +0.000 C 
ATOM      7  C   UNL     1       1.445  14.416  20.352  0.00  0.00    +0.000 C 
ATOM      8  C   UNL     1       1.985  14.986  21.460  0.00  0.00    +0.000 C 
ATOM      9  C   UNL     1       1.216  15.857  22.461  0.00  0.00    +0.000 C 
ATOM     10  C   UNL     1      -0.019  16.455  21.774  0.00  0.00    +0.000 C 
ATOM     11  C   UNL     1      -0.816  15.337  21.115  0.00  0.00    +0.000 C 
ATOM     12  C   UNL     1      -0.032  14.642  19.971  0.00  0.00    +0.000 C 
ATOM     13  C   UNL     1      -0.028  15.663  18.786  0.00  0.00    +0.000 C 
BRANCH   9  14
ATOM     14  C   UNL     1       2.016  16.934  23.280  0.00  0.00    +0.000 C 
ATOM     15  C   UNL     1       2.516  18.126  22.460  0.00  0.00    +0.000 C 
ATOM     16  C   UNL     1       1.165  17.462  24.457  0.00  0.00    +0.000 C 
BRANCH  14  17
ATOM     17  O   UNL     1       3.162  16.289  23.859  0.00  0.00    +0.000 OA
ATOM     18  H   UNL     1       3.912  16.405  23.244  0.00  0.00    +0.000 HD
ENDBRANCH  14  17
ENDBRANCH   9  14
ENDBRANCH   1   2
BRANCH   1  19
ATOM     19  C   UNL     1      -2.915  12.495  20.755  0.00  0.00    +0.000 A 
ATOM     20  C   UNL     1      -3.827  12.347  19.686  0.00  0.00    +0.000 A 
ATOM     21  C   UNL     1      -5.222  12.406  19.886  0.00  0.00    +0.000 A 
ATOM     22  C   UNL     1      -5.748  12.633  21.164  0.00  0.00    +0.000 A 
ATOM     23  C   UNL     1      -4.877  12.808  22.233  0.00  0.00    +0.000 A 
ATOM     24  C   UNL     1      -3.480  12.746  22.033  0.00  0.00    +0.000 A 
BRANCH  20  25
ATOM     25  O   UNL     1      -3.429  12.123  18.396  0.00  0.00    +0.000 OA
ATOM     26  H   UNL     1      -3.192  11.189  18.290  0.00  0.00    +0.000 HD
ENDBRANCH  20  25
BRANCH  21  27
ATOM     27  C   UNL     1      -6.127  12.229  18.730  0.00  0.00    +0.000 C 
ATOM     28  O   UNL     1      -6.219  11.137  18.173  0.00  0.00    +0.000 OA
ENDBRANCH  21  27
BRANCH  22  29
ATOM     29  O   UNL     1      -7.099  12.694  21.391  0.00  0.00    +0.000 OA
ATOM     30  H   UNL     1      -7.518  11.872  21.035  0.00  0.00    +0.000 HD
ENDBRANCH  22  29
BRANCH  23  31
ATOM     31  C   UNL     1      -5.446  13.047  23.581  0.00  0.00    +0.000 C 
ATOM     32  O   UNL     1      -5.234  12.256  24.495  0.00  0.00    +0.000 OA
ENDBRANCH  23  31
BRANCH  24  33
ATOM     33  O   UNL     1      -2.614  12.923  23.090  0.00  0.00    +0.000 OA
ATOM     34  H   UNL     1      -1.725  12.579  22.838  0.00  0.00    +0.000 HD
ENDBRANCH  24  33
ENDBRANCH   1  19
BRANCH   1  35
ATOM     35  C   UNL     1      -0.850  10.869  20.661  0.00  0.00    +0.000 C 
BRANCH  35  37
ATOM     36  C   UNL     1      -0.741  10.085  23.059  0.00  0.00    +0.000 C 
ATOM     37  C   UNL     1       0.090  10.490  21.834  0.00  0.00    +0.000 C 
ATOM     38  C   UNL     1       1.058   9.373  21.458  0.00  0.00    +0.000 C 
ENDBRANCH  35  37
ENDBRANCH   1  35
TORSDOF 11
ENDMDL
MODEL 9
REMARK VINA RESULT:      -5.3      1.116      1.630
REMARK  Name = 
REMARK  17 active torsions:
REMARK  status: ('A' for Active; 'I' for Inactive)
REMARK    1  A    between atoms: C_1  and  C_2
REMARK    2  A    between atoms: C_2  and  C_3
REMARK    3  A    between atoms: C_2  and  C_4
REMARK    4  A    between atoms: C_4  and  C_5
REMARK    5  A    between atoms: C_5  and  C_6
REMARK    6  A    between atoms: C_5  and  C_19
REMARK    7  A    between atoms: C_7  and  O_8
REMARK    8  A    between atoms: C_9  and  C_10
REMARK    9  A    between atoms: C_12  and  O_13
REMARK   10  A    between atoms: C_14  and  C_15
REMARK   11  A    between atoms: C_17  and  O_18
REMARK   12  A    between atoms: C_22  and  C_23
REMARK   13  A    between atoms: C_26  and  C_27
REMARK   14  A    between atoms: C_27  and  C_28
REMARK   15  A    between atoms: C_27  and  C_29
REMARK   16  A    between atoms: C_27  and  O_30
REMARK   17  A    between atoms: C_33  and  C_34
REMARK                            x       y       z     vdW  Elec       q    Type
REMARK                         _______ _______ _______ _____ _____    ______ ____
ROOT
ATOM      1  C   UNL     1      -1.631  12.235  19.996  0.00  0.00    +0.000 C 
ENDROOT
BRANCH   1   2
ATOM      2  C   UNL     1      -0.873  13.369  19.163  0.00  0.00    +0.000 C 
ATOM      3  C   UNL     1       0.299  12.833  18.311  0.00  0.00    +0.000 C 
ATOM      4  C   UNL     1       1.602  12.635  19.082  0.00  0.00    +0.000 C 
ATOM      5  C   UNL     1       2.060  13.860  19.893  0.00  0.00    +0.000 C 
ATOM      6  C   UNL     1       2.881  14.787  18.985  0.00  0.00    +0.000 C 
ATOM      7  C   UNL     1       0.920  14.565  20.641  0.00  0.00    +0.000 C 
ATOM      8  C   UNL     1       1.096  15.052  21.897  0.00  0.00    +0.000 C 
ATOM      9  C   UNL     1       0.008  15.739  22.730  0.00  0.00    +0.000 C 
ATOM     10  C   UNL     1      -1.072  16.303  21.797  0.00  0.00    +0.000 C 
ATOM     11  C   UNL     1      -1.547  15.201  20.858  0.00  0.00    +0.000 C 
ATOM     12  C   UNL     1      -0.428  14.705  19.906  0.00  0.00    +0.000 C 
ATOM     13  C   UNL     1      -0.237  15.848  18.855  0.00  0.00    +0.000 C 
BRANCH   9  14
ATOM     14  C   UNL     1       0.450  16.783  23.820  0.00  0.00    +0.000 C 
ATOM     15  C   UNL     1       1.908  17.238  23.720  0.00  0.00    +0.000 C 
ATOM     16  C   UNL     1      -0.464  18.027  23.781  0.00  0.00    +0.000 C 
BRANCH  14  17
ATOM     17  O   UNL     1       0.268  16.179  25.110  0.00  0.00    +0.000 OA
ATOM     18  H   UNL     1       0.311  15.210  24.996  0.00  0.00    +0.000 HD
ENDBRANCH  14  17
ENDBRANCH   9  14
ENDBRANCH   1   2
BRANCH   1  19
ATOM     19  C   UNL     1      -3.174  12.346  19.840  0.00  0.00    +0.000 A 
ATOM     20  C   UNL     1      -3.877  12.162  18.628  0.00  0.00    +0.000 A 
ATOM     21  C   UNL     1      -5.286  12.177  18.577  0.00  0.00    +0.000 A 
ATOM     22  C   UNL     1      -6.037  12.396  19.740  0.00  0.00    +0.000 A 
ATOM     23  C   UNL     1      -5.375  12.605  20.944  0.00  0.00    +0.000 A 
ATOM     24  C   UNL     1      -3.964  12.587  20.995  0.00  0.00    +0.000 A 
BRANCH  20  25
ATOM     25  O   UNL     1      -3.250  11.942  17.432  0.00  0.00    +0.000 OA
ATOM     26  H   UNL     1      -2.292  12.028  17.550  0.00  0.00    +0.000 HD
ENDBRANCH  20  25
BRANCH  21  27
ATOM     27  C   UNL     1      -5.967  11.964  17.282  0.00  0.00    +0.000 C 
ATOM     28  O   UNL     1      -6.787  12.779  16.868  0.00  0.00    +0.000 OA
ENDBRANCH  21  27
BRANCH  22  29
ATOM     29  O   UNL     1      -7.409  12.416  19.724  0.00  0.00    +0.000 OA
ATOM     30  H   UNL     1      -7.720  12.092  18.843  0.00  0.00    +0.000 HD
ENDBRANCH  22  29
BRANCH  23  31
ATOM     31  C   UNL     1      -6.180  12.835  22.167  0.00  0.00    +0.000 C 
ATOM     32  O   UNL     1      -5.969  12.181  23.184  0.00  0.00    +0.000 OA
ENDBRANCH  23  31
BRANCH  24  33
ATOM     33  O   UNL     1      -3.304  12.798  22.186  0.00  0.00    +0.000 OA
ATOM     34  H   UNL     1      -2.867  13.681  22.159  0.00  0.00    +0.000 HD
ENDBRANCH  24  33
ENDBRANCH   1  19
BRANCH   1  35
ATOM     35  C   UNL     1      -1.054  10.790  19.914  0.00  0.00    +0.000 C 
BRANCH  35  37
ATOM     36  C   UNL     1       0.880   9.494  20.893  0.00  0.00    +0.000 C 
ATOM     37  C   UNL     1      -0.434  10.218  21.215  0.00  0.00    +0.000 C 
ATOM     38  C   UNL     1      -0.201  11.299  22.265  0.00  0.00    +0.000 C 
ENDBRANCH  35  37
ENDBRANCH   1  35
TORSDOF 11
ENDMDL
