MODEL 1
REMARK VINA RESULT:      -9.0      0.000      0.000
REMARK  Name = 
REMARK  5 active torsions:
REMARK  status: ('A' for Active; 'I' for Inactive)
REMARK    1  A    between atoms: C_2  and  C_10
REMARK    2  A    between atoms: N_3  and  C_4
REMARK    3  A    between atoms: C_11  and  N_12
REMARK    4  A    between atoms: N_12  and  C_13
REMARK    5  A    between atoms: N_22  and  O_23
REMARK                            x       y       z     vdW  Elec       q    Type
REMARK                         _______ _______ _______ _____ _____    ______ ____
ROOT
ATOM      1  C   UNL     1       4.615   5.798  17.780  0.00  0.00    +0.000 A 
ATOM      2  C   UNL     1       5.166   4.950  18.691  0.00  0.00    +0.000 A 
ATOM      3  N   UNL     1       6.412   4.420  18.442  0.00  0.00    +0.000 N 
ATOM      4  C   UNL     1       7.147   4.618  17.315  0.00  0.00    +0.000 A 
ATOM      5  O   UNL     1       8.245   4.089  17.145  0.00  0.00    +0.000 OA
ATOM      6  N   UNL     1       6.581   5.463  16.397  0.00  0.00    +0.000 N 
ATOM      7  C   UNL     1       5.417   6.168  16.577  0.00  0.00    +0.000 A 
ATOM      8  O   UNL     1       5.010   7.039  15.806  0.00  0.00    +0.000 OA
ATOM      9  H   UNL     1       6.777   3.769  19.129  0.00  0.00    +0.000 HD
ENDROOT
BRANCH   1  11
ATOM     10  O   UNL     1       2.246   5.730  17.640  0.00  0.00    +0.000 OA
ATOM     11  C   UNL     1       3.233   6.364  18.008  0.00  0.00    +0.000 C 
ATOM     12  N   UNL     1       3.192   7.629  18.556  0.00  0.00    +0.000 N 
ATOM     13  H   UNL     1       4.085   8.074  18.779  0.00  0.00    +0.000 HD
BRANCH  12  14
ATOM     14  C   UNL     1       2.048   8.422  18.798  0.00  0.00    +0.000 A 
ATOM     15  C   UNL     1       1.413   9.179  17.813  0.00  0.00    +0.000 A 
ATOM     16  C   UNL     1       0.311   9.978  18.128  0.00  0.00    +0.000 A 
ATOM     17  C   UNL     1      -0.166  10.028  19.435  0.00  0.00    +0.000 A 
ATOM     18  C   UNL     1       0.445   9.260  20.423  0.00  0.00    +0.000 A 
ATOM     19  C   UNL     1       1.542   8.450  20.104  0.00  0.00    +0.000 A 
ENDBRANCH  12  14
ENDBRANCH   1  11
BRANCH   2  20
ATOM     20  N   UNL     1       4.543   4.481  19.847  0.00  0.00    +0.000 N 
ATOM     21  H   UNL     1       5.183   3.850  20.355  0.00  0.00    +0.000 HD
BRANCH  20  22
ATOM     22  C   UNL     1       3.315   3.747  19.824  0.00  0.00    +0.000 A 
ATOM     23  C   UNL     1       2.218   4.044  20.641  0.00  0.00    +0.000 A 
ATOM     24  C   UNL     1       1.011   3.351  20.490  0.00  0.00    +0.000 A 
ATOM     25  C   UNL     1       0.895   2.337  19.540  0.00  0.00    +0.000 A 
ATOM     26  C   UNL     1       1.989   2.004  18.748  0.00  0.00    +0.000 A 
ATOM     27  C   UNL     1       3.191   2.703  18.892  0.00  0.00    +0.000 A 
ENDBRANCH  20  22
ENDBRANCH   2  20
BRANCH   6  28
ATOM     28  O   UNL     1       7.341   5.750  15.242  0.00  0.00    +0.000 OA
ATOM     29  H   UNL     1       8.257   5.647  15.570  0.00  0.00    +0.000 HD
ENDBRANCH   6  28
TORSDOF 5
ENDMDL
MODEL 2
REMARK VINA RESULT:      -8.9      2.345      4.704
REMARK  Name = 
REMARK  5 active torsions:
REMARK  status: ('A' for Active; 'I' for Inactive)
REMARK    1  A    between atoms: C_2  and  C_10
REMARK    2  A    between atoms: N_3  and  C_4
REMARK    3  A    between atoms: C_11  and  N_12
REMARK    4  A    between atoms: N_12  and  C_13
REMARK    5  A    between atoms: N_22  and  O_23
REMARK                            x       y       z     vdW  Elec       q    Type
REMARK                         _______ _______ _______ _____ _____    ______ ____
ROOT
ATOM      1  C   UNL     1       3.203   4.323  19.388  0.00  0.00    +0.000 A 
ATOM      2  C   UNL     1       4.357   3.893  18.808  0.00  0.00    +0.000 A 
ATOM      3  N   UNL     1       5.009   2.806  19.345  0.00  0.00    +0.000 N 
ATOM      4  C   UNL     1       4.638   2.132  20.466  0.00  0.00    +0.000 A 
ATOM      5  O   UNL     1       5.285   1.184  20.909  0.00  0.00    +0.000 OA
ATOM      6  N   UNL     1       3.482   2.579  21.052  0.00  0.00    +0.000 N 
ATOM      7  C   UNL     1       2.661   3.555  20.546  0.00  0.00    +0.000 A 
ATOM      8  O   UNL     1       1.549   3.829  21.005  0.00  0.00    +0.000 OA
ATOM      9  H   UNL     1       5.881   2.533  18.904  0.00  0.00    +0.000 HD
ENDROOT
BRANCH   1  11
ATOM     10  O   UNL     1       1.958   5.489  17.736  0.00  0.00    +0.000 OA
ATOM     11  C   UNL     1       2.488   5.537  18.845  0.00  0.00    +0.000 C 
ATOM     12  N   UNL     1       2.559   6.669  19.630  0.00  0.00    +0.000 N 
ATOM     13  H   UNL     1       3.069   6.597  20.513  0.00  0.00    +0.000 HD
BRANCH  12  14
ATOM     14  C   UNL     1       2.056   7.955  19.329  0.00  0.00    +0.000 A 
ATOM     15  C   UNL     1       2.320   8.627  18.135  0.00  0.00    +0.000 A 
ATOM     16  C   UNL     1       1.827   9.917  17.920  0.00  0.00    +0.000 A 
ATOM     17  C   UNL     1       1.066  10.547  18.899  0.00  0.00    +0.000 A 
ATOM     18  C   UNL     1       0.776   9.879  20.085  0.00  0.00    +0.000 A 
ATOM     19  C   UNL     1       1.260   8.582  20.296  0.00  0.00    +0.000 A 
ENDBRANCH  12  14
ENDBRANCH   1  11
BRANCH   2  20
ATOM     20  N   UNL     1       5.013   4.511  17.743  0.00  0.00    +0.000 N 
ATOM     21  H   UNL     1       5.517   3.802  17.187  0.00  0.00    +0.000 HD
BRANCH  20  22
ATOM     22  C   UNL     1       5.994   5.537  17.926  0.00  0.00    +0.000 A 
ATOM     23  C   UNL     1       7.062   5.438  18.825  0.00  0.00    +0.000 A 
ATOM     24  C   UNL     1       8.044   6.434  18.874  0.00  0.00    +0.000 A 
ATOM     25  C   UNL     1       7.956   7.551  18.046  0.00  0.00    +0.000 A 
ATOM     26  C   UNL     1       6.879   7.682  17.174  0.00  0.00    +0.000 A 
ATOM     27  C   UNL     1       5.904   6.682  17.118  0.00  0.00    +0.000 A 
ENDBRANCH  20  22
ENDBRANCH   2  20
BRANCH   6  28
ATOM     28  O   UNL     1       3.023   1.865  22.180  0.00  0.00    +0.000 OA
ATOM     29  H   UNL     1       2.545   2.559  22.680  0.00  0.00    +0.000 HD
ENDBRANCH   6  28
TORSDOF 5
ENDMDL
MODEL 3
REMARK VINA RESULT:      -8.8      2.327      4.750
REMARK  Name = 
REMARK  5 active torsions:
REMARK  status: ('A' for Active; 'I' for Inactive)
REMARK    1  A    between atoms: C_2  and  C_10
REMARK    2  A    between atoms: N_3  and  C_4
REMARK    3  A    between atoms: C_11  and  N_12
REMARK    4  A    between atoms: N_12  and  C_13
REMARK    5  A    between atoms: N_22  and  O_23
REMARK                            x       y       z     vdW  Elec       q    Type
REMARK                         _______ _______ _______ _____ _____    ______ ____
ROOT
ATOM      1  C   UNL     1       3.201   4.314  19.360  0.00  0.00    +0.000 A 
ATOM      2  C   UNL     1       4.313   3.865  18.719  0.00  0.00    +0.000 A 
ATOM      3  N   UNL     1       4.975   2.766  19.220  0.00  0.00    +0.000 N 
ATOM      4  C   UNL     1       4.652   2.097  20.359  0.00  0.00    +0.000 A 
ATOM      5  O   UNL     1       5.305   1.137  20.765  0.00  0.00    +0.000 OA
ATOM      6  N   UNL     1       3.538   2.563  21.006  0.00  0.00    +0.000 N 
ATOM      7  C   UNL     1       2.708   3.554  20.546  0.00  0.00    +0.000 A 
ATOM      8  O   UNL     1       1.628   3.847  21.064  0.00  0.00    +0.000 OA
ATOM      9  H   UNL     1       5.816   2.479  18.732  0.00  0.00    +0.000 HD
ENDROOT
BRANCH   1  11
ATOM     10  O   UNL     1       1.942   5.525  17.751  0.00  0.00    +0.000 OA
ATOM     11  C   UNL     1       2.478   5.542  18.858  0.00  0.00    +0.000 C 
ATOM     12  N   UNL     1       2.552   6.651  19.675  0.00  0.00    +0.000 N 
ATOM     13  H   UNL     1       3.067   6.554  20.552  0.00  0.00    +0.000 HD
BRANCH  12  14
ATOM     14  C   UNL     1       2.043   7.943  19.415  0.00  0.00    +0.000 A 
ATOM     15  C   UNL     1       1.220   8.639  20.300  0.00  0.00    +0.000 A 
ATOM     16  C   UNL     1       0.713   9.898  19.962  0.00  0.00    +0.000 A 
ATOM     17  C   UNL     1       1.026  10.470  18.732  0.00  0.00    +0.000 A 
ATOM     18  C   UNL     1       1.864   9.795  17.850  0.00  0.00    +0.000 A 
ATOM     19  C   UNL     1       2.381   8.540  18.194  0.00  0.00    +0.000 A 
ENDBRANCH  12  14
ENDBRANCH   1  11
BRANCH   2  20
ATOM     20  N   UNL     1       4.922   4.473  17.621  0.00  0.00    +0.000 N 
ATOM     21  H   UNL     1       5.352   3.753  17.019  0.00  0.00    +0.000 HD
BRANCH  20  22
ATOM     22  C   UNL     1       5.962   5.448  17.751  0.00  0.00    +0.000 A 
ATOM     23  C   UNL     1       6.001   6.642  17.021  0.00  0.00    +0.000 A 
ATOM     24  C   UNL     1       6.990   7.598  17.277  0.00  0.00    +0.000 A 
ATOM     25  C   UNL     1       7.966   7.363  18.244  0.00  0.00    +0.000 A 
ATOM     26  C   UNL     1       7.962   6.163  18.950  0.00  0.00    +0.000 A 
ATOM     27  C   UNL     1       6.968   5.212  18.702  0.00  0.00    +0.000 A 
ENDBRANCH  20  22
ENDBRANCH   2  20
BRANCH   6  28
ATOM     28  O   UNL     1       3.128   1.855  22.157  0.00  0.00    +0.000 OA
ATOM     29  H   UNL     1       3.012   0.948  21.808  0.00  0.00    +0.000 HD
ENDBRANCH   6  28
TORSDOF 5
ENDMDL
MODEL 4
REMARK VINA RESULT:      -8.8      0.187      1.371
REMARK  Name = 
REMARK  5 active torsions:
REMARK  status: ('A' for Active; 'I' for Inactive)
REMARK    1  A    between atoms: C_2  and  C_10
REMARK    2  A    between atoms: N_3  and  C_4
REMARK    3  A    between atoms: C_11  and  N_12
REMARK    4  A    between atoms: N_12  and  C_13
REMARK    5  A    between atoms: N_22  and  O_23
REMARK                            x       y       z     vdW  Elec       q    Type
REMARK                         _______ _______ _______ _____ _____    ______ ____
ROOT
ATOM      1  C   UNL     1       4.645   5.807  17.737  0.00  0.00    +0.000 A 
ATOM      2  C   UNL     1       5.212   4.953  18.631  0.00  0.00    +0.000 A 
ATOM      3  N   UNL     1       6.450   4.420  18.354  0.00  0.00    +0.000 N 
ATOM      4  C   UNL     1       7.163   4.621  17.214  0.00  0.00    +0.000 A 
ATOM      5  O   UNL     1       8.255   4.089  17.018  0.00  0.00    +0.000 OA
ATOM      6  N   UNL     1       6.580   5.472  16.311  0.00  0.00    +0.000 N 
ATOM      7  C   UNL     1       5.423   6.179  16.519  0.00  0.00    +0.000 A 
ATOM      8  O   UNL     1       5.003   7.056  15.760  0.00  0.00    +0.000 OA
ATOM      9  H   UNL     1       6.827   3.765  19.030  0.00  0.00    +0.000 HD
ENDROOT
BRANCH   1  11
ATOM     10  O   UNL     1       2.273   5.756  17.628  0.00  0.00    +0.000 OA
ATOM     11  C   UNL     1       3.270   6.376  17.995  0.00  0.00    +0.000 C 
ATOM     12  N   UNL     1       3.244   7.629  18.570  0.00  0.00    +0.000 N 
ATOM     13  H   UNL     1       4.143   8.064  18.789  0.00  0.00    +0.000 HD
BRANCH  12  14
ATOM     14  C   UNL     1       2.108   8.424  18.844  0.00  0.00    +0.000 A 
ATOM     15  C   UNL     1       1.512   8.509  20.102  0.00  0.00    +0.000 A 
ATOM     16  C   UNL     1       0.362   9.280  20.295  0.00  0.00    +0.000 A 
ATOM     17  C   UNL     1      -0.202   9.973  19.228  0.00  0.00    +0.000 A 
ATOM     18  C   UNL     1       0.396   9.915  17.972  0.00  0.00    +0.000 A 
ATOM     19  C   UNL     1       1.555   9.152  17.782  0.00  0.00    +0.000 A 
ENDBRANCH  12  14
ENDBRANCH   1  11
BRANCH   2  20
ATOM     20  N   UNL     1       4.611   4.480  19.798  0.00  0.00    +0.000 N 
ATOM     21  H   UNL     1       5.249   3.822  20.275  0.00  0.00    +0.000 HD
BRANCH  20  22
ATOM     22  C   UNL     1       3.363   3.780  19.801  0.00  0.00    +0.000 A 
ATOM     23  C   UNL     1       3.092   2.674  18.986  0.00  0.00    +0.000 A 
ATOM     24  C   UNL     1       1.888   1.973  19.118  0.00  0.00    +0.000 A 
ATOM     25  C   UNL     1       0.931   2.383  20.044  0.00  0.00    +0.000 A 
ATOM     26  C   UNL     1       1.170   3.505  20.833  0.00  0.00    +0.000 A 
ATOM     27  C   UNL     1       2.377   4.199  20.709  0.00  0.00    +0.000 A 
ENDBRANCH  20  22
ENDBRANCH   2  20
BRANCH   6  28
ATOM     28  O   UNL     1       7.317   5.762  15.142  0.00  0.00    +0.000 OA
ATOM     29  H   UNL     1       6.963   6.640  14.891  0.00  0.00    +0.000 HD
ENDBRANCH   6  28
TORSDOF 5
ENDMDL
MODEL 5
REMARK VINA RESULT:      -8.7      3.285      5.726
REMARK  Name = 
REMARK  5 active torsions:
REMARK  status: ('A' for Active; 'I' for Inactive)
REMARK    1  A    between atoms: C_2  and  C_10
REMARK    2  A    between atoms: N_3  and  C_4
REMARK    3  A    between atoms: C_11  and  N_12
REMARK    4  A    between atoms: N_12  and  C_13
REMARK    5  A    between atoms: N_22  and  O_23
REMARK                            x       y       z     vdW  Elec       q    Type
REMARK                         _______ _______ _______ _____ _____    ______ ____
ROOT
ATOM      1  C   UNL     1       6.484   5.468  16.968  0.00  0.00    +0.000 A 
ATOM      2  C   UNL     1       6.088   4.542  17.883  0.00  0.00    +0.000 A 
ATOM      3  N   UNL     1       6.566   4.630  19.171  0.00  0.00    +0.000 N 
ATOM      4  C   UNL     1       7.467   5.543  19.623  0.00  0.00    +0.000 A 
ATOM      5  O   UNL     1       7.874   5.547  20.784  0.00  0.00    +0.000 OA
ATOM      6  N   UNL     1       7.870   6.464  18.692  0.00  0.00    +0.000 N 
ATOM      7  C   UNL     1       7.371   6.580  17.419  0.00  0.00    +0.000 A 
ATOM      8  O   UNL     1       7.633   7.512  16.655  0.00  0.00    +0.000 OA
ATOM      9  H   UNL     1       6.273   3.905  19.817  0.00  0.00    +0.000 HD
ENDROOT
BRANCH   1  11
ATOM     10  O   UNL     1       5.233   6.219  15.093  0.00  0.00    +0.000 OA
ATOM     11  C   UNL     1       6.008   5.373  15.537  0.00  0.00    +0.000 C 
ATOM     12  N   UNL     1       6.431   4.259  14.843  0.00  0.00    +0.000 N 
ATOM     13  H   UNL     1       7.038   3.601  15.336  0.00  0.00    +0.000 HD
BRANCH  12  14
ATOM     14  C   UNL     1       6.074   3.879  13.530  0.00  0.00    +0.000 A 
ATOM     15  C   UNL     1       4.760   3.641  13.127  0.00  0.00    +0.000 A 
ATOM     16  C   UNL     1       4.479   3.224  11.823  0.00  0.00    +0.000 A 
ATOM     17  C   UNL     1       5.513   3.040  10.909  0.00  0.00    +0.000 A 
ATOM     18  C   UNL     1       6.826   3.296  11.293  0.00  0.00    +0.000 A 
ATOM     19  C   UNL     1       7.106   3.725  12.595  0.00  0.00    +0.000 A 
ENDBRANCH  12  14
ENDBRANCH   1  11
BRANCH   2  20
ATOM     20  N   UNL     1       5.291   3.428  17.622  0.00  0.00    +0.000 N 
ATOM     21  H   UNL     1       5.291   3.230  16.608  0.00  0.00    +0.000 HD
BRANCH  20  22
ATOM     22  C   UNL     1       3.902   3.371  17.962  0.00  0.00    +0.000 A 
ATOM     23  C   UNL     1       2.967   4.337  17.573  0.00  0.00    +0.000 A 
ATOM     24  C   UNL     1       1.606   4.161  17.850  0.00  0.00    +0.000 A 
ATOM     25  C   UNL     1       1.168   3.034  18.543  0.00  0.00    +0.000 A 
ATOM     26  C   UNL     1       2.091   2.084  18.971  0.00  0.00    +0.000 A 
ATOM     27  C   UNL     1       3.448   2.254  18.684  0.00  0.00    +0.000 A 
ENDBRANCH  20  22
ENDBRANCH   2  20
BRANCH   6  28
ATOM     28  O   UNL     1       8.753   7.473  19.136  0.00  0.00    +0.000 OA
ATOM     29  H   UNL     1       9.601   7.194  18.732  0.00  0.00    +0.000 HD
ENDBRANCH   6  28
TORSDOF 5
ENDMDL
MODEL 6
REMARK VINA RESULT:      -8.4      1.178      1.463
REMARK  Name = 
REMARK  5 active torsions:
REMARK  status: ('A' for Active; 'I' for Inactive)
REMARK    1  A    between atoms: C_2  and  C_10
REMARK    2  A    between atoms: N_3  and  C_4
REMARK    3  A    between atoms: C_11  and  N_12
REMARK    4  A    between atoms: N_12  and  C_13
REMARK    5  A    between atoms: N_22  and  O_23
REMARK                            x       y       z     vdW  Elec       q    Type
REMARK                         _______ _______ _______ _____ _____    ______ ____
ROOT
ATOM      1  C   UNL     1       4.245   5.695  17.653  0.00  0.00    +0.000 A 
ATOM      2  C   UNL     1       4.379   4.345  17.545  0.00  0.00    +0.000 A 
ATOM      3  N   UNL     1       5.584   3.824  17.130  0.00  0.00    +0.000 N 
ATOM      4  C   UNL     1       6.672   4.547  16.749  0.00  0.00    +0.000 A 
ATOM      5  O   UNL     1       7.711   4.016  16.361  0.00  0.00    +0.000 OA
ATOM      6  N   UNL     1       6.525   5.906  16.848  0.00  0.00    +0.000 N 
ATOM      7  C   UNL     1       5.435   6.552  17.377  0.00  0.00    +0.000 A 
ATOM      8  O   UNL     1       5.391   7.763  17.601  0.00  0.00    +0.000 OA
ATOM      9  H   UNL     1       5.637   2.816  17.033  0.00  0.00    +0.000 HD
ENDROOT
BRANCH   1  11
ATOM     10  O   UNL     1       1.889   5.951  17.497  0.00  0.00    +0.000 OA
ATOM     11  C   UNL     1       2.923   6.296  18.067  0.00  0.00    +0.000 C 
ATOM     12  N   UNL     1       2.994   7.281  19.030  0.00  0.00    +0.000 N 
ATOM     13  H   UNL     1       3.919   7.514  19.397  0.00  0.00    +0.000 HD
BRANCH  12  14
ATOM     14  C   UNL     1       1.931   8.062  19.538  0.00  0.00    +0.000 A 
ATOM     15  C   UNL     1       1.386   9.154  18.862  0.00  0.00    +0.000 A 
ATOM     16  C   UNL     1       0.365   9.912  19.442  0.00  0.00    +0.000 A 
ATOM     17  C   UNL     1      -0.119   9.585  20.705  0.00  0.00    +0.000 A 
ATOM     18  C   UNL     1       0.402   8.485  21.380  0.00  0.00    +0.000 A 
ATOM     19  C   UNL     1       1.416   7.718  20.794  0.00  0.00    +0.000 A 
ENDBRANCH  12  14
ENDBRANCH   1  11
BRANCH   2  20
ATOM     20  N   UNL     1       3.364   3.408  17.736  0.00  0.00    +0.000 N 
ATOM     21  H   UNL     1       2.532   3.680  17.187  0.00  0.00    +0.000 HD
BRANCH  20  22
ATOM     22  C   UNL     1       2.817   3.108  19.024  0.00  0.00    +0.000 A 
ATOM     23  C   UNL     1       3.596   2.800  20.145  0.00  0.00    +0.000 A 
ATOM     24  C   UNL     1       2.999   2.622  21.398  0.00  0.00    +0.000 A 
ATOM     25  C   UNL     1       1.616   2.723  21.541  0.00  0.00    +0.000 A 
ATOM     26  C   UNL     1       0.825   2.990  20.428  0.00  0.00    +0.000 A 
ATOM     27  C   UNL     1       1.422   3.178  19.178  0.00  0.00    +0.000 A 
ENDBRANCH  20  22
ENDBRANCH   2  20
BRANCH   6  28
ATOM     28  O   UNL     1       7.652   6.693  16.527  0.00  0.00    +0.000 OA
ATOM     29  H   UNL     1       7.352   7.162  15.722  0.00  0.00    +0.000 HD
ENDBRANCH   6  28
TORSDOF 5
ENDMDL
MODEL 7
REMARK VINA RESULT:      -8.3      2.202      5.578
REMARK  Name = 
REMARK  5 active torsions:
REMARK  status: ('A' for Active; 'I' for Inactive)
REMARK    1  A    between atoms: C_2  and  C_10
REMARK    2  A    between atoms: N_3  and  C_4
REMARK    3  A    between atoms: C_11  and  N_12
REMARK    4  A    between atoms: N_12  and  C_13
REMARK    5  A    between atoms: N_22  and  O_23
REMARK                            x       y       z     vdW  Elec       q    Type
REMARK                         _______ _______ _______ _____ _____    ______ ____
ROOT
ATOM      1  C   UNL     1       2.343   7.279  19.005  0.00  0.00    +0.000 A 
ATOM      2  C   UNL     1       2.152   6.860  20.285  0.00  0.00    +0.000 A 
ATOM      3  N   UNL     1       1.516   7.697  21.175  0.00  0.00    +0.000 N 
ATOM      4  C   UNL     1       1.096   8.963  20.911  0.00  0.00    +0.000 A 
ATOM      5  O   UNL     1       0.558   9.668  21.763  0.00  0.00    +0.000 OA
ATOM      6  N   UNL     1       1.303   9.383  19.623  0.00  0.00    +0.000 N 
ATOM      7  C   UNL     1       1.794   8.608  18.603  0.00  0.00    +0.000 A 
ATOM      8  O   UNL     1       1.823   8.957  17.421  0.00  0.00    +0.000 OA
ATOM      9  H   UNL     1       1.418   7.362  22.127  0.00  0.00    +0.000 HD
ENDROOT
BRANCH   1  11
ATOM     10  O   UNL     1       2.503   5.426  17.529  0.00  0.00    +0.000 OA
ATOM     11  C   UNL     1       3.073   6.399  18.019  0.00  0.00    +0.000 C 
ATOM     12  N   UNL     1       4.396   6.722  17.801  0.00  0.00    +0.000 N 
ATOM     13  H   UNL     1       4.772   7.530  18.303  0.00  0.00    +0.000 HD
BRANCH  12  14
ATOM     14  C   UNL     1       5.329   6.026  17.000  0.00  0.00    +0.000 A 
ATOM     15  C   UNL     1       5.264   5.976  15.608  0.00  0.00    +0.000 A 
ATOM     16  C   UNL     1       6.194   5.231  14.877  0.00  0.00    +0.000 A 
ATOM     17  C   UNL     1       7.198   4.527  15.535  0.00  0.00    +0.000 A 
ATOM     18  C   UNL     1       7.287   4.586  16.923  0.00  0.00    +0.000 A 
ATOM     19  C   UNL     1       6.363   5.342  17.654  0.00  0.00    +0.000 A 
ENDBRANCH  12  14
ENDBRANCH   1  11
BRANCH   2  20
ATOM     20  N   UNL     1       2.625   5.666  20.830  0.00  0.00    +0.000 N 
ATOM     21  H   UNL     1       3.656   5.640  20.768  0.00  0.00    +0.000 HD
BRANCH  20  22
ATOM     22  C   UNL     1       2.238   4.380  20.335  0.00  0.00    +0.000 A 
ATOM     23  C   UNL     1       0.908   3.997  20.128  0.00  0.00    +0.000 A 
ATOM     24  C   UNL     1       0.608   2.762  19.541  0.00  0.00    +0.000 A 
ATOM     25  C   UNL     1       1.630   1.887  19.179  0.00  0.00    +0.000 A 
ATOM     26  C   UNL     1       2.956   2.238  19.415  0.00  0.00    +0.000 A 
ATOM     27  C   UNL     1       3.256   3.475  19.992  0.00  0.00    +0.000 A 
ENDBRANCH  20  22
ENDBRANCH   2  20
BRANCH   6  28
ATOM     28  O   UNL     1       0.822  10.667  19.287  0.00  0.00    +0.000 OA
ATOM     29  H   UNL     1       1.601  11.231  19.467  0.00  0.00    +0.000 HD
ENDBRANCH   6  28
TORSDOF 5
ENDMDL
MODEL 8
REMARK VINA RESULT:      -8.3      2.323      4.509
REMARK  Name = 
REMARK  5 active torsions:
REMARK  status: ('A' for Active; 'I' for Inactive)
REMARK    1  A    between atoms: C_2  and  C_10
REMARK    2  A    between atoms: N_3  and  C_4
REMARK    3  A    between atoms: C_11  and  N_12
REMARK    4  A    between atoms: N_12  and  C_13
REMARK    5  A    between atoms: N_22  and  O_23
REMARK                            x       y       z     vdW  Elec       q    Type
REMARK                         _______ _______ _______ _____ _____    ______ ____
ROOT
ATOM      1  C   UNL     1       3.200   4.793  19.622  0.00  0.00    +0.000 A 
ATOM      2  C   UNL     1       4.433   4.504  19.124  0.00  0.00    +0.000 A 
ATOM      3  N   UNL     1       5.070   3.357  19.541  0.00  0.00    +0.000 N 
ATOM      4  C   UNL     1       4.602   2.485  20.474  0.00  0.00    +0.000 A 
ATOM      5  O   UNL     1       5.238   1.491  20.822  0.00  0.00    +0.000 OA
ATOM      6  N   UNL     1       3.366   2.789  20.980  0.00  0.00    +0.000 N 
ATOM      7  C   UNL     1       2.563   3.817  20.553  0.00  0.00    +0.000 A 
ATOM      8  O   UNL     1       1.394   3.975  20.911  0.00  0.00    +0.000 OA
ATOM      9  H   UNL     1       5.999   3.191  19.171  0.00  0.00    +0.000 HD
ENDROOT
BRANCH   1  11
ATOM     10  O   UNL     1       2.311   6.305  18.021  0.00  0.00    +0.000 OA
ATOM     11  C   UNL     1       2.495   6.065  19.213  0.00  0.00    +0.000 C 
ATOM     12  N   UNL     1       2.176   6.925  20.243  0.00  0.00    +0.000 N 
ATOM     13  H   UNL     1       2.422   6.633  21.192  0.00  0.00    +0.000 HD
BRANCH  12  14
ATOM     14  C   UNL     1       1.594   8.208  20.140  0.00  0.00    +0.000 A 
ATOM     15  C   UNL     1       1.671   9.000  18.995  0.00  0.00    +0.000 A 
ATOM     16  C   UNL     1       1.111  10.280  18.975  0.00  0.00    +0.000 A 
ATOM     17  C   UNL     1       0.468  10.780  20.103  0.00  0.00    +0.000 A 
ATOM     18  C   UNL     1       0.365   9.991  21.246  0.00  0.00    +0.000 A 
ATOM     19  C   UNL     1       0.916   8.704  21.261  0.00  0.00    +0.000 A 
ENDBRANCH  12  14
ENDBRANCH   1  11
BRANCH   2  20
ATOM     20  N   UNL     1       5.179   5.319  18.272  0.00  0.00    +0.000 N 
ATOM     21  H   UNL     1       4.657   6.188  18.077  0.00  0.00    +0.000 HD
BRANCH  20  22
ATOM     22  C   UNL     1       5.604   4.898  16.971  0.00  0.00    +0.000 A 
ATOM     23  C   UNL     1       4.792   4.185  16.083  0.00  0.00    +0.000 A 
ATOM     24  C   UNL     1       5.236   3.900  14.786  0.00  0.00    +0.000 A 
ATOM     25  C   UNL     1       6.506   4.300  14.373  0.00  0.00    +0.000 A 
ATOM     26  C   UNL     1       7.340   4.976  15.259  0.00  0.00    +0.000 A 
ATOM     27  C   UNL     1       6.891   5.270  16.549  0.00  0.00    +0.000 A 
ENDBRANCH  20  22
ENDBRANCH   2  20
BRANCH   6  28
ATOM     28  O   UNL     1       2.813   1.874  21.902  0.00  0.00    +0.000 OA
ATOM     29  H   UNL     1       1.942   2.279  22.094  0.00  0.00    +0.000 HD
ENDBRANCH   6  28
TORSDOF 5
ENDMDL
MODEL 9
REMARK VINA RESULT:      -8.3      1.434      2.016
REMARK  Name = 
REMARK  5 active torsions:
REMARK  status: ('A' for Active; 'I' for Inactive)
REMARK    1  A    between atoms: C_2  and  C_10
REMARK    2  A    between atoms: N_3  and  C_4
REMARK    3  A    between atoms: C_11  and  N_12
REMARK    4  A    between atoms: N_12  and  C_13
REMARK    5  A    between atoms: N_22  and  O_23
REMARK                            x       y       z     vdW  Elec       q    Type
REMARK                         _______ _______ _______ _____ _____    ______ ____
ROOT
ATOM      1  C   UNL     1       4.432   5.659  17.484  0.00  0.00    +0.000 A 
ATOM      2  C   UNL     1       3.971   4.445  17.079  0.00  0.00    +0.000 A 
ATOM      3  N   UNL     1       4.685   3.739  16.138  0.00  0.00    +0.000 N 
ATOM      4  C   UNL     1       5.810   4.171  15.507  0.00  0.00    +0.000 A 
ATOM      5  O   UNL     1       6.384   3.499  14.652  0.00  0.00    +0.000 OA
ATOM      6  N   UNL     1       6.261   5.401  15.910  0.00  0.00    +0.000 N 
ATOM      7  C   UNL     1       5.730   6.146  16.934  0.00  0.00    +0.000 A 
ATOM      8  O   UNL     1       6.247   7.172  17.382  0.00  0.00    +0.000 OA
ATOM      9  H   UNL     1       4.295   2.852  15.840  0.00  0.00    +0.000 HD
ENDROOT
BRANCH   1  11
ATOM     10  O   UNL     1       3.663   6.160  19.675  0.00  0.00    +0.000 OA
ATOM     11  C   UNL     1       3.648   6.474  18.486  0.00  0.00    +0.000 C 
ATOM     12  N   UNL     1       2.883   7.492  17.955  0.00  0.00    +0.000 N 
ATOM     13  H   UNL     1       2.918   7.627  16.943  0.00  0.00    +0.000 HD
BRANCH  12  14
ATOM     14  C   UNL     1       1.997   8.349  18.646  0.00  0.00    +0.000 A 
ATOM     15  C   UNL     1       1.693   8.214  20.000  0.00  0.00    +0.000 A 
ATOM     16  C   UNL     1       0.773   9.069  20.613  0.00  0.00    +0.000 A 
ATOM     17  C   UNL     1       0.147  10.068  19.873  0.00  0.00    +0.000 A 
ATOM     18  C   UNL     1       0.458  10.228  18.526  0.00  0.00    +0.000 A 
ATOM     19  C   UNL     1       1.389   9.379  17.916  0.00  0.00    +0.000 A 
ENDBRANCH  12  14
ENDBRANCH   1  11
BRANCH   2  20
ATOM     20  N   UNL     1       2.766   3.859  17.470  0.00  0.00    +0.000 N 
ATOM     21  H   UNL     1       1.990   4.521  17.309  0.00  0.00    +0.000 HD
BRANCH  20  22
ATOM     22  C   UNL     1       2.525   3.396  18.802  0.00  0.00    +0.000 A 
ATOM     23  C   UNL     1       3.485   2.739  19.581  0.00  0.00    +0.000 A 
ATOM     24  C   UNL     1       3.213   2.409  20.914  0.00  0.00    +0.000 A 
ATOM     25  C   UNL     1       1.972   2.706  21.475  0.00  0.00    +0.000 A 
ATOM     26  C   UNL     1       0.994   3.324  20.701  0.00  0.00    +0.000 A 
ATOM     27  C   UNL     1       1.269   3.663  19.373  0.00  0.00    +0.000 A 
ENDBRANCH  20  22
ENDBRANCH   2  20
BRANCH   6  28
ATOM     28  O   UNL     1       7.464   5.859  15.331  0.00  0.00    +0.000 OA
ATOM     29  H   UNL     1       7.487   5.362  14.488  0.00  0.00    +0.000 HD
ENDBRANCH   6  28
TORSDOF 5
ENDMDL
