MODEL 1
REMARK VINA RESULT:      -8.5      0.000      0.000
REMARK  Name = 
REMARK  3 active torsions:
REMARK  status: ('A' for Active; 'I' for Inactive)
REMARK    1  A    between atoms: C_1  and  N_2
REMARK    2  A    between atoms: C_4  and  C_5
REMARK    3  A    between atoms: C_6  and  C_7
REMARK                            x       y       z     vdW  Elec       q    Type
REMARK                         _______ _______ _______ _____ _____    ______ ____
ROOT
ATOM      1  C   UNL     1       3.541   3.512  18.593  0.00  0.00    +0.000 C 
ATOM      2  C   UNL     1       2.453   4.072  19.147  0.00  0.00    +0.000 C 
ATOM      3  C   UNL     1       1.441   2.990  19.279  0.00  0.00    +0.000 C 
ATOM      4  O   UNL     1       0.324   3.077  19.758  0.00  0.00    +0.000 OA
ATOM      5  N   UNL     1       1.983   1.861  18.778  0.00  0.00    +0.000 N 
ATOM      6  C   UNL     1       3.235   2.087  18.338  0.00  0.00    +0.000 C 
ATOM      7  O   UNL     1       3.964   1.263  17.815  0.00  0.00    +0.000 OA
ATOM      8  H   UNL     1       1.512   0.975  18.733  0.00  0.00    +0.000 HD
ENDROOT
BRANCH   1  12
ATOM      9  C   UNL     1       7.956   5.647  19.030  0.00  0.00    +0.000 C 
ATOM     10  N   UNL     1       6.773   5.062  18.442  0.00  0.00    +0.000 N 
ATOM     11  C   UNL     1       5.694   4.598  19.151  0.00  0.00    +0.000 A 
ATOM     12  C   UNL     1       4.783   4.100  18.246  0.00  0.00    +0.000 A 
ATOM     13  C   UNL     1       5.329   4.258  16.938  0.00  0.00    +0.000 A 
ATOM     14  C   UNL     1       4.892   3.921  15.638  0.00  0.00    +0.000 A 
ATOM     15  C   UNL     1       5.699   4.227  14.538  0.00  0.00    +0.000 A 
ATOM     16  C   UNL     1       6.925   4.861  14.712  0.00  0.00    +0.000 A 
ATOM     17  C   UNL     1       7.388   5.192  15.988  0.00  0.00    +0.000 A 
ATOM     18  C   UNL     1       6.575   4.875  17.089  0.00  0.00    +0.000 A 
ENDBRANCH   1  12
BRANCH   2  19
ATOM     19  C   UNL     1       2.234   5.423  19.545  0.00  0.00    +0.000 A 
ATOM     20  C   UNL     1       2.377   6.603  18.766  0.00  0.00    +0.000 A 
ATOM     21  C   UNL     1       2.031   7.673  19.560  0.00  0.00    +0.000 A 
ATOM     22  N   UNL     1       1.695   7.189  20.795  0.00  0.00    +0.000 N 
ATOM     23  C   UNL     1       1.813   5.824  20.795  0.00  0.00    +0.000 A 
ATOM     24  H   UNL     1       1.403   7.749  21.584  0.00  0.00    +0.000 HD
ENDBRANCH   2  19
TORSDOF 2
ENDMDL
MODEL 2
REMARK VINA RESULT:      -8.2      2.289      5.710
REMARK  Name = 
REMARK  3 active torsions:
REMARK  status: ('A' for Active; 'I' for Inactive)
REMARK    1  A    between atoms: C_1  and  N_2
REMARK    2  A    between atoms: C_4  and  C_5
REMARK    3  A    between atoms: C_6  and  C_7
REMARK                            x       y       z     vdW  Elec       q    Type
REMARK                         _______ _______ _______ _____ _____    ______ ____
ROOT
ATOM      1  C   UNL     1       5.038   5.446  17.293  0.00  0.00    +0.000 C 
ATOM      2  C   UNL     1       6.373   5.584  17.245  0.00  0.00    +0.000 C 
ATOM      3  C   UNL     1       6.898   4.377  16.551  0.00  0.00    +0.000 C 
ATOM      4  O   UNL     1       8.060   4.125  16.283  0.00  0.00    +0.000 OA
ATOM      5  N   UNL     1       5.845   3.590  16.247  0.00  0.00    +0.000 N 
ATOM      6  C   UNL     1       4.694   4.151  16.664  0.00  0.00    +0.000 C 
ATOM      7  O   UNL     1       3.584   3.664  16.549  0.00  0.00    +0.000 OA
ATOM      8  H   UNL     1       5.913   2.703  15.782  0.00  0.00    +0.000 HD
ENDROOT
BRANCH   1  12
ATOM      9  C   UNL     1       2.077   9.330  17.919  0.00  0.00    +0.000 C 
ATOM     10  N   UNL     1       2.726   8.056  18.134  0.00  0.00    +0.000 N 
ATOM     11  C   UNL     1       3.714   7.537  17.338  0.00  0.00    +0.000 A 
ATOM     12  C   UNL     1       4.060   6.306  17.851  0.00  0.00    +0.000 A 
ATOM     13  C   UNL     1       3.248   6.063  18.998  0.00  0.00    +0.000 A 
ATOM     14  C   UNL     1       3.119   4.990  19.907  0.00  0.00    +0.000 A 
ATOM     15  C   UNL     1       2.194   5.078  20.952  0.00  0.00    +0.000 A 
ATOM     16  C   UNL     1       1.404   6.212  21.105  0.00  0.00    +0.000 A 
ATOM     17  C   UNL     1       1.500   7.283  20.211  0.00  0.00    +0.000 A 
ATOM     18  C   UNL     1       2.426   7.183  19.160  0.00  0.00    +0.000 A 
ENDBRANCH   1  12
BRANCH   2  19
ATOM     19  C   UNL     1       7.193   6.636  17.745  0.00  0.00    +0.000 A 
ATOM     20  C   UNL     1       7.334   7.957  17.239  0.00  0.00    +0.000 A 
ATOM     21  C   UNL     1       8.213   8.628  18.059  0.00  0.00    +0.000 A 
ATOM     22  N   UNL     1       8.621   7.762  19.036  0.00  0.00    +0.000 N 
ATOM     23  C   UNL     1       8.007   6.551  18.856  0.00  0.00    +0.000 A 
ATOM     24  H   UNL     1       9.272   7.980  19.778  0.00  0.00    +0.000 HD
ENDBRANCH   2  19
TORSDOF 2
ENDMDL
MODEL 3
REMARK VINA RESULT:      -8.0      1.181      1.242
REMARK  Name = 
REMARK  3 active torsions:
REMARK  status: ('A' for Active; 'I' for Inactive)
REMARK    1  A    between atoms: C_1  and  N_2
REMARK    2  A    between atoms: C_4  and  C_5
REMARK    3  A    between atoms: C_6  and  C_7
REMARK                            x       y       z     vdW  Elec       q    Type
REMARK                         _______ _______ _______ _____ _____    ______ ____
ROOT
ATOM      1  C   UNL     1       3.920   4.405  19.315  0.00  0.00    +0.000 C 
ATOM      2  C   UNL     1       2.765   5.043  19.567  0.00  0.00    +0.000 C 
ATOM      3  C   UNL     1       1.872   4.054  20.229  0.00  0.00    +0.000 C 
ATOM      4  O   UNL     1       0.741   4.239  20.642  0.00  0.00    +0.000 OA
ATOM      5  N   UNL     1       2.545   2.888  20.313  0.00  0.00    +0.000 N 
ATOM      6  C   UNL     1       3.776   3.008  19.780  0.00  0.00    +0.000 C 
ATOM      7  O   UNL     1       4.602   2.117  19.692  0.00  0.00    +0.000 OA
ATOM      8  H   UNL     1       2.174   2.043  20.710  0.00  0.00    +0.000 HD
ENDROOT
BRANCH   1  12
ATOM      9  C   UNL     1       8.282   6.601  18.689  0.00  0.00    +0.000 C 
ATOM     10  N   UNL     1       7.065   5.874  18.409  0.00  0.00    +0.000 N 
ATOM     11  C   UNL     1       6.081   5.612  19.328  0.00  0.00    +0.000 A 
ATOM     12  C   UNL     1       5.099   4.885  18.692  0.00  0.00    +0.000 A 
ATOM     13  C   UNL     1       5.503   4.689  17.338  0.00  0.00    +0.000 A 
ATOM     14  C   UNL     1       4.946   4.014  16.230  0.00  0.00    +0.000 A 
ATOM     15  C   UNL     1       5.625   4.017  15.007  0.00  0.00    +0.000 A 
ATOM     16  C   UNL     1       6.841   4.681  14.873  0.00  0.00    +0.000 A 
ATOM     17  C   UNL     1       7.421   5.345  15.958  0.00  0.00    +0.000 A 
ATOM     18  C   UNL     1       6.736   5.330  17.184  0.00  0.00    +0.000 A 
ENDBRANCH   1  12
BRANCH   2  19
ATOM     19  C   UNL     1       2.391   6.387  19.278  0.00  0.00    +0.000 A 
ATOM     20  C   UNL     1       2.354   7.038  18.016  0.00  0.00    +0.000 A 
ATOM     21  C   UNL     1       1.905   8.323  18.220  0.00  0.00    +0.000 A 
ATOM     22  N   UNL     1       1.679   8.482  19.559  0.00  0.00    +0.000 N 
ATOM     23  C   UNL     1       1.969   7.312  20.211  0.00  0.00    +0.000 A 
ATOM     24  H   UNL     1       1.348   9.328  20.002  0.00  0.00    +0.000 HD
ENDBRANCH   2  19
TORSDOF 2
ENDMDL
MODEL 4
REMARK VINA RESULT:      -8.0      2.221      5.541
REMARK  Name = 
REMARK  3 active torsions:
REMARK  status: ('A' for Active; 'I' for Inactive)
REMARK    1  A    between atoms: C_1  and  N_2
REMARK    2  A    between atoms: C_4  and  C_5
REMARK    3  A    between atoms: C_6  and  C_7
REMARK                            x       y       z     vdW  Elec       q    Type
REMARK                         _______ _______ _______ _____ _____    ______ ____
ROOT
ATOM      1  C   UNL     1       5.074   5.040  16.988  0.00  0.00    +0.000 C 
ATOM      2  C   UNL     1       6.324   5.464  16.740  0.00  0.00    +0.000 C 
ATOM      3  C   UNL     1       6.768   4.771  15.500  0.00  0.00    +0.000 C 
ATOM      4  O   UNL     1       7.834   4.898  14.924  0.00  0.00    +0.000 OA
ATOM      5  N   UNL     1       5.762   3.967  15.100  0.00  0.00    +0.000 N 
ATOM      6  C   UNL     1       4.713   4.059  15.940  0.00  0.00    +0.000 C 
ATOM      7  O   UNL     1       3.672   3.435  15.847  0.00  0.00    +0.000 OA
ATOM      8  H   UNL     1       5.796   3.372  14.291  0.00  0.00    +0.000 HD
ENDROOT
BRANCH   1  12
ATOM      9  C   UNL     1       2.074   7.667  19.875  0.00  0.00    +0.000 C 
ATOM     10  N   UNL     1       2.846   6.564  19.349  0.00  0.00    +0.000 N 
ATOM     11  C   UNL     1       3.651   6.630  18.241  0.00  0.00    +0.000 A 
ATOM     12  C   UNL     1       4.198   5.381  18.048  0.00  0.00    +0.000 A 
ATOM     13  C   UNL     1       3.702   4.520  19.071  0.00  0.00    +0.000 A 
ATOM     14  C   UNL     1       3.871   3.152  19.377  0.00  0.00    +0.000 A 
ATOM     15  C   UNL     1       3.218   2.607  20.488  0.00  0.00    +0.000 A 
ATOM     16  C   UNL     1       2.406   3.400  21.292  0.00  0.00    +0.000 A 
ATOM     17  C   UNL     1       2.209   4.753  21.003  0.00  0.00    +0.000 A 
ATOM     18  C   UNL     1       2.863   5.291  19.882  0.00  0.00    +0.000 A 
ENDBRANCH   1  12
BRANCH   2  19
ATOM     19  C   UNL     1       7.132   6.379  17.475  0.00  0.00    +0.000 A 
ATOM     20  C   UNL     1       7.369   7.755  17.206  0.00  0.00    +0.000 A 
ATOM     21  C   UNL     1       8.190   8.240  18.198  0.00  0.00    +0.000 A 
ATOM     22  N   UNL     1       8.473   7.209  19.052  0.00  0.00    +0.000 N 
ATOM     23  C   UNL     1       7.834   6.076  18.623  0.00  0.00    +0.000 A 
ATOM     24  H   UNL     1       9.059   7.272  19.873  0.00  0.00    +0.000 HD
ENDBRANCH   2  19
TORSDOF 2
ENDMDL
MODEL 5
REMARK VINA RESULT:      -8.0      0.847      2.248
REMARK  Name = 
REMARK  3 active torsions:
REMARK  status: ('A' for Active; 'I' for Inactive)
REMARK    1  A    between atoms: C_1  and  N_2
REMARK    2  A    between atoms: C_4  and  C_5
REMARK    3  A    between atoms: C_6  and  C_7
REMARK                            x       y       z     vdW  Elec       q    Type
REMARK                         _______ _______ _______ _____ _____    ______ ____
ROOT
ATOM      1  C   UNL     1       3.387   3.458  18.351  0.00  0.00    +0.000 C 
ATOM      2  C   UNL     1       2.462   4.081  19.099  0.00  0.00    +0.000 C 
ATOM      3  C   UNL     1       1.572   3.019  19.640  0.00  0.00    +0.000 C 
ATOM      4  O   UNL     1       0.620   3.162  20.387  0.00  0.00    +0.000 OA
ATOM      5  N   UNL     1       2.012   1.836  19.165  0.00  0.00    +0.000 N 
ATOM      6  C   UNL     1       3.090   2.009  18.376  0.00  0.00    +0.000 C 
ATOM      7  O   UNL     1       3.690   1.127  17.789  0.00  0.00    +0.000 OA
ATOM      8  H   UNL     1       1.586   0.948  19.365  0.00  0.00    +0.000 HD
ENDROOT
BRANCH   1  12
ATOM      9  C   UNL     1       6.201   4.776  14.531  0.00  0.00    +0.000 C 
ATOM     10  N   UNL     1       5.732   4.597  15.886  0.00  0.00    +0.000 N 
ATOM     11  C   UNL     1       4.575   3.949  16.235  0.00  0.00    +0.000 A 
ATOM     12  C   UNL     1       4.464   4.003  17.607  0.00  0.00    +0.000 A 
ATOM     13  C   UNL     1       5.590   4.716  18.112  0.00  0.00    +0.000 A 
ATOM     14  C   UNL     1       6.011   5.113  19.401  0.00  0.00    +0.000 A 
ATOM     15  C   UNL     1       7.205   5.826  19.549  0.00  0.00    +0.000 A 
ATOM     16  C   UNL     1       7.981   6.145  18.440  0.00  0.00    +0.000 A 
ATOM     17  C   UNL     1       7.581   5.778  17.152  0.00  0.00    +0.000 A 
ATOM     18  C   UNL     1       6.377   5.069  17.011  0.00  0.00    +0.000 A 
ENDBRANCH   1  12
BRANCH   2  19
ATOM     19  C   UNL     1       2.295   5.471  19.361  0.00  0.00    +0.000 A 
ATOM     20  C   UNL     1       2.362   6.554  18.442  0.00  0.00    +0.000 A 
ATOM     21  C   UNL     1       2.110   7.712  19.141  0.00  0.00    +0.000 A 
ATOM     22  N   UNL     1       1.905   7.378  20.451  0.00  0.00    +0.000 N 
ATOM     23  C   UNL     1       2.013   6.020  20.595  0.00  0.00    +0.000 A 
ATOM     24  H   UNL     1       1.703   8.028  21.198  0.00  0.00    +0.000 HD
ENDBRANCH   2  19
TORSDOF 2
ENDMDL
MODEL 6
REMARK VINA RESULT:      -7.9      2.231      5.474
REMARK  Name = 
REMARK  3 active torsions:
REMARK  status: ('A' for Active; 'I' for Inactive)
REMARK    1  A    between atoms: C_1  and  N_2
REMARK    2  A    between atoms: C_4  and  C_5
REMARK    3  A    between atoms: C_6  and  C_7
REMARK                            x       y       z     vdW  Elec       q    Type
REMARK                         _______ _______ _______ _____ _____    ______ ____
ROOT
ATOM      1  C   UNL     1       5.095   5.016  17.055  0.00  0.00    +0.000 C 
ATOM      2  C   UNL     1       6.335   5.466  16.801  0.00  0.00    +0.000 C 
ATOM      3  C   UNL     1       6.786   4.783  15.558  0.00  0.00    +0.000 C 
ATOM      4  O   UNL     1       7.845   4.932  14.976  0.00  0.00    +0.000 OA
ATOM      5  N   UNL     1       5.794   3.959  15.163  0.00  0.00    +0.000 N 
ATOM      6  C   UNL     1       4.748   4.029  16.009  0.00  0.00    +0.000 C 
ATOM      7  O   UNL     1       3.719   3.384  15.922  0.00  0.00    +0.000 OA
ATOM      8  H   UNL     1       5.835   3.365  14.353  0.00  0.00    +0.000 HD
ENDROOT
BRANCH   1  12
ATOM      9  C   UNL     1       2.608   4.682  21.291  0.00  0.00    +0.000 C 
ATOM     10  N   UNL     1       3.097   5.189  20.029  0.00  0.00    +0.000 N 
ATOM     11  C   UNL     1       3.980   4.532  19.212  0.00  0.00    +0.000 A 
ATOM     12  C   UNL     1       4.218   5.339  18.121  0.00  0.00    +0.000 A 
ATOM     13  C   UNL     1       3.458   6.535  18.283  0.00  0.00    +0.000 A 
ATOM     14  C   UNL     1       3.313   7.721  17.532  0.00  0.00    +0.000 A 
ATOM     15  C   UNL     1       2.460   8.730  17.992  0.00  0.00    +0.000 A 
ATOM     16  C   UNL     1       1.753   8.573  19.180  0.00  0.00    +0.000 A 
ATOM     17  C   UNL     1       1.890   7.414  19.951  0.00  0.00    +0.000 A 
ATOM     18  C   UNL     1       2.754   6.410  19.485  0.00  0.00    +0.000 A 
ENDBRANCH   1  12
BRANCH   2  19
ATOM     19  C   UNL     1       7.128   6.397  17.532  0.00  0.00    +0.000 A 
ATOM     20  C   UNL     1       7.362   7.769  17.244  0.00  0.00    +0.000 A 
ATOM     21  C   UNL     1       8.167   8.275  18.239  0.00  0.00    +0.000 A 
ATOM     22  N   UNL     1       8.442   7.260  19.114  0.00  0.00    +0.000 N 
ATOM     23  C   UNL     1       7.814   6.117  18.695  0.00  0.00    +0.000 A 
ATOM     24  H   UNL     1       9.016   7.339  19.942  0.00  0.00    +0.000 HD
ENDBRANCH   2  19
TORSDOF 2
ENDMDL
MODEL 7
REMARK VINA RESULT:      -7.5      2.415      5.687
REMARK  Name = 
REMARK  3 active torsions:
REMARK  status: ('A' for Active; 'I' for Inactive)
REMARK    1  A    between atoms: C_1  and  N_2
REMARK    2  A    between atoms: C_4  and  C_5
REMARK    3  A    between atoms: C_6  and  C_7
REMARK                            x       y       z     vdW  Elec       q    Type
REMARK                         _______ _______ _______ _____ _____    ______ ____
ROOT
ATOM      1  C   UNL     1       5.545   4.660  15.852  0.00  0.00    +0.000 C 
ATOM      2  C   UNL     1       6.716   5.308  15.968  0.00  0.00    +0.000 C 
ATOM      3  C   UNL     1       7.357   5.266  14.626  0.00  0.00    +0.000 C 
ATOM      4  O   UNL     1       8.420   5.761  14.298  0.00  0.00    +0.000 OA
ATOM      5  N   UNL     1       6.536   4.581  13.803  0.00  0.00    +0.000 N 
ATOM      6  C   UNL     1       5.432   4.174  14.459  0.00  0.00    +0.000 C 
ATOM      7  O   UNL     1       4.524   3.517  13.984  0.00  0.00    +0.000 OA
ATOM      8  H   UNL     1       6.727   4.392  12.835  0.00  0.00    +0.000 HD
ENDROOT
BRANCH   1  12
ATOM      9  C   UNL     1       2.549   2.230  18.912  0.00  0.00    +0.000 C 
ATOM     10  N   UNL     1       3.203   3.312  18.211  0.00  0.00    +0.000 N 
ATOM     11  C   UNL     1       4.162   3.151  17.244  0.00  0.00    +0.000 A 
ATOM     12  C   UNL     1       4.552   4.406  16.832  0.00  0.00    +0.000 A 
ATOM     13  C   UNL     1       3.810   5.367  17.580  0.00  0.00    +0.000 A 
ATOM     14  C   UNL     1       3.789   6.778  17.628  0.00  0.00    +0.000 A 
ATOM     15  C   UNL     1       2.913   7.425  18.505  0.00  0.00    +0.000 A 
ATOM     16  C   UNL     1       2.062   6.693  19.327  0.00  0.00    +0.000 A 
ATOM     17  C   UNL     1       2.073   5.295  19.309  0.00  0.00    +0.000 A 
ATOM     18  C   UNL     1       2.961   4.653  18.432  0.00  0.00    +0.000 A 
ENDBRANCH   1  12
BRANCH   2  19
ATOM     19  C   UNL     1       7.300   5.927  17.111  0.00  0.00    +0.000 A 
ATOM     20  C   UNL     1       7.590   7.303  17.314  0.00  0.00    +0.000 A 
ATOM     21  C   UNL     1       8.123   7.437  18.576  0.00  0.00    +0.000 A 
ATOM     22  N   UNL     1       8.180   6.193  19.143  0.00  0.00    +0.000 N 
ATOM     23  C   UNL     1       7.680   5.270  18.262  0.00  0.00    +0.000 A 
ATOM     24  H   UNL     1       8.532   5.986  20.067  0.00  0.00    +0.000 HD
ENDBRANCH   2  19
TORSDOF 2
ENDMDL
MODEL 8
REMARK VINA RESULT:      -7.2      1.673      3.463
REMARK  Name = 
REMARK  3 active torsions:
REMARK  status: ('A' for Active; 'I' for Inactive)
REMARK    1  A    between atoms: C_1  and  N_2
REMARK    2  A    between atoms: C_4  and  C_5
REMARK    3  A    between atoms: C_6  and  C_7
REMARK                            x       y       z     vdW  Elec       q    Type
REMARK                         _______ _______ _______ _____ _____    ______ ____
ROOT
ATOM      1  C   UNL     1       3.514   5.008  19.106  0.00  0.00    +0.000 C 
ATOM      2  C   UNL     1       3.044   3.810  19.490  0.00  0.00    +0.000 C 
ATOM      3  C   UNL     1       1.694   4.050  20.068  0.00  0.00    +0.000 C 
ATOM      4  O   UNL     1       0.921   3.219  20.510  0.00  0.00    +0.000 OA
ATOM      5  N   UNL     1       1.454   5.376  20.007  0.00  0.00    +0.000 N 
ATOM      6  C   UNL     1       2.496   6.025  19.453  0.00  0.00    +0.000 C 
ATOM      7  O   UNL     1       2.577   7.229  19.288  0.00  0.00    +0.000 OA
ATOM      8  H   UNL     1       0.616   5.819  20.339  0.00  0.00    +0.000 HD
ENDROOT
BRANCH   1  12
ATOM      9  C   UNL     1       8.070   6.783  18.529  0.00  0.00    +0.000 C 
ATOM     10  N   UNL     1       6.806   6.142  18.244  0.00  0.00    +0.000 N 
ATOM     11  C   UNL     1       5.769   6.028  19.134  0.00  0.00    +0.000 A 
ATOM     12  C   UNL     1       4.753   5.343  18.505  0.00  0.00    +0.000 A 
ATOM     13  C   UNL     1       5.190   5.020  17.187  0.00  0.00    +0.000 A 
ATOM     14  C   UNL     1       4.620   4.317  16.102  0.00  0.00    +0.000 A 
ATOM     15  C   UNL     1       5.343   4.179  14.913  0.00  0.00    +0.000 A 
ATOM     16  C   UNL     1       6.615   4.728  14.789  0.00  0.00    +0.000 A 
ATOM     17  C   UNL     1       7.208   5.415  15.851  0.00  0.00    +0.000 A 
ATOM     18  C   UNL     1       6.479   5.543  17.045  0.00  0.00    +0.000 A 
ENDBRANCH   1  12
BRANCH   2  19
ATOM     19  C   UNL     1       3.659   2.527  19.406  0.00  0.00    +0.000 A 
ATOM     20  C   UNL     1       4.578   1.931  20.311  0.00  0.00    +0.000 A 
ATOM     21  C   UNL     1       4.879   0.675  19.837  0.00  0.00    +0.000 A 
ATOM     22  N   UNL     1       4.188   0.489  18.671  0.00  0.00    +0.000 N 
ATOM     23  C   UNL     1       3.442   1.606  18.402  0.00  0.00    +0.000 A 
ATOM     24  H   UNL     1       4.219  -0.343  18.097  0.00  0.00    +0.000 HD
ENDBRANCH   2  19
TORSDOF 2
ENDMDL
MODEL 9
REMARK VINA RESULT:      -6.9      2.102      4.174
REMARK  Name = 
REMARK  3 active torsions:
REMARK  status: ('A' for Active; 'I' for Inactive)
REMARK    1  A    between atoms: C_1  and  N_2
REMARK    2  A    between atoms: C_4  and  C_5
REMARK    3  A    between atoms: C_6  and  C_7
REMARK                            x       y       z     vdW  Elec       q    Type
REMARK                         _______ _______ _______ _____ _____    ______ ____
ROOT
ATOM      1  C   UNL     1       3.034   5.102  19.395  0.00  0.00    +0.000 C 
ATOM      2  C   UNL     1       2.812   3.859  19.851  0.00  0.00    +0.000 C 
ATOM      3  C   UNL     1       1.694   3.960  20.828  0.00  0.00    +0.000 C 
ATOM      4  O   UNL     1       1.172   3.052  21.450  0.00  0.00    +0.000 OA
ATOM      5  N   UNL     1       1.335   5.258  20.905  0.00  0.00    +0.000 N 
ATOM      6  C   UNL     1       2.093   6.012  20.086  0.00  0.00    +0.000 C 
ATOM      7  O   UNL     1       2.015   7.221  19.959  0.00  0.00    +0.000 OA
ATOM      8  H   UNL     1       0.608   5.613  21.500  0.00  0.00    +0.000 HD
ENDROOT
BRANCH   1  12
ATOM      9  C   UNL     1       4.977   6.943  15.263  0.00  0.00    +0.000 C 
ATOM     10  N   UNL     1       4.866   6.393  16.595  0.00  0.00    +0.000 N 
ATOM     11  C   UNL     1       3.690   6.017  17.191  0.00  0.00    +0.000 A 
ATOM     12  C   UNL     1       3.990   5.563  18.457  0.00  0.00    +0.000 A 
ATOM     13  C   UNL     1       5.400   5.673  18.641  0.00  0.00    +0.000 A 
ATOM     14  C   UNL     1       6.279   5.401  19.712  0.00  0.00    +0.000 A 
ATOM     15  C   UNL     1       7.650   5.631  19.555  0.00  0.00    +0.000 A 
ATOM     16  C   UNL     1       8.154   6.121  18.355  0.00  0.00    +0.000 A 
ATOM     17  C   UNL     1       7.304   6.413  17.284  0.00  0.00    +0.000 A 
ATOM     18  C   UNL     1       5.928   6.187  17.452  0.00  0.00    +0.000 A 
ENDBRANCH   1  12
BRANCH   2  19
ATOM     19  C   UNL     1       3.476   2.642  19.523  0.00  0.00    +0.000 A 
ATOM     20  C   UNL     1       4.513   1.985  20.240  0.00  0.00    +0.000 A 
ATOM     21  C   UNL     1       4.825   0.829  19.561  0.00  0.00    +0.000 A 
ATOM     22  N   UNL     1       4.026   0.765  18.452  0.00  0.00    +0.000 N 
ATOM     23  C   UNL     1       3.203   1.859  18.421  0.00  0.00    +0.000 A 
ATOM     24  H   UNL     1       4.038   0.025  17.763  0.00  0.00    +0.000 HD
ENDBRANCH   2  19
TORSDOF 2
ENDMDL
