MODEL 1
REMARK VINA RESULT:      -5.6      0.000      0.000
REMARK  Name = 
REMARK  2 active torsions:
REMARK  status: ('A' for Active; 'I' for Inactive)
REMARK    1  A    between atoms: C_2  and  C_16
REMARK    2  A    between atoms: C_8  and  C_10
REMARK                            x       y       z     vdW  Elec       q    Type
REMARK                         _______ _______ _______ _____ _____    ______ ____
ROOT
ATOM      1  O   UNL     1       3.140   4.849  20.600  0.00  0.00    +0.000 OA
ATOM      2  C   UNL     1       3.077   4.190  19.545  0.00  0.00    +0.000 C 
ATOM      3  N   UNL     1       3.732   4.727  18.427  0.00  0.00    +0.000 N 
ATOM      4  C   UNL     1       4.565   5.921  18.634  0.00  0.00    +0.000 C 
ATOM      5  C   UNL     1       6.004   5.624  19.053  0.00  0.00    +0.000 C 
ATOM      6  C   UNL     1       6.778   4.571  18.255  0.00  0.00    +0.000 C 
ATOM      7  N   UNL     1       6.297   4.328  16.888  0.00  0.00    +0.000 N 
ATOM      8  C   UNL     1       6.846   5.095  15.859  0.00  0.00    +0.000 C 
ATOM      9  O   UNL     1       7.722   5.918  16.189  0.00  0.00    +0.000 OA
ATOM     10  C   UNL     1       5.138   3.426  16.825  0.00  0.00    +0.000 C 
ATOM     11  C   UNL     1       3.808   4.176  17.063  0.00  0.00    +0.000 C 
ENDROOT
BRANCH   8  12
ATOM     12  C   UNL     1       6.525   4.957  14.328  0.00  0.00    +0.000 C 
ATOM     13 CL   UNL     1       6.088   3.362  13.696  0.00  0.00    +0.000 Cl
ATOM     14 CL   UNL     1       5.106   6.019  13.976  0.00  0.00    +0.000 Cl
ATOM     15 CL   UNL     1       7.945   5.578  13.429  0.00  0.00    +0.000 Cl
ENDBRANCH   8  12
BRANCH   2  16
ATOM     16  C   UNL     1       2.212   2.884  19.540  0.00  0.00    +0.000 C 
ATOM     17 CL   UNL     1       0.790   2.870  18.477  0.00  0.00    +0.000 Cl
ATOM     18 CL   UNL     1       3.256   1.532  18.946  0.00  0.00    +0.000 Cl
ATOM     19 CL   UNL     1       1.730   2.541  21.224  0.00  0.00    +0.000 Cl
ENDBRANCH   2  16
TORSDOF 2
ENDMDL
MODEL 2
REMARK VINA RESULT:      -5.4      0.241      1.165
REMARK  Name = 
REMARK  2 active torsions:
REMARK  status: ('A' for Active; 'I' for Inactive)
REMARK    1  A    between atoms: C_2  and  C_16
REMARK    2  A    between atoms: C_8  and  C_10
REMARK                            x       y       z     vdW  Elec       q    Type
REMARK                         _______ _______ _______ _____ _____    ______ ____
ROOT
ATOM      1  O   UNL     1       2.960   4.774  20.725  0.00  0.00    +0.000 OA
ATOM      2  C   UNL     1       2.918   4.159  19.642  0.00  0.00    +0.000 C 
ATOM      3  N   UNL     1       3.607   4.735  18.565  0.00  0.00    +0.000 N 
ATOM      4  C   UNL     1       4.447   5.911  18.844  0.00  0.00    +0.000 C 
ATOM      5  C   UNL     1       5.870   5.581  19.286  0.00  0.00    +0.000 C 
ATOM      6  C   UNL     1       6.655   4.553  18.465  0.00  0.00    +0.000 C 
ATOM      7  N   UNL     1       6.208   4.373  17.077  0.00  0.00    +0.000 N 
ATOM      8  C   UNL     1       6.791   5.176  16.095  0.00  0.00    +0.000 C 
ATOM      9  O   UNL     1       7.666   5.975  16.482  0.00  0.00    +0.000 OA
ATOM     10  C   UNL     1       5.042   3.488  16.946  0.00  0.00    +0.000 C 
ATOM     11  C   UNL     1       3.713   4.241  17.182  0.00  0.00    +0.000 C 
ENDROOT
BRANCH   8  12
ATOM     12  C   UNL     1       6.509   5.106  14.552  0.00  0.00    +0.000 C 
ATOM     13 CL   UNL     1       7.806   5.557  13.435  0.00  0.00    +0.000 Cl
ATOM     14 CL   UNL     1       6.107   3.390  14.155  0.00  0.00    +0.000 Cl
ATOM     15 CL   UNL     1       5.071   6.124  14.227  0.00  0.00    +0.000 Cl
ENDBRANCH   8  12
BRANCH   2  16
ATOM     16  C   UNL     1       2.041   2.865  19.561  0.00  0.00    +0.000 C 
ATOM     17 CL   UNL     1       0.683   2.889  18.416  0.00  0.00    +0.000 Cl
ATOM     18 CL   UNL     1       3.103   1.513  19.000  0.00  0.00    +0.000 Cl
ATOM     19 CL   UNL     1       1.458   2.495  21.207  0.00  0.00    +0.000 Cl
ENDBRANCH   2  16
TORSDOF 2
ENDMDL
MODEL 3
REMARK VINA RESULT:      -5.3      1.372      1.865
REMARK  Name = 
REMARK  2 active torsions:
REMARK  status: ('A' for Active; 'I' for Inactive)
REMARK    1  A    between atoms: C_2  and  C_16
REMARK    2  A    between atoms: C_8  and  C_10
REMARK                            x       y       z     vdW  Elec       q    Type
REMARK                         _______ _______ _______ _____ _____    ______ ____
ROOT
ATOM      1  O   UNL     1       4.058   5.806  19.521  0.00  0.00    +0.000 OA
ATOM      2  C   UNL     1       3.824   4.913  18.686  0.00  0.00    +0.000 C 
ATOM      3  N   UNL     1       4.326   5.115  17.392  0.00  0.00    +0.000 N 
ATOM      4  C   UNL     1       5.215   6.266  17.178  0.00  0.00    +0.000 C 
ATOM      5  C   UNL     1       6.689   5.989  17.462  0.00  0.00    +0.000 C 
ATOM      6  C   UNL     1       7.308   4.724  16.861  0.00  0.00    +0.000 C 
ATOM      7  N   UNL     1       6.627   4.184  15.676  0.00  0.00    +0.000 N 
ATOM      8  C   UNL     1       7.044   4.637  14.423  0.00  0.00    +0.000 C 
ATOM      9  O   UNL     1       7.982   5.458  14.415  0.00  0.00    +0.000 OA
ATOM     10  C   UNL     1       5.445   3.372  15.997  0.00  0.00    +0.000 C 
ATOM     11  C   UNL     1       4.186   4.241  16.213  0.00  0.00    +0.000 C 
ENDROOT
BRANCH   8  12
ATOM     12  C   UNL     1       6.500   4.148  13.033  0.00  0.00    +0.000 C 
ATOM     13 CL   UNL     1       6.565   2.418  12.662  0.00  0.00    +0.000 Cl
ATOM     14 CL   UNL     1       4.751   4.593  12.951  0.00  0.00    +0.000 Cl
ATOM     15 CL   UNL     1       7.385   5.055  11.767  0.00  0.00    +0.000 Cl
ENDBRANCH   8  12
BRANCH   2  16
ATOM     16  C   UNL     1       2.929   3.705  19.126  0.00  0.00    +0.000 C 
ATOM     17 CL   UNL     1       3.669   2.092  19.054  0.00  0.00    +0.000 Cl
ATOM     18 CL   UNL     1       2.496   3.944  20.866  0.00  0.00    +0.000 Cl
ATOM     19 CL   UNL     1       1.436   3.746  18.150  0.00  0.00    +0.000 Cl
ENDBRANCH   2  16
TORSDOF 2
ENDMDL
MODEL 4
REMARK VINA RESULT:      -5.3      0.170      1.601
REMARK  Name = 
REMARK  2 active torsions:
REMARK  status: ('A' for Active; 'I' for Inactive)
REMARK    1  A    between atoms: C_2  and  C_16
REMARK    2  A    between atoms: C_8  and  C_10
REMARK                            x       y       z     vdW  Elec       q    Type
REMARK                         _______ _______ _______ _____ _____    ______ ____
ROOT
ATOM      1  O   UNL     1       3.094   4.830  20.551  0.00  0.00    +0.000 OA
ATOM      2  C   UNL     1       3.041   4.200  19.478  0.00  0.00    +0.000 C 
ATOM      3  N   UNL     1       3.711   4.765  18.383  0.00  0.00    +0.000 N 
ATOM      4  C   UNL     1       4.547   5.948  18.633  0.00  0.00    +0.000 C 
ATOM      5  C   UNL     1       5.979   5.634  19.060  0.00  0.00    +0.000 C 
ATOM      6  C   UNL     1       6.758   4.599  18.243  0.00  0.00    +0.000 C 
ATOM      7  N   UNL     1       6.292   4.396  16.864  0.00  0.00    +0.000 N 
ATOM      8  C   UNL     1       6.857   5.189  15.862  0.00  0.00    +0.000 C 
ATOM      9  O   UNL     1       7.732   5.999  16.226  0.00  0.00    +0.000 OA
ATOM     10  C   UNL     1       5.130   3.502  16.762  0.00  0.00    +0.000 C 
ATOM     11  C   UNL     1       3.801   4.251  17.006  0.00  0.00    +0.000 C 
ENDROOT
BRANCH   8  12
ATOM     12  C   UNL     1       6.553   5.095  14.324  0.00  0.00    +0.000 C 
ATOM     13 CL   UNL     1       7.854   5.470  13.183  0.00  0.00    +0.000 Cl
ATOM     14 CL   UNL     1       6.081   3.387  13.971  0.00  0.00    +0.000 Cl
ATOM     15 CL   UNL     1       5.153   6.160  13.992  0.00  0.00    +0.000 Cl
ENDBRANCH   8  12
BRANCH   2  16
ATOM     16  C   UNL     1       2.170   2.899  19.428  0.00  0.00    +0.000 C 
ATOM     17 CL   UNL     1       2.967   1.424  18.841  0.00  0.00    +0.000 Cl
ATOM     18 CL   UNL     1       1.655   2.513  21.118  0.00  0.00    +0.000 Cl
ATOM     19 CL   UNL     1       0.719   3.250  18.449  0.00  0.00    +0.000 Cl
ENDBRANCH   2  16
TORSDOF 2
ENDMDL
MODEL 5
REMARK VINA RESULT:      -5.3      1.361      1.442
REMARK  Name = 
REMARK  2 active torsions:
REMARK  status: ('A' for Active; 'I' for Inactive)
REMARK    1  A    between atoms: C_2  and  C_16
REMARK    2  A    between atoms: C_8  and  C_10
REMARK                            x       y       z     vdW  Elec       q    Type
REMARK                         _______ _______ _______ _____ _____    ______ ____
ROOT
ATOM      1  O   UNL     1       4.159   5.794  19.619  0.00  0.00    +0.000 OA
ATOM      2  C   UNL     1       3.911   4.901  18.786  0.00  0.00    +0.000 C 
ATOM      3  N   UNL     1       4.389   5.105  17.484  0.00  0.00    +0.000 N 
ATOM      4  C   UNL     1       5.274   6.258  17.256  0.00  0.00    +0.000 C 
ATOM      5  C   UNL     1       6.753   5.982  17.514  0.00  0.00    +0.000 C 
ATOM      6  C   UNL     1       7.363   4.718  16.901  0.00  0.00    +0.000 C 
ATOM      7  N   UNL     1       6.661   4.179  15.727  0.00  0.00    +0.000 N 
ATOM      8  C   UNL     1       7.055   4.634  14.467  0.00  0.00    +0.000 C 
ATOM      9  O   UNL     1       7.993   5.455  14.444  0.00  0.00    +0.000 OA
ATOM     10  C   UNL     1       5.486   3.365  16.068  0.00  0.00    +0.000 C 
ATOM     11  C   UNL     1       4.230   4.233  16.307  0.00  0.00    +0.000 C 
ENDROOT
BRANCH   8  12
ATOM     12  C   UNL     1       6.488   4.146  13.086  0.00  0.00    +0.000 C 
ATOM     13 CL   UNL     1       6.527   2.414  12.722  0.00  0.00    +0.000 Cl
ATOM     14 CL   UNL     1       4.743   4.612  13.025  0.00  0.00    +0.000 Cl
ATOM     15 CL   UNL     1       7.367   5.038  11.805  0.00  0.00    +0.000 Cl
ENDBRANCH   8  12
BRANCH   2  16
ATOM     16  C   UNL     1       3.025   3.692  19.241  0.00  0.00    +0.000 C 
ATOM     17 CL   UNL     1       1.690   3.229  18.165  0.00  0.00    +0.000 Cl
ATOM     18 CL   UNL     1       4.087   2.231  19.326  0.00  0.00    +0.000 Cl
ATOM     19 CL   UNL     1       2.407   4.051  20.876  0.00  0.00    +0.000 Cl
ENDBRANCH   2  16
TORSDOF 2
ENDMDL
MODEL 6
REMARK VINA RESULT:      -5.2      1.684      2.302
REMARK  Name = 
REMARK  2 active torsions:
REMARK  status: ('A' for Active; 'I' for Inactive)
REMARK    1  A    between atoms: C_2  and  C_16
REMARK    2  A    between atoms: C_8  and  C_10
REMARK                            x       y       z     vdW  Elec       q    Type
REMARK                         _______ _______ _______ _____ _____    ______ ____
ROOT
ATOM      1  O   UNL     1       4.202   5.834  19.119  0.00  0.00    +0.000 OA
ATOM      2  C   UNL     1       3.952   4.948  18.280  0.00  0.00    +0.000 C 
ATOM      3  N   UNL     1       4.452   5.148  16.985  0.00  0.00    +0.000 N 
ATOM      4  C   UNL     1       5.356   6.289  16.773  0.00  0.00    +0.000 C 
ATOM      5  C   UNL     1       6.827   5.991  17.050  0.00  0.00    +0.000 C 
ATOM      6  C   UNL     1       7.427   4.719  16.442  0.00  0.00    +0.000 C 
ATOM      7  N   UNL     1       6.734   4.194  15.257  0.00  0.00    +0.000 N 
ATOM      8  C   UNL     1       7.152   4.647  14.004  0.00  0.00    +0.000 C 
ATOM      9  O   UNL     1       8.101   5.455  13.996  0.00  0.00    +0.000 OA
ATOM     10  C   UNL     1       5.543   3.396  15.579  0.00  0.00    +0.000 C 
ATOM     11  C   UNL     1       4.296   4.282  15.804  0.00  0.00    +0.000 C 
ENDROOT
BRANCH   8  12
ATOM     12  C   UNL     1       6.597   4.171  12.614  0.00  0.00    +0.000 C 
ATOM     13 CL   UNL     1       4.843   4.108  12.382  0.00  0.00    +0.000 Cl
ATOM     14 CL   UNL     1       7.206   5.326  11.366  0.00  0.00    +0.000 Cl
ATOM     15 CL   UNL     1       7.293   2.553  12.289  0.00  0.00    +0.000 Cl
ENDBRANCH   8  12
BRANCH   2  16
ATOM     16  C   UNL     1       3.043   3.750  18.719  0.00  0.00    +0.000 C 
ATOM     17 CL   UNL     1       3.705   2.118  18.493  0.00  0.00    +0.000 Cl
ATOM     18 CL   UNL     1       2.757   3.898  20.499  0.00  0.00    +0.000 Cl
ATOM     19 CL   UNL     1       1.482   3.909  17.869  0.00  0.00    +0.000 Cl
ENDBRANCH   2  16
TORSDOF 2
ENDMDL
MODEL 7
REMARK VINA RESULT:      -5.2      0.286      6.020
REMARK  Name = 
REMARK  2 active torsions:
REMARK  status: ('A' for Active; 'I' for Inactive)
REMARK    1  A    between atoms: C_2  and  C_16
REMARK    2  A    between atoms: C_8  and  C_10
REMARK                            x       y       z     vdW  Elec       q    Type
REMARK                         _______ _______ _______ _____ _____    ______ ____
ROOT
ATOM      1  O   UNL     1       7.716   5.858  16.304  0.00  0.00    +0.000 OA
ATOM      2  C   UNL     1       6.775   5.125  15.947  0.00  0.00    +0.000 C 
ATOM      3  N   UNL     1       6.065   4.472  16.965  0.00  0.00    +0.000 N 
ATOM      4  C   UNL     1       6.380   4.833  18.355  0.00  0.00    +0.000 C 
ATOM      5  C   UNL     1       5.601   6.032  18.890  0.00  0.00    +0.000 C 
ATOM      6  C   UNL     1       4.086   6.058  18.668  0.00  0.00    +0.000 C 
ATOM      7  N   UNL     1       3.453   4.749  18.451  0.00  0.00    +0.000 N 
ATOM      8  C   UNL     1       2.988   4.057  19.571  0.00  0.00    +0.000 C 
ATOM      9  O   UNL     1       3.135   4.624  20.671  0.00  0.00    +0.000 OA
ATOM     10  C   UNL     1       3.579   4.257  17.072  0.00  0.00    +0.000 C 
ATOM     11  C   UNL     1       4.929   3.544  16.833  0.00  0.00    +0.000 C 
ENDROOT
BRANCH   8  12
ATOM     12  C   UNL     1       2.228   2.683  19.562  0.00  0.00    +0.000 C 
ATOM     13 CL   UNL     1       3.076   1.253  18.950  0.00  0.00    +0.000 Cl
ATOM     14 CL   UNL     1       1.799   2.292  21.273  0.00  0.00    +0.000 Cl
ATOM     15 CL   UNL     1       0.718   2.916  18.628  0.00  0.00    +0.000 Cl
ENDBRANCH   8  12
BRANCH   2  16
ATOM     16  C   UNL     1       6.529   4.933  14.412  0.00  0.00    +0.000 C 
ATOM     17 CL   UNL     1       6.157   3.286  13.860  0.00  0.00    +0.000 Cl
ATOM     18 CL   UNL     1       5.080   5.917  13.958  0.00  0.00    +0.000 Cl
ATOM     19 CL   UNL     1       7.953   5.571  13.546  0.00  0.00    +0.000 Cl
ENDBRANCH   2  16
TORSDOF 2
ENDMDL
MODEL 8
REMARK VINA RESULT:      -5.0      9.692     10.724
REMARK  Name = 
REMARK  2 active torsions:
REMARK  status: ('A' for Active; 'I' for Inactive)
REMARK    1  A    between atoms: C_2  and  C_16
REMARK    2  A    between atoms: C_8  and  C_10
REMARK                            x       y       z     vdW  Elec       q    Type
REMARK                         _______ _______ _______ _____ _____    ______ ____
ROOT
ATOM      1  O   UNL     1       4.984  14.225  24.170  0.00  0.00    +0.000 OA
ATOM      2  C   UNL     1       5.883  13.362  24.175  0.00  0.00    +0.000 C 
ATOM      3  N   UNL     1       6.483  13.072  22.941  0.00  0.00    +0.000 N 
ATOM      4  C   UNL     1       6.124  13.918  21.793  0.00  0.00    +0.000 C 
ATOM      5  C   UNL     1       6.966  15.183  21.650  0.00  0.00    +0.000 C 
ATOM      6  C   UNL     1       8.488  15.044  21.748  0.00  0.00    +0.000 C 
ATOM      7  N   UNL     1       9.026  13.710  21.446  0.00  0.00    +0.000 N 
ATOM      8  C   UNL     1       9.373  13.433  20.122  0.00  0.00    +0.000 C 
ATOM      9  O   UNL     1       9.214  14.359  19.303  0.00  0.00    +0.000 OA
ATOM     10  C   UNL     1       8.934  12.771  22.572  0.00  0.00    +0.000 C 
ATOM     11  C   UNL     1       7.547  12.095  22.652  0.00  0.00    +0.000 C 
ENDROOT
BRANCH   8  12
ATOM     12  C   UNL     1      10.021  12.103  19.593  0.00  0.00    +0.000 C 
ATOM     13 CL   UNL     1       9.178  10.576  19.894  0.00  0.00    +0.000 Cl
ATOM     14 CL   UNL     1      10.140  12.241  17.795  0.00  0.00    +0.000 Cl
ATOM     15 CL   UNL     1      11.674  12.008  20.274  0.00  0.00    +0.000 Cl
ENDBRANCH   8  12
BRANCH   2  16
ATOM     16  C   UNL     1       6.194  12.628  25.522  0.00  0.00    +0.000 C 
ATOM     17 CL   UNL     1       7.874  12.687  26.096  0.00  0.00    +0.000 Cl
ATOM     18 CL   UNL     1       5.226  13.428  26.824  0.00  0.00    +0.000 Cl
ATOM     19 CL   UNL     1       5.653  10.935  25.361  0.00  0.00    +0.000 Cl
ENDBRANCH   2  16
TORSDOF 2
ENDMDL
MODEL 9
REMARK VINA RESULT:      -5.0      1.476      1.935
REMARK  Name = 
REMARK  2 active torsions:
REMARK  status: ('A' for Active; 'I' for Inactive)
REMARK    1  A    between atoms: C_2  and  C_16
REMARK    2  A    between atoms: C_8  and  C_10
REMARK                            x       y       z     vdW  Elec       q    Type
REMARK                         _______ _______ _______ _____ _____    ______ ____
ROOT
ATOM      1  O   UNL     1       4.058   6.063  19.360  0.00  0.00    +0.000 OA
ATOM      2  C   UNL     1       3.863   5.102  18.592  0.00  0.00    +0.000 C 
ATOM      3  N   UNL     1       4.334   5.241  17.278  0.00  0.00    +0.000 N 
ATOM      4  C   UNL     1       5.154   6.422  16.969  0.00  0.00    +0.000 C 
ATOM      5  C   UNL     1       6.645   6.247  17.246  0.00  0.00    +0.000 C 
ATOM      6  C   UNL     1       7.326   4.978  16.722  0.00  0.00    +0.000 C 
ATOM      7  N   UNL     1       6.659   4.320  15.590  0.00  0.00    +0.000 N 
ATOM      8  C   UNL     1       7.032   4.707  14.301  0.00  0.00    +0.000 C 
ATOM      9  O   UNL     1       7.922   5.576  14.220  0.00  0.00    +0.000 OA
ATOM     10  C   UNL     1       5.529   3.469  15.987  0.00  0.00    +0.000 C 
ATOM     11  C   UNL     1       4.227   4.281  16.166  0.00  0.00    +0.000 C 
ENDROOT
BRANCH   8  12
ATOM     12  C   UNL     1       6.497   4.093  12.958  0.00  0.00    +0.000 C 
ATOM     13 CL   UNL     1       6.627   2.344  12.718  0.00  0.00    +0.000 Cl
ATOM     14 CL   UNL     1       4.731   4.462  12.862  0.00  0.00    +0.000 Cl
ATOM     15 CL   UNL     1       7.335   4.935  11.617  0.00  0.00    +0.000 Cl
ENDBRANCH   8  12
BRANCH   2  16
ATOM     16  C   UNL     1       3.043   3.881  19.131  0.00  0.00    +0.000 C 
ATOM     17 CL   UNL     1       2.388   4.019  20.776  0.00  0.00    +0.000 Cl
ATOM     18 CL   UNL     1       1.596   3.674  18.065  0.00  0.00    +0.000 Cl
ATOM     19 CL   UNL     1       4.072   2.429  18.993  0.00  0.00    +0.000 Cl
ENDBRANCH   2  16
TORSDOF 2
ENDMDL
