MODEL 1
REMARK VINA RESULT:      -8.2      0.000      0.000
REMARK  Name = 
REMARK  4 active torsions:
REMARK  status: ('A' for Active; 'I' for Inactive)
REMARK    1  A    between atoms: C_2  and  C_3
REMARK    2  A    between atoms: C_2  and  C_15
REMARK    3  A    between atoms: C_20  and  C_22
REMARK    4  A    between atoms: C_25  and  O_26
REMARK                            x       y       z     vdW  Elec       q    Type
REMARK                         _______ _______ _______ _____ _____    ______ ____
ROOT
ATOM      1  C   UNL     1       1.181  10.198  18.636  0.00  0.00    +0.000 C 
ATOM      2  C   UNL     1       1.428  11.475  19.474  0.00  0.00    +0.000 C 
ATOM      3  C   UNL     1       0.183  12.302  19.767  0.00  0.00    +0.000 C 
ATOM      4  C   UNL     1      -0.650  12.406  18.503  0.00  0.00    +0.000 C 
ATOM      5  N   UNL     1      -1.152  11.069  18.215  0.00  0.00    +0.000 N 
ATOM      6  C   UNL     1      -2.485  10.664  18.176  0.00  0.00    +0.000 C 
ATOM      7  O   UNL     1      -2.828   9.571  17.721  0.00  0.00    +0.000 OA
ATOM      8  C   UNL     1      -0.116  10.124  17.807  0.00  0.00    +0.000 C 
ENDROOT
BRANCH   6   9
ATOM      9  C   UNL     1      -3.574  11.550  18.676  0.00  0.00    +0.000 A 
ATOM     10  C   UNL     1      -3.550  12.229  19.894  0.00  0.00    +0.000 A 
ATOM     11  C   UNL     1      -4.597  13.080  20.240  0.00  0.00    +0.000 A 
ATOM     12  C   UNL     1      -5.672  13.171  19.377  0.00  0.00    +0.000 A 
ATOM     13  N   UNL     1      -5.772  12.483  18.227  0.00  0.00    +0.000 NA
ATOM     14  C   UNL     1      -4.723  11.682  17.902  0.00  0.00    +0.000 A 
BRANCH  12  15
ATOM     15  O   UNL     1      -6.733  13.978  19.659  0.00  0.00    +0.000 OA
ATOM     16  H   UNL     1      -7.403  13.451  20.118  0.00  0.00    +0.000 HD
ENDBRANCH  12  15
ENDBRANCH   6   9
BRANCH   1  18
ATOM     17  O   UNL     1       0.808   8.811  20.557  0.00  0.00    +0.000 OA
ATOM     18  C   UNL     1       1.384   8.938  19.474  0.00  0.00    +0.000 C 
BRANCH  18  19
ATOM     19  C   UNL     1       2.221   7.787  18.975  0.00  0.00    +0.000 A 
ATOM     20  C   UNL     1       2.995   8.090  17.818  0.00  0.00    +0.000 A 
ATOM     21  C   UNL     1       3.873   7.169  17.228  0.00  0.00    +0.000 A 
ATOM     22  C   UNL     1       3.969   5.938  17.851  0.00  0.00    +0.000 A 
ATOM     23  C   UNL     1       3.209   5.624  18.962  0.00  0.00    +0.000 A 
ATOM     24  C   UNL     1       3.469   4.327  19.374  0.00  0.00    +0.000 A 
ATOM     25  C   UNL     1       2.820   3.758  20.456  0.00  0.00    +0.000 A 
ATOM     26  C   UNL     1       1.847   4.546  21.068  0.00  0.00    +0.000 A 
ATOM     27  C   UNL     1       1.567   5.851  20.613  0.00  0.00    +0.000 A 
ATOM     28  C   UNL     1       2.297   6.472  19.553  0.00  0.00    +0.000 A 
ATOM     29  C   UNL     1       4.482   3.683  18.493  0.00  0.00    +0.000 C 
ATOM     30  C   UNL     1       4.831   4.787  17.456  0.00  0.00    +0.000 C 
ENDBRANCH  18  19
ENDBRANCH   1  18
TORSDOF 4
ENDMDL
MODEL 2
REMARK VINA RESULT:      -8.1      2.134      2.625
REMARK  Name = 
REMARK  4 active torsions:
REMARK  status: ('A' for Active; 'I' for Inactive)
REMARK    1  A    between atoms: C_2  and  C_3
REMARK    2  A    between atoms: C_2  and  C_15
REMARK    3  A    between atoms: C_20  and  C_22
REMARK    4  A    between atoms: C_25  and  O_26
REMARK                            x       y       z     vdW  Elec       q    Type
REMARK                         _______ _______ _______ _____ _____    ______ ____
ROOT
ATOM      1  C   UNL     1       1.374   9.451  20.790  0.00  0.00    +0.000 C 
ATOM      2  C   UNL     1       0.717   8.502  21.820  0.00  0.00    +0.000 C 
ATOM      3  C   UNL     1      -0.578   9.017  22.435  0.00  0.00    +0.000 C 
ATOM      4  C   UNL     1      -0.405  10.481  22.796  0.00  0.00    +0.000 C 
ATOM      5  N   UNL     1      -0.272  11.213  21.544  0.00  0.00    +0.000 N 
ATOM      6  C   UNL     1      -1.126  12.199  21.054  0.00  0.00    +0.000 C 
ATOM      7  O   UNL     1      -0.828  12.911  20.093  0.00  0.00    +0.000 OA
ATOM      8  C   UNL     1       0.971  10.939  20.828  0.00  0.00    +0.000 C 
ENDROOT
BRANCH   6   9
ATOM      9  C   UNL     1      -2.453  12.452  21.685  0.00  0.00    +0.000 A 
ATOM     10  C   UNL     1      -2.681  12.501  23.060  0.00  0.00    +0.000 A 
ATOM     11  C   UNL     1      -3.951  12.802  23.546  0.00  0.00    +0.000 A 
ATOM     12  C   UNL     1      -4.971  12.982  22.632  0.00  0.00    +0.000 A 
ATOM     13  N   UNL     1      -4.814  12.875  21.301  0.00  0.00    +0.000 NA
ATOM     14  C   UNL     1      -3.558  12.607  20.855  0.00  0.00    +0.000 A 
BRANCH  12  15
ATOM     15  O   UNL     1      -6.239  13.270  23.039  0.00  0.00    +0.000 OA
ATOM     16  H   UNL     1      -6.261  13.245  24.006  0.00  0.00    +0.000 HD
ENDBRANCH  12  15
ENDBRANCH   6   9
BRANCH   1  18
ATOM     17  O   UNL     1       0.491   9.358  18.562  0.00  0.00    +0.000 OA
ATOM     18  C   UNL     1       1.285   8.882  19.376  0.00  0.00    +0.000 C 
BRANCH  18  19
ATOM     19  C   UNL     1       2.210   7.786  18.909  0.00  0.00    +0.000 A 
ATOM     20  C   UNL     1       3.035   8.154  17.809  0.00  0.00    +0.000 A 
ATOM     21  C   UNL     1       3.995   7.292  17.257  0.00  0.00    +0.000 A 
ATOM     22  C   UNL     1       4.118   6.054  17.862  0.00  0.00    +0.000 A 
ATOM     23  C   UNL     1       3.310   5.678  18.918  0.00  0.00    +0.000 A 
ATOM     24  C   UNL     1       3.613   4.387  19.323  0.00  0.00    +0.000 A 
ATOM     25  C   UNL     1       2.930   3.763  20.352  0.00  0.00    +0.000 A 
ATOM     26  C   UNL     1       1.882   4.487  20.918  0.00  0.00    +0.000 A 
ATOM     27  C   UNL     1       1.561   5.785  20.469  0.00  0.00    +0.000 A 
ATOM     28  C   UNL     1       2.320   6.465  19.468  0.00  0.00    +0.000 A 
ATOM     29  C   UNL     1       4.710   3.816  18.494  0.00  0.00    +0.000 C 
ATOM     30  C   UNL     1       5.062   4.958  17.500  0.00  0.00    +0.000 C 
ENDBRANCH  18  19
ENDBRANCH   1  18
TORSDOF 4
ENDMDL
MODEL 3
REMARK VINA RESULT:      -8.1      3.349      4.713
REMARK  Name = 
REMARK  4 active torsions:
REMARK  status: ('A' for Active; 'I' for Inactive)
REMARK    1  A    between atoms: C_2  and  C_3
REMARK    2  A    between atoms: C_2  and  C_15
REMARK    3  A    between atoms: C_20  and  C_22
REMARK    4  A    between atoms: C_25  and  O_26
REMARK                            x       y       z     vdW  Elec       q    Type
REMARK                         _______ _______ _______ _____ _____    ______ ____
ROOT
ATOM      1  C   UNL     1       0.963   8.681  19.188  0.00  0.00    +0.000 C 
ATOM      2  C   UNL     1       1.807   9.121  17.969  0.00  0.00    +0.000 C 
ATOM      3  C   UNL     1       2.208  10.590  17.961  0.00  0.00    +0.000 C 
ATOM      4  C   UNL     1       1.011  11.432  18.365  0.00  0.00    +0.000 C 
ATOM      5  N   UNL     1       0.734  11.130  19.763  0.00  0.00    +0.000 N 
ATOM      6  C   UNL     1       0.784  12.015  20.838  0.00  0.00    +0.000 C 
ATOM      7  O   UNL     1       0.333  11.728  21.949  0.00  0.00    +0.000 OA
ATOM      8  C   UNL     1       0.230   9.777  19.987  0.00  0.00    +0.000 C 
ENDROOT
BRANCH   6   9
ATOM      9  C   UNL     1       1.381  13.373  20.691  0.00  0.00    +0.000 A 
ATOM     10  C   UNL     1       2.742  13.657  20.796  0.00  0.00    +0.000 A 
ATOM     11  C   UNL     1       3.203  14.954  20.584  0.00  0.00    +0.000 A 
ATOM     12  C   UNL     1       2.270  15.942  20.335  0.00  0.00    +0.000 A 
ATOM     13  N   UNL     1       0.943  15.729  20.294  0.00  0.00    +0.000 NA
ATOM     14  C   UNL     1       0.525  14.449  20.478  0.00  0.00    +0.000 A 
BRANCH  12  15
ATOM     15  O   UNL     1       2.651  17.233  20.127  0.00  0.00    +0.000 OA
ATOM     16  H   UNL     1       1.974  17.815  20.502  0.00  0.00    +0.000 HD
ENDBRANCH  12  15
ENDBRANCH   6   9
BRANCH   1  18
ATOM     17  O   UNL     1       2.208   8.174  21.174  0.00  0.00    +0.000 OA
ATOM     18  C   UNL     1       1.757   7.754  20.106  0.00  0.00    +0.000 C 
BRANCH  18  19
ATOM     19  C   UNL     1       1.944   6.294  19.780  0.00  0.00    +0.000 A 
ATOM     20  C   UNL     1       1.114   5.420  20.538  0.00  0.00    +0.000 A 
ATOM     21  C   UNL     1       1.104   4.029  20.352  0.00  0.00    +0.000 A 
ATOM     22  C   UNL     1       1.938   3.544  19.361  0.00  0.00    +0.000 A 
ATOM     23  C   UNL     1       2.763   4.380  18.632  0.00  0.00    +0.000 A 
ATOM     24  C   UNL     1       3.515   3.647  17.727  0.00  0.00    +0.000 A 
ATOM     25  C   UNL     1       4.438   4.246  16.888  0.00  0.00    +0.000 A 
ATOM     26  C   UNL     1       4.609   5.620  17.048  0.00  0.00    +0.000 A 
ATOM     27  C   UNL     1       3.864   6.345  18.000  0.00  0.00    +0.000 A 
ATOM     28  C   UNL     1       2.848   5.745  18.805  0.00  0.00    +0.000 A 
ATOM     29  C   UNL     1       3.198   2.196  17.825  0.00  0.00    +0.000 C 
ATOM     30  C   UNL     1       2.113   2.126  18.937  0.00  0.00    +0.000 C 
ENDBRANCH  18  19
ENDBRANCH   1  18
TORSDOF 4
ENDMDL
MODEL 4
REMARK VINA RESULT:      -8.0      3.283      4.158
REMARK  Name = 
REMARK  4 active torsions:
REMARK  status: ('A' for Active; 'I' for Inactive)
REMARK    1  A    between atoms: C_2  and  C_3
REMARK    2  A    between atoms: C_2  and  C_15
REMARK    3  A    between atoms: C_20  and  C_22
REMARK    4  A    between atoms: C_25  and  O_26
REMARK                            x       y       z     vdW  Elec       q    Type
REMARK                         _______ _______ _______ _____ _____    ______ ____
ROOT
ATOM      1  C   UNL     1       1.033   9.082  18.960  0.00  0.00    +0.000 C 
ATOM      2  C   UNL     1       1.903   9.769  17.880  0.00  0.00    +0.000 C 
ATOM      3  C   UNL     1       2.206  11.240  18.139  0.00  0.00    +0.000 C 
ATOM      4  C   UNL     1       0.938  11.931  18.605  0.00  0.00    +0.000 C 
ATOM      5  N   UNL     1       0.614  11.383  19.915  0.00  0.00    +0.000 N 
ATOM      6  C   UNL     1       0.554  12.075  21.123  0.00  0.00    +0.000 C 
ATOM      7  O   UNL     1       0.071  11.580  22.144  0.00  0.00    +0.000 OA
ATOM      8  C   UNL     1       0.192   9.985  19.884  0.00  0.00    +0.000 C 
ENDROOT
BRANCH   6   9
ATOM      9  C   UNL     1       1.066  13.471  21.237  0.00  0.00    +0.000 A 
ATOM     10  C   UNL     1       2.404  13.840  21.098  0.00  0.00    +0.000 A 
ATOM     11  C   UNL     1       2.768  15.182  21.165  0.00  0.00    +0.000 A 
ATOM     12  C   UNL     1       1.781  16.110  21.437  0.00  0.00    +0.000 A 
ATOM     13  N   UNL     1       0.492  15.796  21.648  0.00  0.00    +0.000 NA
ATOM     14  C   UNL     1       0.161  14.481  21.549  0.00  0.00    +0.000 A 
BRANCH  12  15
ATOM     15  O   UNL     1       2.070  17.439  21.525  0.00  0.00    +0.000 OA
ATOM     16  H   UNL     1       2.974  17.576  21.207  0.00  0.00    +0.000 HD
ENDBRANCH  12  15
ENDBRANCH   6   9
BRANCH   1  18
ATOM     17  O   UNL     1       1.998   8.204  20.971  0.00  0.00    +0.000 OA
ATOM     18  C   UNL     1       1.842   8.062  19.756  0.00  0.00    +0.000 C 
BRANCH  18  19
ATOM     19  C   UNL     1       2.403   6.822  19.107  0.00  0.00    +0.000 A 
ATOM     20  C   UNL     1       3.296   7.084  18.029  0.00  0.00    +0.000 A 
ATOM     21  C   UNL     1       3.959   6.067  17.326  0.00  0.00    +0.000 A 
ATOM     22  C   UNL     1       3.715   4.775  17.756  0.00  0.00    +0.000 A 
ATOM     23  C   UNL     1       2.835   4.506  18.788  0.00  0.00    +0.000 A 
ATOM     24  C   UNL     1       2.748   3.139  19.004  0.00  0.00    +0.000 A 
ATOM     25  C   UNL     1       1.916   2.603  19.970  0.00  0.00    +0.000 A 
ATOM     26  C   UNL     1       1.128   3.513  20.673  0.00  0.00    +0.000 A 
ATOM     27  C   UNL     1       1.201   4.897  20.416  0.00  0.00    +0.000 A 
ATOM     28  C   UNL     1       2.122   5.461  19.481  0.00  0.00    +0.000 A 
ATOM     29  C   UNL     1       3.625   2.396  18.059  0.00  0.00    +0.000 C 
ATOM     30  C   UNL     1       4.294   3.514  17.211  0.00  0.00    +0.000 C 
ENDBRANCH  18  19
ENDBRANCH   1  18
TORSDOF 4
ENDMDL
MODEL 5
REMARK VINA RESULT:      -8.0      2.561      3.104
REMARK  Name = 
REMARK  4 active torsions:
REMARK  status: ('A' for Active; 'I' for Inactive)
REMARK    1  A    between atoms: C_2  and  C_3
REMARK    2  A    between atoms: C_2  and  C_15
REMARK    3  A    between atoms: C_20  and  C_22
REMARK    4  A    between atoms: C_25  and  O_26
REMARK                            x       y       z     vdW  Elec       q    Type
REMARK                         _______ _______ _______ _____ _____    ______ ____
ROOT
ATOM      1  C   UNL     1       1.216   9.566  20.995  0.00  0.00    +0.000 C 
ATOM      2  C   UNL     1       0.502   8.604  21.974  0.00  0.00    +0.000 C 
ATOM      3  C   UNL     1      -0.753   9.167  22.629  0.00  0.00    +0.000 C 
ATOM      4  C   UNL     1      -0.482  10.593  23.072  0.00  0.00    +0.000 C 
ATOM      5  N   UNL     1      -0.306  11.386  21.863  0.00  0.00    +0.000 N 
ATOM      6  C   UNL     1      -1.095  12.453  21.437  0.00  0.00    +0.000 C 
ATOM      7  O   UNL     1      -0.754  13.198  20.516  0.00  0.00    +0.000 OA
ATOM      8  C   UNL     1       0.913  11.072  21.122  0.00  0.00    +0.000 C 
ENDROOT
BRANCH   6   9
ATOM      9  C   UNL     1      -2.399  12.756  22.092  0.00  0.00    +0.000 A 
ATOM     10  C   UNL     1      -3.645  12.631  21.478  0.00  0.00    +0.000 A 
ATOM     11  C   UNL     1      -4.809  12.884  22.199  0.00  0.00    +0.000 A 
ATOM     12  C   UNL     1      -4.681  13.321  23.504  0.00  0.00    +0.000 A 
ATOM     13  N   UNL     1      -3.502  13.523  24.117  0.00  0.00    +0.000 NA
ATOM     14  C   UNL     1      -2.384  13.241  23.396  0.00  0.00    +0.000 A 
BRANCH  12  15
ATOM     15  O   UNL     1      -5.778  13.596  24.265  0.00  0.00    +0.000 OA
ATOM     16  H   UNL     1      -6.509  13.824  23.673  0.00  0.00    +0.000 HD
ENDBRANCH  12  15
ENDBRANCH   6   9
BRANCH   1  18
ATOM     17  O   UNL     1       0.246   9.593  18.802  0.00  0.00    +0.000 OA
ATOM     18  C   UNL     1       1.084   9.087  19.552  0.00  0.00    +0.000 C 
BRANCH  18  19
ATOM     19  C   UNL     1       2.015   8.049  18.979  0.00  0.00    +0.000 A 
ATOM     20  C   UNL     1       2.734   8.486  17.829  0.00  0.00    +0.000 A 
ATOM     21  C   UNL     1       3.683   7.685  17.176  0.00  0.00    +0.000 A 
ATOM     22  C   UNL     1       3.908   6.438  17.729  0.00  0.00    +0.000 A 
ATOM     23  C   UNL     1       3.203   5.994  18.832  0.00  0.00    +0.000 A 
ATOM     24  C   UNL     1       3.593   4.707  19.169  0.00  0.00    +0.000 A 
ATOM     25  C   UNL     1       3.023   4.023  20.228  0.00  0.00    +0.000 A 
ATOM     26  C   UNL     1       1.992   4.681  20.897  0.00  0.00    +0.000 A 
ATOM     27  C   UNL     1       1.580   5.975  20.518  0.00  0.00    +0.000 A 
ATOM     28  C   UNL     1       2.227   6.719  19.483  0.00  0.00    +0.000 A 
ATOM     29  C   UNL     1       4.644   4.211  18.240  0.00  0.00    +0.000 C 
ATOM     30  C   UNL     1       4.866   5.397  17.259  0.00  0.00    +0.000 C 
ENDBRANCH  18  19
ENDBRANCH   1  18
TORSDOF 4
ENDMDL
MODEL 6
REMARK VINA RESULT:      -8.0      1.422      1.780
REMARK  Name = 
REMARK  4 active torsions:
REMARK  status: ('A' for Active; 'I' for Inactive)
REMARK    1  A    between atoms: C_2  and  C_3
REMARK    2  A    between atoms: C_2  and  C_15
REMARK    3  A    between atoms: C_20  and  C_22
REMARK    4  A    between atoms: C_25  and  O_26
REMARK                            x       y       z     vdW  Elec       q    Type
REMARK                         _______ _______ _______ _____ _____    ______ ____
ROOT
ATOM      1  C   UNL     1       1.599   9.505  19.798  0.00  0.00    +0.000 C 
ATOM      2  C   UNL     1       0.953   8.775  21.000  0.00  0.00    +0.000 C 
ATOM      3  C   UNL     1      -0.416   9.299  21.412  0.00  0.00    +0.000 C 
ATOM      4  C   UNL     1      -0.386  10.817  21.407  0.00  0.00    +0.000 C 
ATOM      5  N   UNL     1      -0.230  11.234  20.021  0.00  0.00    +0.000 N 
ATOM      6  C   UNL     1      -1.126  11.987  19.264  0.00  0.00    +0.000 C 
ATOM      7  O   UNL     1      -0.823  12.470  18.171  0.00  0.00    +0.000 OA
ATOM      8  C   UNL     1       1.076  10.912  19.450  0.00  0.00    +0.000 C 
ENDROOT
BRANCH   6   9
ATOM      9  C   UNL     1      -2.508  12.259  19.754  0.00  0.00    +0.000 A 
ATOM     10  C   UNL     1      -2.815  12.829  20.989  0.00  0.00    +0.000 A 
ATOM     11  C   UNL     1      -4.139  13.094  21.326  0.00  0.00    +0.000 A 
ATOM     12  C   UNL     1      -5.124  12.716  20.434  0.00  0.00    +0.000 A 
ATOM     13  N   UNL     1      -4.882  12.100  19.264  0.00  0.00    +0.000 NA
ATOM     14  C   UNL     1      -3.578  11.879  18.950  0.00  0.00    +0.000 A 
BRANCH  12  15
ATOM     15  O   UNL     1      -6.441  12.938  20.704  0.00  0.00    +0.000 OA
ATOM     16  H   UNL     1      -6.745  13.676  20.158  0.00  0.00    +0.000 HD
ENDBRANCH  12  15
ENDBRANCH   6   9
BRANCH   1  18
ATOM     17  O   UNL     1       0.969   8.870  17.573  0.00  0.00    +0.000 OA
ATOM     18  C   UNL     1       1.650   8.605  18.567  0.00  0.00    +0.000 C 
BRANCH  18  19
ATOM     19  C   UNL     1       2.582   7.422  18.494  0.00  0.00    +0.000 A 
ATOM     20  C   UNL     1       3.667   7.593  17.587  0.00  0.00    +0.000 A 
ATOM     21  C   UNL     1       4.669   6.627  17.409  0.00  0.00    +0.000 A 
ATOM     22  C   UNL     1       4.562   5.491  18.191  0.00  0.00    +0.000 A 
ATOM     23  C   UNL     1       3.504   5.304  19.060  0.00  0.00    +0.000 A 
ATOM     24  C   UNL     1       3.615   4.080  19.700  0.00  0.00    +0.000 A 
ATOM     25  C   UNL     1       2.668   3.640  20.608  0.00  0.00    +0.000 A 
ATOM     26  C   UNL     1       1.568   4.474  20.797  0.00  0.00    +0.000 A 
ATOM     27  C   UNL     1       1.450   5.699  20.110  0.00  0.00    +0.000 A 
ATOM     28  C   UNL     1       2.468   6.197  19.239  0.00  0.00    +0.000 A 
ATOM     29  C   UNL     1       4.835   3.355  19.250  0.00  0.00    +0.000 C 
ATOM     30  C   UNL     1       5.488   4.323  18.224  0.00  0.00    +0.000 C 
ENDBRANCH  18  19
ENDBRANCH   1  18
TORSDOF 4
ENDMDL
MODEL 7
REMARK VINA RESULT:      -8.0      3.456      8.864
REMARK  Name = 
REMARK  4 active torsions:
REMARK  status: ('A' for Active; 'I' for Inactive)
REMARK    1  A    between atoms: C_2  and  C_3
REMARK    2  A    between atoms: C_2  and  C_15
REMARK    3  A    between atoms: C_20  and  C_22
REMARK    4  A    between atoms: C_25  and  O_26
REMARK                            x       y       z     vdW  Elec       q    Type
REMARK                         _______ _______ _______ _____ _____    ______ ____
ROOT
ATOM      1  C   UNL     1       2.009   9.017  18.892  0.00  0.00    +0.000 C 
ATOM      2  C   UNL     1       2.931   8.866  17.659  0.00  0.00    +0.000 C 
ATOM      3  C   UNL     1       3.380   7.440  17.362  0.00  0.00    +0.000 C 
ATOM      4  C   UNL     1       3.780   6.768  18.662  0.00  0.00    +0.000 C 
ATOM      5  N   UNL     1       2.567   6.618  19.453  0.00  0.00    +0.000 N 
ATOM      6  C   UNL     1       1.982   5.425  19.876  0.00  0.00    +0.000 C 
ATOM      7  O   UNL     1       1.078   5.395  20.714  0.00  0.00    +0.000 OA
ATOM      8  C   UNL     1       2.015   7.882  19.934  0.00  0.00    +0.000 C 
ENDROOT
BRANCH   6   9
ATOM      9  C   UNL     1       2.439   4.112  19.339  0.00  0.00    +0.000 A 
ATOM     10  C   UNL     1       1.935   3.506  18.188  0.00  0.00    +0.000 A 
ATOM     11  C   UNL     1       2.472   2.302  17.740  0.00  0.00    +0.000 A 
ATOM     12  C   UNL     1       3.460   1.708  18.503  0.00  0.00    +0.000 A 
ATOM     13  N   UNL     1       3.929   2.218  19.655  0.00  0.00    +0.000 NA
ATOM     14  C   UNL     1       3.404   3.408  20.052  0.00  0.00    +0.000 A 
BRANCH  12  15
ATOM     15  O   UNL     1       4.024   0.526  18.127  0.00  0.00    +0.000 OA
ATOM     16  H   UNL     1       3.314  -0.095  17.910  0.00  0.00    +0.000 HD
ENDBRANCH  12  15
ENDBRANCH   6   9
BRANCH   1  18
ATOM     17  O   UNL     1       0.002   8.743  17.609  0.00  0.00    +0.000 OA
ATOM     18  C   UNL     1       0.589   9.392  18.478  0.00  0.00    +0.000 C 
BRANCH  18  19
ATOM     19  C   UNL     1      -0.165  10.503  19.166  0.00  0.00    +0.000 A 
ATOM     20  C   UNL     1      -0.571  11.554  18.295  0.00  0.00    +0.000 A 
ATOM     21  C   UNL     1      -1.322  12.655  18.732  0.00  0.00    +0.000 A 
ATOM     22  C   UNL     1      -1.675  12.657  20.069  0.00  0.00    +0.000 A 
ATOM     23  C   UNL     1      -1.271  11.653  20.929  0.00  0.00    +0.000 A 
ATOM     24  C   UNL     1      -1.729  11.902  22.213  0.00  0.00    +0.000 A 
ATOM     25  C   UNL     1      -1.443  11.057  23.269  0.00  0.00    +0.000 A 
ATOM     26  C   UNL     1      -0.617   9.972  22.979  0.00  0.00    +0.000 A 
ATOM     27  C   UNL     1      -0.127   9.753  21.675  0.00  0.00    +0.000 A 
ATOM     28  C   UNL     1      -0.493  10.574  20.564  0.00  0.00    +0.000 A 
ATOM     29  C   UNL     1      -2.510  13.169  22.260  0.00  0.00    +0.000 C 
ATOM     30  C   UNL     1      -2.481  13.681  20.793  0.00  0.00    +0.000 C 
ENDBRANCH  18  19
ENDBRANCH   1  18
TORSDOF 4
ENDMDL
MODEL 8
REMARK VINA RESULT:      -8.0      2.972      3.575
REMARK  Name = 
REMARK  4 active torsions:
REMARK  status: ('A' for Active; 'I' for Inactive)
REMARK    1  A    between atoms: C_2  and  C_3
REMARK    2  A    between atoms: C_2  and  C_15
REMARK    3  A    between atoms: C_20  and  C_22
REMARK    4  A    between atoms: C_25  and  O_26
REMARK                            x       y       z     vdW  Elec       q    Type
REMARK                         _______ _______ _______ _____ _____    ______ ____
ROOT
ATOM      1  C   UNL     1       0.740   9.186  19.247  0.00  0.00    +0.000 C 
ATOM      2  C   UNL     1       1.505  10.245  18.418  0.00  0.00    +0.000 C 
ATOM      3  C   UNL     1       1.427  11.666  18.961  0.00  0.00    +0.000 C 
ATOM      4  C   UNL     1      -0.003  11.957  19.379  0.00  0.00    +0.000 C 
ATOM      5  N   UNL     1      -0.291  11.106  20.525  0.00  0.00    +0.000 N 
ATOM      6  C   UNL     1      -0.611  11.518  21.817  0.00  0.00    +0.000 C 
ATOM      7  O   UNL     1      -1.044  10.739  22.669  0.00  0.00    +0.000 OA
ATOM      8  C   UNL     1      -0.364   9.683  20.201  0.00  0.00    +0.000 C 
ENDROOT
BRANCH   6   9
ATOM      9  C   UNL     1      -0.458  12.941  22.232  0.00  0.00    +0.000 A 
ATOM     10  C   UNL     1       0.525  13.807  21.751  0.00  0.00    +0.000 A 
ATOM     11  C   UNL     1       0.545  15.137  22.161  0.00  0.00    +0.000 A 
ATOM     12  C   UNL     1      -0.389  15.543  23.096  0.00  0.00    +0.000 A 
ATOM     13  N   UNL     1      -1.310  14.729  23.640  0.00  0.00    +0.000 NA
ATOM     14  C   UNL     1      -1.322  13.442  23.200  0.00  0.00    +0.000 A 
BRANCH  12  15
ATOM     15  O   UNL     1      -0.420  16.828  23.547  0.00  0.00    +0.000 OA
ATOM     16  H   UNL     1      -1.142  16.909  24.187  0.00  0.00    +0.000 HD
ENDBRANCH  12  15
ENDBRANCH   6   9
BRANCH   1  18
ATOM     17  O   UNL     1       1.956   8.376  21.148  0.00  0.00    +0.000 OA
ATOM     18  C   UNL     1       1.702   8.232  19.950  0.00  0.00    +0.000 C 
BRANCH  18  19
ATOM     19  C   UNL     1       2.304   7.050  19.233  0.00  0.00    +0.000 A 
ATOM     20  C   UNL     1       3.155   7.402  18.147  0.00  0.00    +0.000 A 
ATOM     21  C   UNL     1       3.847   6.450  17.383  0.00  0.00    +0.000 A 
ATOM     22  C   UNL     1       3.676   5.130  17.760  0.00  0.00    +0.000 A 
ATOM     23  C   UNL     1       2.837   4.774  18.799  0.00  0.00    +0.000 A 
ATOM     24  C   UNL     1       2.819   3.397  18.954  0.00  0.00    +0.000 A 
ATOM     25  C   UNL     1       2.038   2.779  19.915  0.00  0.00    +0.000 A 
ATOM     26  C   UNL     1       1.227   3.618  20.676  0.00  0.00    +0.000 A 
ATOM     27  C   UNL     1       1.227   5.014  20.480  0.00  0.00    +0.000 A 
ATOM     28  C   UNL     1       2.097   5.662  19.550  0.00  0.00    +0.000 A 
ATOM     29  C   UNL     1       3.706   2.738  17.957  0.00  0.00    +0.000 C 
ATOM     30  C   UNL     1       4.299   3.924  17.144  0.00  0.00    +0.000 C 
ENDBRANCH  18  19
ENDBRANCH   1  18
TORSDOF 4
ENDMDL
MODEL 9
REMARK VINA RESULT:      -7.9      2.870      4.458
REMARK  Name = 
REMARK  4 active torsions:
REMARK  status: ('A' for Active; 'I' for Inactive)
REMARK    1  A    between atoms: C_2  and  C_3
REMARK    2  A    between atoms: C_2  and  C_15
REMARK    3  A    between atoms: C_20  and  C_22
REMARK    4  A    between atoms: C_25  and  O_26
REMARK                            x       y       z     vdW  Elec       q    Type
REMARK                         _______ _______ _______ _____ _____    ______ ____
ROOT
ATOM      1  C   UNL     1       0.439   9.714  19.482  0.00  0.00    +0.000 C 
ATOM      2  C   UNL     1      -0.659  10.123  18.471  0.00  0.00    +0.000 C 
ATOM      3  C   UNL     1      -0.878  11.624  18.332  0.00  0.00    +0.000 C 
ATOM      4  C   UNL     1      -0.884  12.253  19.713  0.00  0.00    +0.000 C 
ATOM      5  N   UNL     1       0.466  12.122  20.244  0.00  0.00    +0.000 N 
ATOM      6  C   UNL     1       1.336  13.155  20.587  0.00  0.00    +0.000 C 
ATOM      7  O   UNL     1       2.375  12.959  21.222  0.00  0.00    +0.000 OA
ATOM      8  C   UNL     1       0.851  10.746  20.549  0.00  0.00    +0.000 C 
ENDROOT
BRANCH   6   9
ATOM      9  C   UNL     1       1.042  14.567  20.210  0.00  0.00    +0.000 A 
ATOM     10  C   UNL     1       1.350  15.140  18.977  0.00  0.00    +0.000 A 
ATOM     11  C   UNL     1       0.979  16.455  18.705  0.00  0.00    +0.000 A 
ATOM     12  C   UNL     1       0.364  17.177  19.710  0.00  0.00    +0.000 A 
ATOM     13  N   UNL     1       0.110  16.690  20.937  0.00  0.00    +0.000 NA
ATOM     14  C   UNL     1       0.459  15.396  21.164  0.00  0.00    +0.000 A 
BRANCH  12  15
ATOM     15  O   UNL     1      -0.017  18.470  19.515  0.00  0.00    +0.000 OA
ATOM     16  H   UNL     1      -0.630  18.498  18.766  0.00  0.00    +0.000 HD
ENDBRANCH  12  15
ENDBRANCH   6   9
BRANCH   1  18
ATOM     17  O   UNL     1       2.301   9.812  17.974  0.00  0.00    +0.000 OA
ATOM     18  C   UNL     1       1.655   9.127  18.770  0.00  0.00    +0.000 C 
BRANCH  18  19
ATOM     19  C   UNL     1       2.149   7.734  19.073  0.00  0.00    +0.000 A 
ATOM     20  C   UNL     1       1.572   7.156  20.241  0.00  0.00    +0.000 A 
ATOM     21  C   UNL     1       1.865   5.852  20.667  0.00  0.00    +0.000 A 
ATOM     22  C   UNL     1       2.738   5.135  19.869  0.00  0.00    +0.000 A 
ATOM     23  C   UNL     1       3.320   5.692  18.745  0.00  0.00    +0.000 A 
ATOM     24  C   UNL     1       4.172   4.781  18.141  0.00  0.00    +0.000 A 
ATOM     25  C   UNL     1       4.897   5.098  17.006  0.00  0.00    +0.000 A 
ATOM     26  C   UNL     1       4.764   6.405  16.541  0.00  0.00    +0.000 A 
ATOM     27  C   UNL     1       3.922   7.332  17.189  0.00  0.00    +0.000 A 
ATOM     28  C   UNL     1       3.105   6.982  18.308  0.00  0.00    +0.000 A 
ATOM     29  C   UNL     1       4.193   3.495  18.891  0.00  0.00    +0.000 C 
ATOM     30  C   UNL     1       3.206   3.734  20.069  0.00  0.00    +0.000 C 
ENDBRANCH  18  19
ENDBRANCH   1  18
TORSDOF 4
ENDMDL
