MODEL 1
REMARK VINA RESULT:      -8.2      0.000      0.000
REMARK  Name = 
REMARK  5 active torsions:
REMARK  status: ('A' for Active; 'I' for Inactive)
REMARK    1  A    between atoms: C_1  and  C_2
REMARK    2  A    between atoms: C_5  and  C_6
REMARK    3  A    between atoms: C_6  and  N_7
REMARK    4  A    between atoms: C_9  and  C_10
REMARK    5  A    between atoms: C_17  and  C_18
REMARK                            x       y       z     vdW  Elec       q    Type
REMARK                         _______ _______ _______ _____ _____    ______ ____
ROOT
ATOM      1  N   UNL     1       3.973   3.038  17.901  0.00  0.00    +0.000 N 
ATOM      2  C   UNL     1       2.594   2.895  17.504  0.00  0.00    +0.000 C 
ATOM      3  C   UNL     1       1.860   2.807  18.830  0.00  0.00    +0.000 C 
ATOM      4  C   UNL     1       2.867   2.150  19.767  0.00  0.00    +0.000 C 
ATOM      5  C   UNL     1       4.187   2.604  19.203  0.00  0.00    +0.000 C 
ATOM      6  O   UNL     1       5.250   2.562  19.795  0.00  0.00    +0.000 OA
ENDROOT
BRANCH   3   7
ATOM      7  C   UNL     1       1.428   4.154  19.402  0.00  0.00    +0.000 C 
ATOM      8  O   UNL     1       0.446   4.218  20.138  0.00  0.00    +0.000 OA
ATOM      9  N   UNL     1       2.224   5.225  19.059  0.00  0.00    +0.000 N 
ATOM     10  C   UNL     1       1.991   6.526  19.500  0.00  0.00    +0.000 A 
ATOM     11  C   UNL     1       1.685   6.811  20.824  0.00  0.00    +0.000 A 
ATOM     12  C   UNL     1       1.443   8.133  21.176  0.00  0.00    +0.000 A 
ATOM     13  C   UNL     1       1.468   9.113  20.190  0.00  0.00    +0.000 A 
ATOM     14  C   UNL     1       1.787   8.743  18.889  0.00  0.00    +0.000 A 
ATOM     15  C   UNL     1       1.721   9.737  17.769  0.00  0.00    +0.000 C 
ATOM     16  N   UNL     1       2.102   7.471  18.546  0.00  0.00    +0.000 NA
ATOM     17  H   UNL     1       2.705   5.202  18.168  0.00  0.00    +0.000 HD
ENDBRANCH   3   7
BRANCH   1  18
ATOM     18  C   UNL     1       5.035   3.389  16.974  0.00  0.00    +0.000 C 
BRANCH  18  23
ATOM     19  C   UNL     1       7.832   8.452  17.730  0.00  0.00    +0.000 C 
ATOM     20  C   UNL     1       7.095   7.150  17.616  0.00  0.00    +0.000 A 
ATOM     21  C   UNL     1       7.678   5.945  18.023  0.00  0.00    +0.000 A 
ATOM     22  C   UNL     1       6.996   4.732  17.858  0.00  0.00    +0.000 A 
ATOM     23  C   UNL     1       5.722   4.702  17.276  0.00  0.00    +0.000 A 
ATOM     24  C   UNL     1       5.141   5.917  16.886  0.00  0.00    +0.000 A 
ATOM     25  C   UNL     1       5.815   7.127  17.059  0.00  0.00    +0.000 A 
ENDBRANCH  18  23
ENDBRANCH   1  18
TORSDOF 3
ENDMDL
MODEL 2
REMARK VINA RESULT:      -8.0      0.430      1.042
REMARK  Name = 
REMARK  5 active torsions:
REMARK  status: ('A' for Active; 'I' for Inactive)
REMARK    1  A    between atoms: C_1  and  C_2
REMARK    2  A    between atoms: C_5  and  C_6
REMARK    3  A    between atoms: C_6  and  N_7
REMARK    4  A    between atoms: C_9  and  C_10
REMARK    5  A    between atoms: C_17  and  C_18
REMARK                            x       y       z     vdW  Elec       q    Type
REMARK                         _______ _______ _______ _____ _____    ______ ____
ROOT
ATOM      1  N   UNL     1       3.789   3.200  17.931  0.00  0.00    +0.000 N 
ATOM      2  C   UNL     1       2.398   2.828  17.854  0.00  0.00    +0.000 C 
ATOM      3  C   UNL     1       1.943   2.889  19.301  0.00  0.00    +0.000 C 
ATOM      4  C   UNL     1       3.192   2.529  20.097  0.00  0.00    +0.000 C 
ATOM      5  C   UNL     1       4.302   3.029  19.211  0.00  0.00    +0.000 C 
ATOM      6  O   UNL     1       5.451   3.217  19.570  0.00  0.00    +0.000 OA
ENDROOT
BRANCH   3   7
ATOM      7  C   UNL     1       1.428   4.255  19.743  0.00  0.00    +0.000 C 
ATOM      8  O   UNL     1       0.371   4.338  20.367  0.00  0.00    +0.000 OA
ATOM      9  N   UNL     1       2.235   5.324  19.423  0.00  0.00    +0.000 N 
ATOM     10  C   UNL     1       1.932   6.643  19.759  0.00  0.00    +0.000 A 
ATOM     11  C   UNL     1       1.481   6.995  21.024  0.00  0.00    +0.000 A 
ATOM     12  C   UNL     1       1.179   8.329  21.269  0.00  0.00    +0.000 A 
ATOM     13  C   UNL     1       1.291   9.251  20.235  0.00  0.00    +0.000 A 
ATOM     14  C   UNL     1       1.754   8.815  18.998  0.00  0.00    +0.000 A 
ATOM     15  C   UNL     1       1.790   9.742  17.821  0.00  0.00    +0.000 C 
ATOM     16  N   UNL     1       2.127   7.534  18.767  0.00  0.00    +0.000 NA
ATOM     17  H   UNL     1       2.809   5.262  18.591  0.00  0.00    +0.000 HD
ENDBRANCH   3   7
BRANCH   1  18
ATOM     18  C   UNL     1       4.597   3.504  16.763  0.00  0.00    +0.000 C 
BRANCH  18  23
ATOM     19  C   UNL     1       7.763   8.322  17.653  0.00  0.00    +0.000 C 
ATOM     20  C   UNL     1       6.944   7.103  17.344  0.00  0.00    +0.000 A 
ATOM     21  C   UNL     1       5.559   7.182  17.167  0.00  0.00    +0.000 A 
ATOM     22  C   UNL     1       4.803   6.026  16.933  0.00  0.00    +0.000 A 
ATOM     23  C   UNL     1       5.418   4.768  16.882  0.00  0.00    +0.000 A 
ATOM     24  C   UNL     1       6.810   4.702  17.046  0.00  0.00    +0.000 A 
ATOM     25  C   UNL     1       7.565   5.855  17.268  0.00  0.00    +0.000 A 
ENDBRANCH  18  23
ENDBRANCH   1  18
TORSDOF 3
ENDMDL
MODEL 3
REMARK VINA RESULT:      -8.0      3.323      6.700
REMARK  Name = 
REMARK  5 active torsions:
REMARK  status: ('A' for Active; 'I' for Inactive)
REMARK    1  A    between atoms: C_1  and  C_2
REMARK    2  A    between atoms: C_5  and  C_6
REMARK    3  A    between atoms: C_6  and  N_7
REMARK    4  A    between atoms: C_9  and  C_10
REMARK    5  A    between atoms: C_17  and  C_18
REMARK                            x       y       z     vdW  Elec       q    Type
REMARK                         _______ _______ _______ _____ _____    ______ ____
ROOT
ATOM      1  N   UNL     1       5.514   5.173  17.534  0.00  0.00    +0.000 N 
ATOM      2  C   UNL     1       6.056   5.630  18.790  0.00  0.00    +0.000 C 
ATOM      3  C   UNL     1       7.532   5.808  18.485  0.00  0.00    +0.000 C 
ATOM      4  C   UNL     1       7.818   4.759  17.416  0.00  0.00    +0.000 C 
ATOM      5  C   UNL     1       6.496   4.644  16.707  0.00  0.00    +0.000 C 
ATOM      6  O   UNL     1       6.335   4.142  15.608  0.00  0.00    +0.000 OA
ENDROOT
BRANCH   3   7
ATOM      7  C   UNL     1       7.905   7.191  17.960  0.00  0.00    +0.000 C 
ATOM      8  O   UNL     1       7.842   7.425  16.754  0.00  0.00    +0.000 OA
ATOM      9  N   UNL     1       8.266   8.111  18.920  0.00  0.00    +0.000 N 
ATOM     10  C   UNL     1       8.623   9.426  18.627  0.00  0.00    +0.000 A 
ATOM     11  C   UNL     1       7.892  10.208  17.744  0.00  0.00    +0.000 A 
ATOM     12  C   UNL     1       8.331  11.502  17.489  0.00  0.00    +0.000 A 
ATOM     13  C   UNL     1       9.504  11.950  18.085  0.00  0.00    +0.000 A 
ATOM     14  C   UNL     1      10.174  11.103  18.960  0.00  0.00    +0.000 A 
ATOM     15  C   UNL     1      11.499  11.493  19.544  0.00  0.00    +0.000 C 
ATOM     16  N   UNL     1       9.717   9.869  19.279  0.00  0.00    +0.000 NA
ATOM     17  H   UNL     1       8.703   7.774  19.769  0.00  0.00    +0.000 HD
ENDBRANCH   3   7
BRANCH   1  18
ATOM     18  C   UNL     1       4.088   5.083  17.269  0.00  0.00    +0.000 C 
BRANCH  18  23
ATOM     19  C   UNL     1       1.310   2.600  21.758  0.00  0.00    +0.000 C 
ATOM     20  C   UNL     1       1.971   3.202  20.553  0.00  0.00    +0.000 A 
ATOM     21  C   UNL     1       2.834   2.454  19.746  0.00  0.00    +0.000 A 
ATOM     22  C   UNL     1       3.485   3.047  18.656  0.00  0.00    +0.000 A 
ATOM     23  C   UNL     1       3.291   4.403  18.359  0.00  0.00    +0.000 A 
ATOM     24  C   UNL     1       2.412   5.140  19.166  0.00  0.00    +0.000 A 
ATOM     25  C   UNL     1       1.754   4.547  20.246  0.00  0.00    +0.000 A 
ENDBRANCH  18  23
ENDBRANCH   1  18
TORSDOF 3
ENDMDL
MODEL 4
REMARK VINA RESULT:      -8.0      3.310      5.607
REMARK  Name = 
REMARK  5 active torsions:
REMARK  status: ('A' for Active; 'I' for Inactive)
REMARK    1  A    between atoms: C_1  and  C_2
REMARK    2  A    between atoms: C_5  and  C_6
REMARK    3  A    between atoms: C_6  and  N_7
REMARK    4  A    between atoms: C_9  and  C_10
REMARK    5  A    between atoms: C_17  and  C_18
REMARK                            x       y       z     vdW  Elec       q    Type
REMARK                         _______ _______ _______ _____ _____    ______ ____
ROOT
ATOM      1  N   UNL     1       7.515   5.666  16.371  0.00  0.00    +0.000 N 
ATOM      2  C   UNL     1       7.503   4.391  17.044  0.00  0.00    +0.000 C 
ATOM      3  C   UNL     1       6.895   4.719  18.395  0.00  0.00    +0.000 C 
ATOM      4  C   UNL     1       7.326   6.158  18.655  0.00  0.00    +0.000 C 
ATOM      5  C   UNL     1       7.430   6.726  17.265  0.00  0.00    +0.000 C 
ATOM      6  O   UNL     1       7.462   7.914  16.997  0.00  0.00    +0.000 OA
ENDROOT
BRANCH   3   7
ATOM      7  C   UNL     1       5.373   4.622  18.443  0.00  0.00    +0.000 C 
ATOM      8  O   UNL     1       4.688   5.493  17.910  0.00  0.00    +0.000 OA
ATOM      9  N   UNL     1       4.871   3.506  19.075  0.00  0.00    +0.000 N 
ATOM     10  C   UNL     1       3.508   3.243  19.200  0.00  0.00    +0.000 A 
ATOM     11  C   UNL     1       2.629   3.386  18.135  0.00  0.00    +0.000 A 
ATOM     12  C   UNL     1       1.281   3.127  18.351  0.00  0.00    +0.000 A 
ATOM     13  C   UNL     1       0.854   2.781  19.628  0.00  0.00    +0.000 A 
ATOM     14  C   UNL     1       1.800   2.656  20.639  0.00  0.00    +0.000 A 
ATOM     15  C   UNL     1       1.383   2.394  22.054  0.00  0.00    +0.000 C 
ATOM     16  N   UNL     1       3.127   2.829  20.425  0.00  0.00    +0.000 NA
ATOM     17  H   UNL     1       5.413   3.092  19.824  0.00  0.00    +0.000 HD
ENDBRANCH   3   7
BRANCH   1  18
ATOM     18  C   UNL     1       7.802   5.816  14.955  0.00  0.00    +0.000 C 
BRANCH  18  23
ATOM     19  C   UNL     1       4.569   2.658  11.265  0.00  0.00    +0.000 C 
ATOM     20  C   UNL     1       5.415   3.401  12.257  0.00  0.00    +0.000 A 
ATOM     21  C   UNL     1       4.916   3.764  13.512  0.00  0.00    +0.000 A 
ATOM     22  C   UNL     1       5.701   4.506  14.405  0.00  0.00    +0.000 A 
ATOM     23  C   UNL     1       6.998   4.905  14.054  0.00  0.00    +0.000 A 
ATOM     24  C   UNL     1       7.494   4.523  12.799  0.00  0.00    +0.000 A 
ATOM     25  C   UNL     1       6.716   3.775  11.913  0.00  0.00    +0.000 A 
ENDBRANCH  18  23
ENDBRANCH   1  18
TORSDOF 3
ENDMDL
MODEL 5
REMARK VINA RESULT:      -7.9      3.416      6.849
REMARK  Name = 
REMARK  5 active torsions:
REMARK  status: ('A' for Active; 'I' for Inactive)
REMARK    1  A    between atoms: C_1  and  C_2
REMARK    2  A    between atoms: C_5  and  C_6
REMARK    3  A    between atoms: C_6  and  N_7
REMARK    4  A    between atoms: C_9  and  C_10
REMARK    5  A    between atoms: C_17  and  C_18
REMARK                            x       y       z     vdW  Elec       q    Type
REMARK                         _______ _______ _______ _____ _____    ______ ____
ROOT
ATOM      1  N   UNL     1       5.543   5.328  17.800  0.00  0.00    +0.000 N 
ATOM      2  C   UNL     1       6.252   5.725  18.991  0.00  0.00    +0.000 C 
ATOM      3  C   UNL     1       7.681   5.889  18.503  0.00  0.00    +0.000 C 
ATOM      4  C   UNL     1       7.803   4.878  17.369  0.00  0.00    +0.000 C 
ATOM      5  C   UNL     1       6.398   4.814  16.833  0.00  0.00    +0.000 C 
ATOM      6  O   UNL     1       6.085   4.359  15.747  0.00  0.00    +0.000 OA
ENDROOT
BRANCH   3   7
ATOM      7  C   UNL     1       8.014   7.285  17.986  0.00  0.00    +0.000 C 
ATOM      8  O   UNL     1       7.898   7.536  16.787  0.00  0.00    +0.000 OA
ATOM      9  N   UNL     1       8.401   8.195  18.944  0.00  0.00    +0.000 N 
ATOM     10  C   UNL     1       8.729   9.519  18.658  0.00  0.00    +0.000 A 
ATOM     11  C   UNL     1       7.952  10.305  17.817  0.00  0.00    +0.000 A 
ATOM     12  C   UNL     1       8.363  11.608  17.565  0.00  0.00    +0.000 A 
ATOM     13  C   UNL     1       9.554  12.063  18.120  0.00  0.00    +0.000 A 
ATOM     14  C   UNL     1      10.270  11.212  18.954  0.00  0.00    +0.000 A 
ATOM     15  C   UNL     1      11.612  11.611  19.490  0.00  0.00    +0.000 C 
ATOM     16  N   UNL     1       9.842   9.967  19.272  0.00  0.00    +0.000 NA
ATOM     17  H   UNL     1       8.877   7.852  19.770  0.00  0.00    +0.000 HD
ENDBRANCH   3   7
BRANCH   1  18
ATOM     18  C   UNL     1       4.093   5.273  17.719  0.00  0.00    +0.000 C 
BRANCH  18  23
ATOM     19  C   UNL     1       1.190   2.538  21.976  0.00  0.00    +0.000 C 
ATOM     20  C   UNL     1       1.992   3.265  20.937  0.00  0.00    +0.000 A 
ATOM     21  C   UNL     1       1.920   4.656  20.804  0.00  0.00    +0.000 A 
ATOM     22  C   UNL     1       2.634   5.313  19.792  0.00  0.00    +0.000 A 
ATOM     23  C   UNL     1       3.426   4.589  18.891  0.00  0.00    +0.000 A 
ATOM     24  C   UNL     1       3.504   3.197  19.044  0.00  0.00    +0.000 A 
ATOM     25  C   UNL     1       2.801   2.543  20.058  0.00  0.00    +0.000 A 
ENDBRANCH  18  23
ENDBRANCH   1  18
TORSDOF 3
ENDMDL
MODEL 6
REMARK VINA RESULT:      -7.9      3.263      6.415
REMARK  Name = 
REMARK  5 active torsions:
REMARK  status: ('A' for Active; 'I' for Inactive)
REMARK    1  A    between atoms: C_1  and  C_2
REMARK    2  A    between atoms: C_5  and  C_6
REMARK    3  A    between atoms: C_6  and  N_7
REMARK    4  A    between atoms: C_9  and  C_10
REMARK    5  A    between atoms: C_17  and  C_18
REMARK                            x       y       z     vdW  Elec       q    Type
REMARK                         _______ _______ _______ _____ _____    ______ ____
ROOT
ATOM      1  N   UNL     1       5.550   5.055  18.233  0.00  0.00    +0.000 N 
ATOM      2  C   UNL     1       6.385   5.498  19.322  0.00  0.00    +0.000 C 
ATOM      3  C   UNL     1       7.737   5.697  18.661  0.00  0.00    +0.000 C 
ATOM      4  C   UNL     1       7.755   4.668  17.537  0.00  0.00    +0.000 C 
ATOM      5  C   UNL     1       6.298   4.549  17.178  0.00  0.00    +0.000 C 
ATOM      6  O   UNL     1       5.871   4.062  16.145  0.00  0.00    +0.000 OA
ENDROOT
BRANCH   3   7
ATOM      7  C   UNL     1       7.958   7.092  18.085  0.00  0.00    +0.000 C 
ATOM      8  O   UNL     1       7.712   7.309  16.899  0.00  0.00    +0.000 OA
ATOM      9  N   UNL     1       8.401   8.040  18.980  0.00  0.00    +0.000 N 
ATOM     10  C   UNL     1       8.643   9.369  18.635  0.00  0.00    +0.000 A 
ATOM     11  C   UNL     1       7.753  10.102  17.862  0.00  0.00    +0.000 A 
ATOM     12  C   UNL     1       8.082  11.414  17.543  0.00  0.00    +0.000 A 
ATOM     13  C   UNL     1       9.302  11.929  17.965  0.00  0.00    +0.000 A 
ATOM     14  C   UNL     1      10.133  11.128  18.740  0.00  0.00    +0.000 A 
ATOM     15  C   UNL     1      11.504  11.593  19.129  0.00  0.00    +0.000 C 
ATOM     16  N   UNL     1       9.792   9.875  19.124  0.00  0.00    +0.000 NA
ATOM     17  H   UNL     1       8.971   7.736  19.761  0.00  0.00    +0.000 HD
ENDBRANCH   3   7
BRANCH   1  18
ATOM     18  C   UNL     1       4.104   4.953  18.330  0.00  0.00    +0.000 C 
BRANCH  18  23
ATOM     19  C   UNL     1       1.014   9.854  19.006  0.00  0.00    +0.000 C 
ATOM     20  C   UNL     1       1.876   8.636  18.853  0.00  0.00    +0.000 A 
ATOM     21  C   UNL     1       2.667   8.443  17.717  0.00  0.00    +0.000 A 
ATOM     22  C   UNL     1       3.425   7.273  17.565  0.00  0.00    +0.000 A 
ATOM     23  C   UNL     1       3.397   6.272  18.545  0.00  0.00    +0.000 A 
ATOM     24  C   UNL     1       2.612   6.483  19.688  0.00  0.00    +0.000 A 
ATOM     25  C   UNL     1       1.865   7.652  19.845  0.00  0.00    +0.000 A 
ENDBRANCH  18  23
ENDBRANCH   1  18
TORSDOF 3
ENDMDL
MODEL 7
REMARK VINA RESULT:      -7.7      3.332      5.602
REMARK  Name = 
REMARK  5 active torsions:
REMARK  status: ('A' for Active; 'I' for Inactive)
REMARK    1  A    between atoms: C_1  and  C_2
REMARK    2  A    between atoms: C_5  and  C_6
REMARK    3  A    between atoms: C_6  and  N_7
REMARK    4  A    between atoms: C_9  and  C_10
REMARK    5  A    between atoms: C_17  and  C_18
REMARK                            x       y       z     vdW  Elec       q    Type
REMARK                         _______ _______ _______ _____ _____    ______ ____
ROOT
ATOM      1  N   UNL     1       7.486   5.767  16.344  0.00  0.00    +0.000 N 
ATOM      2  C   UNL     1       7.489   4.438  16.903  0.00  0.00    +0.000 C 
ATOM      3  C   UNL     1       6.883   4.641  18.280  0.00  0.00    +0.000 C 
ATOM      4  C   UNL     1       7.301   6.056  18.663  0.00  0.00    +0.000 C 
ATOM      5  C   UNL     1       7.395   6.744  17.327  0.00  0.00    +0.000 C 
ATOM      6  O   UNL     1       7.415   7.951  17.164  0.00  0.00    +0.000 OA
ENDROOT
BRANCH   3   7
ATOM      7  C   UNL     1       5.362   4.525  18.323  0.00  0.00    +0.000 C 
ATOM      8  O   UNL     1       4.669   5.354  17.736  0.00  0.00    +0.000 OA
ATOM      9  N   UNL     1       4.871   3.441  19.016  0.00  0.00    +0.000 N 
ATOM     10  C   UNL     1       3.511   3.166  19.148  0.00  0.00    +0.000 A 
ATOM     11  C   UNL     1       2.638   3.235  18.071  0.00  0.00    +0.000 A 
ATOM     12  C   UNL     1       1.292   2.970  18.294  0.00  0.00    +0.000 A 
ATOM     13  C   UNL     1       0.860   2.693  19.586  0.00  0.00    +0.000 A 
ATOM     14  C   UNL     1       1.802   2.640  20.608  0.00  0.00    +0.000 A 
ATOM     15  C   UNL     1       1.378   2.455  22.034  0.00  0.00    +0.000 C 
ATOM     16  N   UNL     1       3.127   2.819  20.392  0.00  0.00    +0.000 NA
ATOM     17  H   UNL     1       5.413   3.079  19.792  0.00  0.00    +0.000 HD
ENDBRANCH   3   7
BRANCH   1  18
ATOM     18  C   UNL     1       7.766   6.043  14.945  0.00  0.00    +0.000 C 
BRANCH  18  23
ATOM     19  C   UNL     1       5.161   2.201  11.412  0.00  0.00    +0.000 C 
ATOM     20  C   UNL     1       5.804   3.249  12.271  0.00  0.00    +0.000 A 
ATOM     21  C   UNL     1       7.016   3.845  11.907  0.00  0.00    +0.000 A 
ATOM     22  C   UNL     1       7.631   4.783  12.749  0.00  0.00    +0.000 A 
ATOM     23  C   UNL     1       7.047   5.134  13.973  0.00  0.00    +0.000 A 
ATOM     24  C   UNL     1       5.824   4.543  14.320  0.00  0.00    +0.000 A 
ATOM     25  C   UNL     1       5.206   3.616  13.479  0.00  0.00    +0.000 A 
ENDBRANCH  18  23
ENDBRANCH   1  18
TORSDOF 3
ENDMDL
MODEL 8
REMARK VINA RESULT:      -7.7      3.614      7.037
REMARK  Name = 
REMARK  5 active torsions:
REMARK  status: ('A' for Active; 'I' for Inactive)
REMARK    1  A    between atoms: C_1  and  C_2
REMARK    2  A    between atoms: C_5  and  C_6
REMARK    3  A    between atoms: C_6  and  N_7
REMARK    4  A    between atoms: C_9  and  C_10
REMARK    5  A    between atoms: C_17  and  C_18
REMARK                            x       y       z     vdW  Elec       q    Type
REMARK                         _______ _______ _______ _____ _____    ______ ____
ROOT
ATOM      1  N   UNL     1       6.074   5.528  17.278  0.00  0.00    +0.000 N 
ATOM      2  C   UNL     1       6.053   6.224  18.541  0.00  0.00    +0.000 C 
ATOM      3  C   UNL     1       7.522   6.495  18.810  0.00  0.00    +0.000 C 
ATOM      4  C   UNL     1       8.242   5.327  18.147  0.00  0.00    +0.000 C 
ATOM      5  C   UNL     1       7.320   4.974  17.011  0.00  0.00    +0.000 C 
ATOM      6  O   UNL     1       7.627   4.296  16.047  0.00  0.00    +0.000 OA
ENDROOT
BRANCH   3   7
ATOM      7  C   UNL     1       8.037   7.810  18.232  0.00  0.00    +0.000 C 
ATOM      8  O   UNL     1       7.963   8.016  17.022  0.00  0.00    +0.000 OA
ATOM      9  N   UNL     1       8.532   8.707  19.152  0.00  0.00    +0.000 N 
ATOM     10  C   UNL     1       9.030   9.963  18.809  0.00  0.00    +0.000 A 
ATOM     11  C   UNL     1       8.367  10.801  17.922  0.00  0.00    +0.000 A 
ATOM     12  C   UNL     1       8.945  12.027  17.614  0.00  0.00    +0.000 A 
ATOM     13  C   UNL     1      10.180  12.351  18.163  0.00  0.00    +0.000 A 
ATOM     14  C   UNL     1      10.774  11.456  19.046  0.00  0.00    +0.000 A 
ATOM     15  C   UNL     1      12.153  11.705  19.580  0.00  0.00    +0.000 C 
ATOM     16  N   UNL     1      10.187  10.293  19.416  0.00  0.00    +0.000 NA
ATOM     17  H   UNL     1       8.953   8.346  20.000  0.00  0.00    +0.000 HD
ENDBRANCH   3   7
BRANCH   1  18
ATOM     18  C   UNL     1       4.878   5.259  16.498  0.00  0.00    +0.000 C 
BRANCH  18  23
ATOM     19  C   UNL     1       0.616   2.101  18.927  0.00  0.00    +0.000 C 
ATOM     20  C   UNL     1       1.738   2.933  18.378  0.00  0.00    +0.000 A 
ATOM     21  C   UNL     1       1.653   4.329  18.330  0.00  0.00    +0.000 A 
ATOM     22  C   UNL     1       2.687   5.087  17.764  0.00  0.00    +0.000 A 
ATOM     23  C   UNL     1       3.821   4.462  17.228  0.00  0.00    +0.000 A 
ATOM     24  C   UNL     1       3.903   3.063  17.295  0.00  0.00    +0.000 A 
ATOM     25  C   UNL     1       2.878   2.307  17.869  0.00  0.00    +0.000 A 
ENDBRANCH  18  23
ENDBRANCH   1  18
TORSDOF 3
ENDMDL
MODEL 9
REMARK VINA RESULT:      -7.6      3.260      6.441
REMARK  Name = 
REMARK  5 active torsions:
REMARK  status: ('A' for Active; 'I' for Inactive)
REMARK    1  A    between atoms: C_1  and  C_2
REMARK    2  A    between atoms: C_5  and  C_6
REMARK    3  A    between atoms: C_6  and  N_7
REMARK    4  A    between atoms: C_9  and  C_10
REMARK    5  A    between atoms: C_17  and  C_18
REMARK                            x       y       z     vdW  Elec       q    Type
REMARK                         _______ _______ _______ _____ _____    ______ ____
ROOT
ATOM      1  N   UNL     1       5.527   5.053  17.669  0.00  0.00    +0.000 N 
ATOM      2  C   UNL     1       6.079   5.551  18.905  0.00  0.00    +0.000 C 
ATOM      3  C   UNL     1       7.543   5.770  18.567  0.00  0.00    +0.000 C 
ATOM      4  C   UNL     1       7.841   4.710  17.513  0.00  0.00    +0.000 C 
ATOM      5  C   UNL     1       6.509   4.539  16.832  0.00  0.00    +0.000 C 
ATOM      6  O   UNL     1       6.343   4.012  15.746  0.00  0.00    +0.000 OA
ENDROOT
BRANCH   3   7
ATOM      7  C   UNL     1       7.861   7.153  18.009  0.00  0.00    +0.000 C 
ATOM      8  O   UNL     1       7.707   7.379  16.810  0.00  0.00    +0.000 OA
ATOM      9  N   UNL     1       8.282   8.082  18.935  0.00  0.00    +0.000 N 
ATOM     10  C   UNL     1       8.602   9.400  18.610  0.00  0.00    +0.000 A 
ATOM     11  C   UNL     1       7.799  10.169  17.778  0.00  0.00    +0.000 A 
ATOM     12  C   UNL     1       8.204  11.466  17.485  0.00  0.00    +0.000 A 
ATOM     13  C   UNL     1       9.413  11.929  17.991  0.00  0.00    +0.000 A 
ATOM     14  C   UNL     1      10.155  11.095  18.820  0.00  0.00    +0.000 A 
ATOM     15  C   UNL     1      11.514  11.502  19.303  0.00  0.00    +0.000 C 
ATOM     16  N   UNL     1       9.735   9.858  19.177  0.00  0.00    +0.000 NA
ATOM     17  H   UNL     1       8.783   7.756  19.752  0.00  0.00    +0.000 HD
ENDBRANCH   3   7
BRANCH   1  18
ATOM     18  C   UNL     1       4.100   4.913  17.435  0.00  0.00    +0.000 C 
BRANCH  18  23
ATOM     19  C   UNL     1       1.111   8.259  21.163  0.00  0.00    +0.000 C 
ATOM     20  C   UNL     1       1.808   7.366  20.179  0.00  0.00    +0.000 A 
ATOM     21  C   UNL     1       2.018   6.010  20.448  0.00  0.00    +0.000 A 
ATOM     22  C   UNL     1       2.720   5.203  19.542  0.00  0.00    +0.000 A 
ATOM     23  C   UNL     1       3.231   5.742  18.353  0.00  0.00    +0.000 A 
ATOM     24  C   UNL     1       3.001   7.099  18.086  0.00  0.00    +0.000 A 
ATOM     25  C   UNL     1       2.293   7.901  18.983  0.00  0.00    +0.000 A 
ENDBRANCH  18  23
ENDBRANCH   1  18
TORSDOF 3
ENDMDL
