MODEL 1
REMARK VINA RESULT:      -7.4      0.000      0.000
REMARK  Name = 
REMARK  6 active torsions:
REMARK  status: ('A' for Active; 'I' for Inactive)
REMARK    1  A    between atoms: C_1  and  O_2
REMARK    2  A    between atoms: O_2  and  C_3
REMARK    3  A    between atoms: C_6  and  O_7
REMARK    4  A    between atoms: O_7  and  C_8
REMARK    5  A    between atoms: C_8  and  C_9
REMARK    6  A    between atoms: C_11  and  C_12
REMARK                            x       y       z     vdW  Elec       q    Type
REMARK                         _______ _______ _______ _____ _____    ______ ____
ROOT
ATOM      1  C   UNL     1       3.280   3.407  19.884  0.00  0.00    +0.000 C 
ATOM      2  C   UNL     1       3.132   4.848  20.187  0.00  0.00    +0.000 C 
ATOM      3  C   UNL     1       2.339   5.459  19.302  0.00  0.00    +0.000 C 
ATOM      4  C   UNL     1       1.877   4.400  18.378  0.00  0.00    +0.000 C 
ATOM      5  O   UNL     1       1.131   4.548  17.425  0.00  0.00    +0.000 OA
ATOM      6  O   UNL     1       2.417   3.210  18.759  0.00  0.00    +0.000 OA
ENDROOT
BRANCH   3   7
ATOM      7  C   UNL     1       2.047   6.894  19.230  0.00  0.00    +0.000 A 
ATOM      8  C   UNL     1       1.505   7.578  20.328  0.00  0.00    +0.000 A 
ATOM      9  C   UNL     1       1.183   8.937  20.242  0.00  0.00    +0.000 A 
ATOM     10  C   UNL     1       1.403   9.626  19.054  0.00  0.00    +0.000 A 
ATOM     11 BR   UNL     1       0.945  11.455  18.927  0.00  0.00    +0.000 Br
ATOM     12  C   UNL     1       1.955   8.973  17.957  0.00  0.00    +0.000 A 
ATOM     13  C   UNL     1       2.278   7.616  18.046  0.00  0.00    +0.000 A 
ENDBRANCH   3   7
BRANCH   1  14
ATOM     14  C   UNL     1       4.722   3.051  19.502  0.00  0.00    +0.000 C 
BRANCH  14  15
ATOM     15  O   UNL     1       4.940   3.421  18.138  0.00  0.00    +0.000 OA
BRANCH  15  19
ATOM     16  C   UNL     1       7.042   6.942  17.381  0.00  0.00    +0.000 A 
ATOM     17  C   UNL     1       5.864   6.621  16.705  0.00  0.00    +0.000 A 
ATOM     18  C   UNL     1       5.182   5.437  16.997  0.00  0.00    +0.000 A 
ATOM     19  C   UNL     1       5.691   4.545  17.938  0.00  0.00    +0.000 A 
ATOM     20  C   UNL     1       6.869   4.863  18.616  0.00  0.00    +0.000 A 
ATOM     21  C   UNL     1       7.543   6.057  18.335  0.00  0.00    +0.000 A 
BRANCH  16  23
ATOM     22  C   UNL     1       8.210   8.879  18.060  0.00  0.00    +0.000 C 
ATOM     23  O   UNL     1       7.631   8.117  17.006  0.00  0.00    +0.000 OA
ENDBRANCH  16  23
ENDBRANCH  15  19
ENDBRANCH  14  15
ENDBRANCH   1  14
TORSDOF 5
ENDMDL
MODEL 2
REMARK VINA RESULT:      -7.3      1.323      1.930
REMARK  Name = 
REMARK  6 active torsions:
REMARK  status: ('A' for Active; 'I' for Inactive)
REMARK    1  A    between atoms: C_1  and  O_2
REMARK    2  A    between atoms: O_2  and  C_3
REMARK    3  A    between atoms: C_6  and  O_7
REMARK    4  A    between atoms: O_7  and  C_8
REMARK    5  A    between atoms: C_8  and  C_9
REMARK    6  A    between atoms: C_11  and  C_12
REMARK                            x       y       z     vdW  Elec       q    Type
REMARK                         _______ _______ _______ _____ _____    ______ ____
ROOT
ATOM      1  C   UNL     1       3.001   3.143  20.002  0.00  0.00    +0.000 C 
ATOM      2  C   UNL     1       2.923   4.593  20.283  0.00  0.00    +0.000 C 
ATOM      3  C   UNL     1       2.233   5.242  19.342  0.00  0.00    +0.000 C 
ATOM      4  C   UNL     1       1.770   4.203  18.395  0.00  0.00    +0.000 C 
ATOM      5  O   UNL     1       1.101   4.387  17.393  0.00  0.00    +0.000 OA
ATOM      6  O   UNL     1       2.207   2.987  18.821  0.00  0.00    +0.000 OA
ENDROOT
BRANCH   3   7
ATOM      7  C   UNL     1       2.036   6.692  19.239  0.00  0.00    +0.000 A 
ATOM      8  C   UNL     1       1.530   7.431  20.318  0.00  0.00    +0.000 A 
ATOM      9  C   UNL     1       1.300   8.806  20.203  0.00  0.00    +0.000 A 
ATOM     10  C   UNL     1       1.575   9.456  19.004  0.00  0.00    +0.000 A 
ATOM     11 BR   UNL     1       1.241  11.308  18.838  0.00  0.00    +0.000 Br
ATOM     12  C   UNL     1       2.094   8.747  17.926  0.00  0.00    +0.000 A 
ATOM     13  C   UNL     1       2.326   7.373  18.044  0.00  0.00    +0.000 A 
ENDBRANCH   3   7
BRANCH   1  14
ATOM     14  C   UNL     1       4.441   2.694  19.723  0.00  0.00    +0.000 C 
BRANCH  14  15
ATOM     15  O   UNL     1       5.278   3.851  19.654  0.00  0.00    +0.000 OA
BRANCH  15  19
ATOM     16  C   UNL     1       6.837   5.007  15.963  0.00  0.00    +0.000 A 
ATOM     17  C   UNL     1       7.347   5.491  17.168  0.00  0.00    +0.000 A 
ATOM     18  C   UNL     1       6.806   5.069  18.385  0.00  0.00    +0.000 A 
ATOM     19  C   UNL     1       5.725   4.190  18.408  0.00  0.00    +0.000 A 
ATOM     20  C   UNL     1       5.212   3.705  17.204  0.00  0.00    +0.000 A 
ATOM     21  C   UNL     1       5.766   4.115  15.986  0.00  0.00    +0.000 A 
BRANCH  16  23
ATOM     22  C   UNL     1       7.077   4.849  13.619  0.00  0.00    +0.000 C 
ATOM     23  O   UNL     1       7.434   5.497  14.835  0.00  0.00    +0.000 OA
ENDBRANCH  16  23
ENDBRANCH  15  19
ENDBRANCH  14  15
ENDBRANCH   1  14
TORSDOF 5
ENDMDL
MODEL 3
REMARK VINA RESULT:      -7.3      0.109      1.011
REMARK  Name = 
REMARK  6 active torsions:
REMARK  status: ('A' for Active; 'I' for Inactive)
REMARK    1  A    between atoms: C_1  and  O_2
REMARK    2  A    between atoms: O_2  and  C_3
REMARK    3  A    between atoms: C_6  and  O_7
REMARK    4  A    between atoms: O_7  and  C_8
REMARK    5  A    between atoms: C_8  and  C_9
REMARK    6  A    between atoms: C_11  and  C_12
REMARK                            x       y       z     vdW  Elec       q    Type
REMARK                         _______ _______ _______ _____ _____    ______ ____
ROOT
ATOM      1  C   UNL     1       3.286   3.346  19.881  0.00  0.00    +0.000 C 
ATOM      2  C   UNL     1       3.132   4.788  20.172  0.00  0.00    +0.000 C 
ATOM      3  C   UNL     1       2.322   5.385  19.294  0.00  0.00    +0.000 C 
ATOM      4  C   UNL     1       1.855   4.315  18.385  0.00  0.00    +0.000 C 
ATOM      5  O   UNL     1       1.094   4.449  17.442  0.00  0.00    +0.000 OA
ATOM      6  O   UNL     1       2.409   3.132  18.769  0.00  0.00    +0.000 OA
ENDROOT
BRANCH   3   7
ATOM      7  C   UNL     1       2.019   6.817  19.212  0.00  0.00    +0.000 A 
ATOM      8  C   UNL     1       2.301   7.551  18.050  0.00  0.00    +0.000 A 
ATOM      9  C   UNL     1       2.054   8.927  17.990  0.00  0.00    +0.000 A 
ATOM     10  C   UNL     1       1.519   9.583  19.094  0.00  0.00    +0.000 A 
ATOM     11 BR   UNL     1       1.208  11.445  19.025  0.00  0.00    +0.000 Br
ATOM     12  C   UNL     1       1.215   8.873  20.252  0.00  0.00    +0.000 A 
ATOM     13  C   UNL     1       1.461   7.498  20.308  0.00  0.00    +0.000 A 
ENDBRANCH   3   7
BRANCH   1  14
ATOM     14  C   UNL     1       4.725   2.996  19.481  0.00  0.00    +0.000 C 
BRANCH  14  15
ATOM     15  O   UNL     1       4.932   3.387  18.121  0.00  0.00    +0.000 OA
BRANCH  15  19
ATOM     16  C   UNL     1       6.934   6.971  17.390  0.00  0.00    +0.000 A 
ATOM     17  C   UNL     1       5.815   6.583  16.653  0.00  0.00    +0.000 A 
ATOM     18  C   UNL     1       5.163   5.380  16.938  0.00  0.00    +0.000 A 
ATOM     19  C   UNL     1       5.648   4.536  17.935  0.00  0.00    +0.000 A 
ATOM     20  C   UNL     1       6.768   4.921  18.672  0.00  0.00    +0.000 A 
ATOM     21  C   UNL     1       7.410   6.134  18.397  0.00  0.00    +0.000 A 
BRANCH  16  23
ATOM     22  C   UNL     1       8.242   8.831  18.027  0.00  0.00    +0.000 C 
ATOM     23  O   UNL     1       7.498   8.159  17.017  0.00  0.00    +0.000 OA
ENDBRANCH  16  23
ENDBRANCH  15  19
ENDBRANCH  14  15
ENDBRANCH   1  14
TORSDOF 5
ENDMDL
MODEL 4
REMARK VINA RESULT:      -7.3      3.348      5.954
REMARK  Name = 
REMARK  6 active torsions:
REMARK  status: ('A' for Active; 'I' for Inactive)
REMARK    1  A    between atoms: C_1  and  O_2
REMARK    2  A    between atoms: O_2  and  C_3
REMARK    3  A    between atoms: C_6  and  O_7
REMARK    4  A    between atoms: O_7  and  C_8
REMARK    5  A    between atoms: C_8  and  C_9
REMARK    6  A    between atoms: C_11  and  C_12
REMARK                            x       y       z     vdW  Elec       q    Type
REMARK                         _______ _______ _______ _____ _____    ______ ____
ROOT
ATOM      1  C   UNL     1       7.727   7.014  17.483  0.00  0.00    +0.000 C 
ATOM      2  C   UNL     1       6.992   6.298  18.549  0.00  0.00    +0.000 C 
ATOM      3  C   UNL     1       5.865   5.750  18.088  0.00  0.00    +0.000 C 
ATOM      4  C   UNL     1       5.834   6.051  16.640  0.00  0.00    +0.000 C 
ATOM      5  O   UNL     1       4.964   5.720  15.852  0.00  0.00    +0.000 OA
ATOM      6  O   UNL     1       6.946   6.762  16.309  0.00  0.00    +0.000 OA
ENDROOT
BRANCH   3   7
ATOM      7  C   UNL     1       4.842   5.054  18.875  0.00  0.00    +0.000 A 
ATOM      8  C   UNL     1       4.913   3.671  19.092  0.00  0.00    +0.000 A 
ATOM      9  C   UNL     1       3.912   3.000  19.804  0.00  0.00    +0.000 A 
ATOM     10  C   UNL     1       2.827   3.711  20.307  0.00  0.00    +0.000 A 
ATOM     11 BR   UNL     1       1.461   2.806  21.246  0.00  0.00    +0.000 Br
ATOM     12  C   UNL     1       2.743   5.087  20.119  0.00  0.00    +0.000 A 
ATOM     13  C   UNL     1       3.746   5.755  19.410  0.00  0.00    +0.000 A 
ENDBRANCH   3   7
BRANCH   1  14
ATOM     14  C   UNL     1       7.791   8.523  17.750  0.00  0.00    +0.000 C 
BRANCH  14  15
ATOM     15  O   UNL     1       8.738   8.765  18.793  0.00  0.00    +0.000 OA
BRANCH  15  19
ATOM     16  C   UNL     1       9.649  12.814  19.208  0.00  0.00    +0.000 A 
ATOM     17  C   UNL     1       9.200  12.274  18.002  0.00  0.00    +0.000 A 
ATOM     18  C   UNL     1       8.892  10.914  17.907  0.00  0.00    +0.000 A 
ATOM     19  C   UNL     1       9.069  10.075  19.005  0.00  0.00    +0.000 A 
ATOM     20  C   UNL     1       9.519  10.611  20.211  0.00  0.00    +0.000 A 
ATOM     21  C   UNL     1       9.811  11.977  20.310  0.00  0.00    +0.000 A 
BRANCH  16  23
ATOM     22  C   UNL     1      10.565  14.624  17.998  0.00  0.00    +0.000 C 
ATOM     23  O   UNL     1       9.932  14.151  19.182  0.00  0.00    +0.000 OA
ENDBRANCH  16  23
ENDBRANCH  15  19
ENDBRANCH  14  15
ENDBRANCH   1  14
TORSDOF 5
ENDMDL
MODEL 5
REMARK VINA RESULT:      -7.2      1.564      2.006
REMARK  Name = 
REMARK  6 active torsions:
REMARK  status: ('A' for Active; 'I' for Inactive)
REMARK    1  A    between atoms: C_1  and  O_2
REMARK    2  A    between atoms: O_2  and  C_3
REMARK    3  A    between atoms: C_6  and  O_7
REMARK    4  A    between atoms: O_7  and  C_8
REMARK    5  A    between atoms: C_8  and  C_9
REMARK    6  A    between atoms: C_11  and  C_12
REMARK                            x       y       z     vdW  Elec       q    Type
REMARK                         _______ _______ _______ _____ _____    ______ ____
ROOT
ATOM      1  C   UNL     1       3.256   3.363  19.884  0.00  0.00    +0.000 C 
ATOM      2  C   UNL     1       3.131   4.808  20.174  0.00  0.00    +0.000 C 
ATOM      3  C   UNL     1       2.320   5.418  19.305  0.00  0.00    +0.000 C 
ATOM      4  C   UNL     1       1.822   4.353  18.406  0.00  0.00    +0.000 C 
ATOM      5  O   UNL     1       1.050   4.499  17.473  0.00  0.00    +0.000 OA
ATOM      6  O   UNL     1       2.360   3.162  18.786  0.00  0.00    +0.000 OA
ENDROOT
BRANCH   3   7
ATOM      7  C   UNL     1       2.040   6.855  19.225  0.00  0.00    +0.000 A 
ATOM      8  C   UNL     1       1.550   7.559  20.333  0.00  0.00    +0.000 A 
ATOM      9  C   UNL     1       1.239   8.920  20.242  0.00  0.00    +0.000 A 
ATOM     10  C   UNL     1       1.419   9.592  19.036  0.00  0.00    +0.000 A 
ATOM     11 BR   UNL     1       0.977  11.423  18.902  0.00  0.00    +0.000 Br
ATOM     12  C   UNL     1       1.921   8.918  17.928  0.00  0.00    +0.000 A 
ATOM     13  C   UNL     1       2.233   7.558  18.023  0.00  0.00    +0.000 A 
ENDBRANCH   3   7
BRANCH   1  14
ATOM     14  C   UNL     1       4.682   2.987  19.466  0.00  0.00    +0.000 C 
BRANCH  14  15
ATOM     15  O   UNL     1       5.440   4.187  19.286  0.00  0.00    +0.000 OA
BRANCH  15  19
ATOM     16  C   UNL     1       6.703   4.857  15.369  0.00  0.00    +0.000 A 
ATOM     17  C   UNL     1       5.357   4.693  15.696  0.00  0.00    +0.000 A 
ATOM     18  C   UNL     1       4.972   4.484  17.023  0.00  0.00    +0.000 A 
ATOM     19  C   UNL     1       5.933   4.397  18.029  0.00  0.00    +0.000 A 
ATOM     20  C   UNL     1       7.280   4.559  17.704  0.00  0.00    +0.000 A 
ATOM     21  C   UNL     1       7.663   4.785  16.377  0.00  0.00    +0.000 A 
BRANCH  16  23
ATOM     22  C   UNL     1       6.549   3.989  13.178  0.00  0.00    +0.000 C 
ATOM     23  O   UNL     1       6.965   5.043  14.040  0.00  0.00    +0.000 OA
ENDBRANCH  16  23
ENDBRANCH  15  19
ENDBRANCH  14  15
ENDBRANCH   1  14
TORSDOF 5
ENDMDL
MODEL 6
REMARK VINA RESULT:      -7.2      1.394      2.241
REMARK  Name = 
REMARK  6 active torsions:
REMARK  status: ('A' for Active; 'I' for Inactive)
REMARK    1  A    between atoms: C_1  and  O_2
REMARK    2  A    between atoms: O_2  and  C_3
REMARK    3  A    between atoms: C_6  and  O_7
REMARK    4  A    between atoms: O_7  and  C_8
REMARK    5  A    between atoms: C_8  and  C_9
REMARK    6  A    between atoms: C_11  and  C_12
REMARK                            x       y       z     vdW  Elec       q    Type
REMARK                         _______ _______ _______ _____ _____    ______ ____
ROOT
ATOM      1  C   UNL     1       3.092   3.249  19.992  0.00  0.00    +0.000 C 
ATOM      2  C   UNL     1       2.973   4.703  20.239  0.00  0.00    +0.000 C 
ATOM      3  C   UNL     1       2.243   5.306  19.297  0.00  0.00    +0.000 C 
ATOM      4  C   UNL     1       1.795   4.229  18.386  0.00  0.00    +0.000 C 
ATOM      5  O   UNL     1       1.100   4.366  17.393  0.00  0.00    +0.000 OA
ATOM      6  O   UNL     1       2.280   3.038  18.832  0.00  0.00    +0.000 OA
ENDROOT
BRANCH   3   7
ATOM      7  C   UNL     1       1.998   6.745  19.163  0.00  0.00    +0.000 A 
ATOM      8  C   UNL     1       2.262   7.414  17.959  0.00  0.00    +0.000 A 
ATOM      9  C   UNL     1       2.072   8.796  17.846  0.00  0.00    +0.000 A 
ATOM     10  C   UNL     1       1.612   9.522  18.940  0.00  0.00    +0.000 A 
ATOM     11 BR   UNL     1       1.378  11.391  18.799  0.00  0.00    +0.000 Br
ATOM     12  C   UNL     1       1.327   8.878  20.139  0.00  0.00    +0.000 A 
ATOM     13  C   UNL     1       1.515   7.497  20.248  0.00  0.00    +0.000 A 
ENDBRANCH   3   7
BRANCH   1  14
ATOM     14  C   UNL     1       4.540   2.839  19.693  0.00  0.00    +0.000 C 
BRANCH  14  15
ATOM     15  O   UNL     1       5.330   4.021  19.539  0.00  0.00    +0.000 OA
BRANCH  15  19
ATOM     16  C   UNL     1       6.928   4.885  15.785  0.00  0.00    +0.000 A 
ATOM     17  C   UNL     1       7.531   5.320  16.966  0.00  0.00    +0.000 A 
ATOM     18  C   UNL     1       6.971   4.998  18.205  0.00  0.00    +0.000 A 
ATOM     19  C   UNL     1       5.783   4.273  18.274  0.00  0.00    +0.000 A 
ATOM     20  C   UNL     1       5.178   3.838  17.095  0.00  0.00    +0.000 A 
ATOM     21  C   UNL     1       5.748   4.147  15.854  0.00  0.00    +0.000 A 
BRANCH  16  23
ATOM     22  C   UNL     1       6.954   4.812  13.425  0.00  0.00    +0.000 C 
ATOM     23  O   UNL     1       7.554   5.269  14.632  0.00  0.00    +0.000 OA
ENDBRANCH  16  23
ENDBRANCH  15  19
ENDBRANCH  14  15
ENDBRANCH   1  14
TORSDOF 5
ENDMDL
MODEL 7
REMARK VINA RESULT:      -7.2      1.417      2.166
REMARK  Name = 
REMARK  6 active torsions:
REMARK  status: ('A' for Active; 'I' for Inactive)
REMARK    1  A    between atoms: C_1  and  O_2
REMARK    2  A    between atoms: O_2  and  C_3
REMARK    3  A    between atoms: C_6  and  O_7
REMARK    4  A    between atoms: O_7  and  C_8
REMARK    5  A    between atoms: C_8  and  C_9
REMARK    6  A    between atoms: C_11  and  C_12
REMARK                            x       y       z     vdW  Elec       q    Type
REMARK                         _______ _______ _______ _____ _____    ______ ____
ROOT
ATOM      1  C   UNL     1       3.252   3.397  19.931  0.00  0.00    +0.000 C 
ATOM      2  C   UNL     1       3.107   4.847  20.185  0.00  0.00    +0.000 C 
ATOM      3  C   UNL     1       2.321   5.431  19.276  0.00  0.00    +0.000 C 
ATOM      4  C   UNL     1       1.861   4.344  18.385  0.00  0.00    +0.000 C 
ATOM      5  O   UNL     1       1.120   4.463  17.424  0.00  0.00    +0.000 OA
ATOM      6  O   UNL     1       2.395   3.165  18.808  0.00  0.00    +0.000 OA
ENDROOT
BRANCH   3   7
ATOM      7  C   UNL     1       2.034   6.864  19.155  0.00  0.00    +0.000 A 
ATOM      8  C   UNL     1       2.306   7.557  17.966  0.00  0.00    +0.000 A 
ATOM      9  C   UNL     1       2.076   8.933  17.866  0.00  0.00    +0.000 A 
ATOM     10  C   UNL     1       1.567   9.630  18.958  0.00  0.00    +0.000 A 
ATOM     11 BR   UNL     1       1.279  11.493  18.835  0.00  0.00    +0.000 Br
ATOM     12  C   UNL     1       1.273   8.961  20.142  0.00  0.00    +0.000 A 
ATOM     13  C   UNL     1       1.503   7.585  20.238  0.00  0.00    +0.000 A 
ENDBRANCH   3   7
BRANCH   1  14
ATOM     14  C   UNL     1       4.695   3.023  19.569  0.00  0.00    +0.000 C 
BRANCH  14  15
ATOM     15  O   UNL     1       5.477   4.218  19.508  0.00  0.00    +0.000 OA
BRANCH  15  19
ATOM     16  C   UNL     1       6.705   5.118  15.625  0.00  0.00    +0.000 A 
ATOM     17  C   UNL     1       5.817   4.078  15.900  0.00  0.00    +0.000 A 
ATOM     18  C   UNL     1       5.419   3.816  17.214  0.00  0.00    +0.000 A 
ATOM     19  C   UNL     1       5.936   4.567  18.268  0.00  0.00    +0.000 A 
ATOM     20  C   UNL     1       6.825   5.607  17.997  0.00  0.00    +0.000 A 
ATOM     21  C   UNL     1       7.210   5.879  16.678  0.00  0.00    +0.000 A 
BRANCH  16  23
ATOM     22  C   UNL     1       6.579   4.249  13.433  0.00  0.00    +0.000 C 
ATOM     23  O   UNL     1       7.035   5.275  14.308  0.00  0.00    +0.000 OA
ENDBRANCH  16  23
ENDBRANCH  15  19
ENDBRANCH  14  15
ENDBRANCH   1  14
TORSDOF 5
ENDMDL
MODEL 8
REMARK VINA RESULT:      -7.1      1.411      1.702
REMARK  Name = 
REMARK  6 active torsions:
REMARK  status: ('A' for Active; 'I' for Inactive)
REMARK    1  A    between atoms: C_1  and  O_2
REMARK    2  A    between atoms: O_2  and  C_3
REMARK    3  A    between atoms: C_6  and  O_7
REMARK    4  A    between atoms: O_7  and  C_8
REMARK    5  A    between atoms: C_8  and  C_9
REMARK    6  A    between atoms: C_11  and  C_12
REMARK                            x       y       z     vdW  Elec       q    Type
REMARK                         _______ _______ _______ _____ _____    ______ ____
ROOT
ATOM      1  C   UNL     1       4.428   3.801  17.406  0.00  0.00    +0.000 C 
ATOM      2  C   UNL     1       4.242   5.050  18.176  0.00  0.00    +0.000 C 
ATOM      3  C   UNL     1       2.955   5.398  18.249  0.00  0.00    +0.000 C 
ATOM      4  C   UNL     1       2.210   4.329  17.548  0.00  0.00    +0.000 C 
ATOM      5  O   UNL     1       1.001   4.273  17.395  0.00  0.00    +0.000 OA
ATOM      6  O   UNL     1       3.091   3.397  17.093  0.00  0.00    +0.000 OA
ENDROOT
BRANCH   3   7
ATOM      7  C   UNL     1       2.408   6.621  18.844  0.00  0.00    +0.000 A 
ATOM      8  C   UNL     1       1.994   6.651  20.184  0.00  0.00    +0.000 A 
ATOM      9  C   UNL     1       1.429   7.806  20.737  0.00  0.00    +0.000 A 
ATOM     10  C   UNL     1       1.275   8.945  19.953  0.00  0.00    +0.000 A 
ATOM     11 BR   UNL     1       0.490  10.497  20.690  0.00  0.00    +0.000 Br
ATOM     12  C   UNL     1       1.694   8.944  18.627  0.00  0.00    +0.000 A 
ATOM     13  C   UNL     1       2.261   7.790  18.077  0.00  0.00    +0.000 A 
ENDBRANCH   3   7
BRANCH   1  14
ATOM     14  C   UNL     1       5.214   4.042  16.111  0.00  0.00    +0.000 C 
BRANCH  14  15
ATOM     15  O   UNL     1       6.613   3.964  16.401  0.00  0.00    +0.000 OA
BRANCH  15  19
ATOM     16  C   UNL     1       8.104   7.310  18.393  0.00  0.00    +0.000 A 
ATOM     17  C   UNL     1       7.548   7.393  17.116  0.00  0.00    +0.000 A 
ATOM     18  C   UNL     1       7.047   6.251  16.487  0.00  0.00    +0.000 A 
ATOM     19  C   UNL     1       7.133   5.008  17.113  0.00  0.00    +0.000 A 
ATOM     20  C   UNL     1       7.689   4.921  18.389  0.00  0.00    +0.000 A 
ATOM     21  C   UNL     1       8.176   6.070  19.026  0.00  0.00    +0.000 A 
BRANCH  16  23
ATOM     22  C   UNL     1       8.430   9.625  18.065  0.00  0.00    +0.000 C 
ATOM     23  O   UNL     1       8.574   8.486  18.906  0.00  0.00    +0.000 OA
ENDBRANCH  16  23
ENDBRANCH  15  19
ENDBRANCH  14  15
ENDBRANCH   1  14
TORSDOF 5
ENDMDL
MODEL 9
REMARK VINA RESULT:      -7.1      3.439      6.136
REMARK  Name = 
REMARK  6 active torsions:
REMARK  status: ('A' for Active; 'I' for Inactive)
REMARK    1  A    between atoms: C_1  and  O_2
REMARK    2  A    between atoms: O_2  and  C_3
REMARK    3  A    between atoms: C_6  and  O_7
REMARK    4  A    between atoms: O_7  and  C_8
REMARK    5  A    between atoms: C_8  and  C_9
REMARK    6  A    between atoms: C_11  and  C_12
REMARK                            x       y       z     vdW  Elec       q    Type
REMARK                         _______ _______ _______ _____ _____    ______ ____
ROOT
ATOM      1  C   UNL     1       7.848   6.970  17.662  0.00  0.00    +0.000 C 
ATOM      2  C   UNL     1       6.770   6.268  18.392  0.00  0.00    +0.000 C 
ATOM      3  C   UNL     1       5.912   5.676  17.558  0.00  0.00    +0.000 C 
ATOM      4  C   UNL     1       6.435   5.930  16.197  0.00  0.00    +0.000 C 
ATOM      5  O   UNL     1       5.939   5.551  15.150  0.00  0.00    +0.000 OA
ATOM      6  O   UNL     1       7.580   6.660  16.290  0.00  0.00    +0.000 OA
ENDROOT
BRANCH   3   7
ATOM      7  C   UNL     1       4.674   4.978  17.919  0.00  0.00    +0.000 A 
ATOM      8  C   UNL     1       4.702   3.663  18.406  0.00  0.00    +0.000 A 
ATOM      9  C   UNL     1       3.517   2.982  18.707  0.00  0.00    +0.000 A 
ATOM     10  C   UNL     1       2.291   3.613  18.525  0.00  0.00    +0.000 A 
ATOM     11 BR   UNL     1       0.688   2.688  18.906  0.00  0.00    +0.000 Br
ATOM     12  C   UNL     1       2.239   4.923  18.059  0.00  0.00    +0.000 A 
ATOM     13  C   UNL     1       3.425   5.602  17.762  0.00  0.00    +0.000 A 
ENDBRANCH   3   7
BRANCH   1  14
ATOM     14  C   UNL     1       7.786   8.487  17.873  0.00  0.00    +0.000 C 
BRANCH  14  15
ATOM     15  O   UNL     1       8.805   8.864  18.803  0.00  0.00    +0.000 OA
BRANCH  15  19
ATOM     16  C   UNL     1       9.637  12.912  19.364  0.00  0.00    +0.000 A 
ATOM     17  C   UNL     1       9.737  11.983  20.401  0.00  0.00    +0.000 A 
ATOM     18  C   UNL     1       9.463  10.633  20.169  0.00  0.00    +0.000 A 
ATOM     19  C   UNL     1       9.047  10.205  18.909  0.00  0.00    +0.000 A 
ATOM     20  C   UNL     1       8.945  11.131  17.871  0.00  0.00    +0.000 A 
ATOM     21  C   UNL     1       9.236  12.482  18.100  0.00  0.00    +0.000 A 
BRANCH  16  23
ATOM     22  C   UNL     1       9.909  15.141  18.634  0.00  0.00    +0.000 C 
ATOM     23  O   UNL     1       9.915  14.205  19.707  0.00  0.00    +0.000 OA
ENDBRANCH  16  23
ENDBRANCH  15  19
ENDBRANCH  14  15
ENDBRANCH   1  14
TORSDOF 5
ENDMDL
