MODEL 1
REMARK VINA RESULT:      -7.1      0.000      0.000
REMARK  Name = 
REMARK  4 active torsions:
REMARK  status: ('A' for Active; 'I' for Inactive)
REMARK    1  A    between atoms: C_2  and  C_3
REMARK    2  A    between atoms: C_2  and  C_18
REMARK    3  A    between atoms: C_6  and  C_7
REMARK    4  A    between atoms: C_9  and  C_10
REMARK                            x       y       z     vdW  Elec       q    Type
REMARK                         _______ _______ _______ _____ _____    ______ ____
ROOT
ATOM      1  C   UNL     1       3.641   4.597  18.799  0.00  0.00    +0.000 A 
ATOM      2  C   UNL     1       4.217   5.410  17.836  0.00  0.00    +0.000 A 
ATOM      3  C   UNL     1       3.660   6.721  17.819  0.00  0.00    +0.000 A 
ATOM      4  C   UNL     1       2.705   6.896  18.800  0.00  0.00    +0.000 A 
ATOM      5  S   UNL     1       2.501   5.471  19.723  0.00  0.00    +0.000 S 
ENDROOT
BRANCH   4   6
ATOM      6  C   UNL     1       1.971   8.094  19.088  0.00  0.00    +0.000 A 
ATOM      7  N   UNL     1       1.475   8.377  20.276  0.00  0.00    +0.000 NA
ATOM      8  C   UNL     1       0.801   9.554  20.056  0.00  0.00    +0.000 A 
ATOM      9  N   UNL     1       0.893  10.017  18.801  0.00  0.00    +0.000 NA
ATOM     10  O   UNL     1       1.673   9.058  18.160  0.00  0.00    +0.000 OA
BRANCH   8  11
ATOM     11  C   UNL     1      -0.001  10.238  21.115  0.00  0.00    +0.000 A 
ATOM     12  C   UNL     1      -0.615  11.465  20.960  0.00  0.00    +0.000 A 
ATOM     13  C   UNL     1      -1.336  11.856  22.127  0.00  0.00    +0.000 A 
ATOM     14  C   UNL     1      -1.231  10.924  23.135  0.00  0.00    +0.000 A 
ATOM     15  S   UNL     1      -0.280   9.578  22.666  0.00  0.00    +0.000 S 
ENDBRANCH   8  11
ENDBRANCH   4   6
BRANCH   1  17
ATOM     16  O   UNL     1       5.051   2.935  19.642  0.00  0.00    +0.000 OA
ATOM     17  C   UNL     1       3.992   3.202  19.060  0.00  0.00    +0.000 C 
BRANCH  17  18
ATOM     18  C   UNL     1       3.070   2.072  18.586  0.00  0.00    +0.000 C 
ATOM     19  F   UNL     1       2.056   1.744  19.432  0.00  0.00    +0.000 F 
ATOM     20  F   UNL     1       2.461   2.393  17.406  0.00  0.00    +0.000 F 
ATOM     21  F   UNL     1       3.757   0.917  18.351  0.00  0.00    +0.000 F 
ENDBRANCH  17  18
ENDBRANCH   1  17
TORSDOF 4
ENDMDL
MODEL 2
REMARK VINA RESULT:      -7.1      2.680      3.195
REMARK  Name = 
REMARK  4 active torsions:
REMARK  status: ('A' for Active; 'I' for Inactive)
REMARK    1  A    between atoms: C_2  and  C_3
REMARK    2  A    between atoms: C_2  and  C_18
REMARK    3  A    between atoms: C_6  and  C_7
REMARK    4  A    between atoms: C_9  and  C_10
REMARK                            x       y       z     vdW  Elec       q    Type
REMARK                         _______ _______ _______ _____ _____    ______ ____
ROOT
ATOM      1  C   UNL     1       4.939   5.244  17.088  0.00  0.00    +0.000 A 
ATOM      2  C   UNL     1       3.793   4.534  17.403  0.00  0.00    +0.000 A 
ATOM      3  C   UNL     1       2.769   5.357  17.954  0.00  0.00    +0.000 A 
ATOM      4  C   UNL     1       3.138   6.687  18.003  0.00  0.00    +0.000 A 
ATOM      5  S   UNL     1       4.716   6.912  17.381  0.00  0.00    +0.000 S 
ENDROOT
BRANCH   4   6
ATOM      6  C   UNL     1       2.344   7.789  18.465  0.00  0.00    +0.000 A 
ATOM      7  N   UNL     1       2.001   7.961  19.726  0.00  0.00    +0.000 NA
ATOM      8  C   UNL     1       1.195   9.072  19.676  0.00  0.00    +0.000 A 
ATOM      9  N   UNL     1       1.060   9.602  18.452  0.00  0.00    +0.000 NA
ATOM     10  O   UNL     1       1.825   8.760  17.649  0.00  0.00    +0.000 OA
BRANCH   8  11
ATOM     11  C   UNL     1       0.494   9.620  20.878  0.00  0.00    +0.000 A 
ATOM     12  C   UNL     1       0.176   8.882  22.000  0.00  0.00    +0.000 A 
ATOM     13  C   UNL     1      -0.462   9.675  23.000  0.00  0.00    +0.000 A 
ATOM     14  C   UNL     1      -0.623  10.981  22.597  0.00  0.00    +0.000 A 
ATOM     15  S   UNL     1       0.007  11.251  21.028  0.00  0.00    +0.000 S 
ENDBRANCH   8  11
ENDBRANCH   4   6
BRANCH   1  17
ATOM     16  O   UNL     1       7.105   4.383  17.254  0.00  0.00    +0.000 OA
ATOM     17  C   UNL     1       6.161   4.683  16.513  0.00  0.00    +0.000 C 
BRANCH  17  18
ATOM     18  C   UNL     1       6.286   4.498  14.995  0.00  0.00    +0.000 C 
ATOM     19  F   UNL     1       6.209   3.214  14.549  0.00  0.00    +0.000 F 
ATOM     20  F   UNL     1       5.294   5.165  14.332  0.00  0.00    +0.000 F 
ATOM     21  F   UNL     1       7.460   4.997  14.515  0.00  0.00    +0.000 F 
ENDBRANCH  17  18
ENDBRANCH   1  17
TORSDOF 4
ENDMDL
MODEL 3
REMARK VINA RESULT:      -7.0      1.025      1.418
REMARK  Name = 
REMARK  4 active torsions:
REMARK  status: ('A' for Active; 'I' for Inactive)
REMARK    1  A    between atoms: C_2  and  C_3
REMARK    2  A    between atoms: C_2  and  C_18
REMARK    3  A    between atoms: C_6  and  C_7
REMARK    4  A    between atoms: C_9  and  C_10
REMARK                            x       y       z     vdW  Elec       q    Type
REMARK                         _______ _______ _______ _____ _____    ______ ____
ROOT
ATOM      1  C   UNL     1       3.773   4.426  18.619  0.00  0.00    +0.000 A 
ATOM      2  C   UNL     1       4.438   5.103  17.610  0.00  0.00    +0.000 A 
ATOM      3  C   UNL     1       3.960   6.434  17.434  0.00  0.00    +0.000 A 
ATOM      4  C   UNL     1       2.974   6.760  18.344  0.00  0.00    +0.000 A 
ATOM      5  S   UNL     1       2.647   5.450  19.394  0.00  0.00    +0.000 S 
ENDROOT
BRANCH   4   6
ATOM      6  C   UNL     1       2.299   8.019  18.474  0.00  0.00    +0.000 A 
ATOM      7  N   UNL     1       1.690   8.409  19.575  0.00  0.00    +0.000 NA
ATOM      8  C   UNL     1       1.132   9.610  19.210  0.00  0.00    +0.000 A 
ATOM      9  N   UNL     1       1.402   9.984  17.951  0.00  0.00    +0.000 NA
ATOM     10  O   UNL     1       2.181   8.938  17.463  0.00  0.00    +0.000 OA
BRANCH   8  11
ATOM     11  C   UNL     1       0.264  10.412  20.125  0.00  0.00    +0.000 A 
ATOM     12  C   UNL     1       0.415  10.467  21.496  0.00  0.00    +0.000 A 
ATOM     13  C   UNL     1      -0.537  11.337  22.106  0.00  0.00    +0.000 A 
ATOM     14  C   UNL     1      -1.390  11.897  21.182  0.00  0.00    +0.000 A 
ATOM     15  S   UNL     1      -1.032  11.388  19.587  0.00  0.00    +0.000 S 
ENDBRANCH   8  11
ENDBRANCH   4   6
BRANCH   1  17
ATOM     16  O   UNL     1       4.989   2.801  19.778  0.00  0.00    +0.000 OA
ATOM     17  C   UNL     1       4.030   3.048  19.036  0.00  0.00    +0.000 C 
BRANCH  17  18
ATOM     18  C   UNL     1       3.138   1.908  18.529  0.00  0.00    +0.000 C 
ATOM     19  F   UNL     1       2.599   2.088  17.292  0.00  0.00    +0.000 F 
ATOM     20  F   UNL     1       3.832   0.734  18.448  0.00  0.00    +0.000 F 
ATOM     21  F   UNL     1       2.090   1.668  19.368  0.00  0.00    +0.000 F 
ENDBRANCH  17  18
ENDBRANCH   1  17
TORSDOF 4
ENDMDL
MODEL 4
REMARK VINA RESULT:      -7.0      0.938      1.351
REMARK  Name = 
REMARK  4 active torsions:
REMARK  status: ('A' for Active; 'I' for Inactive)
REMARK    1  A    between atoms: C_2  and  C_3
REMARK    2  A    between atoms: C_2  and  C_18
REMARK    3  A    between atoms: C_6  and  C_7
REMARK    4  A    between atoms: C_9  and  C_10
REMARK                            x       y       z     vdW  Elec       q    Type
REMARK                         _______ _______ _______ _____ _____    ______ ____
ROOT
ATOM      1  C   UNL     1       3.881   4.366  18.589  0.00  0.00    +0.000 A 
ATOM      2  C   UNL     1       4.611   5.006  17.601  0.00  0.00    +0.000 A 
ATOM      3  C   UNL     1       4.163   6.338  17.363  0.00  0.00    +0.000 A 
ATOM      4  C   UNL     1       3.133   6.701  18.206  0.00  0.00    +0.000 A 
ATOM      5  S   UNL     1       2.727   5.425  19.270  0.00  0.00    +0.000 S 
ENDROOT
BRANCH   4   6
ATOM      6  C   UNL     1       2.470   7.972  18.264  0.00  0.00    +0.000 A 
ATOM      7  N   UNL     1       1.758   8.376  19.296  0.00  0.00    +0.000 NA
ATOM      8  C   UNL     1       1.262   9.586  18.874  0.00  0.00    +0.000 A 
ATOM      9  N   UNL     1       1.666   9.951  17.649  0.00  0.00    +0.000 NA
ATOM     10  O   UNL     1       2.473   8.890  17.246  0.00  0.00    +0.000 OA
BRANCH   8  11
ATOM     11  C   UNL     1       0.318  10.406  19.694  0.00  0.00    +0.000 A 
ATOM     12  C   UNL     1      -0.732  11.138  19.177  0.00  0.00    +0.000 A 
ATOM     13  C   UNL     1      -1.481  11.795  20.198  0.00  0.00    +0.000 A 
ATOM     14  C   UNL     1      -0.965  11.556  21.451  0.00  0.00    +0.000 A 
ATOM     15  S   UNL     1       0.406  10.531  21.395  0.00  0.00    +0.000 S 
ENDBRANCH   8  11
ENDBRANCH   4   6
BRANCH   1  17
ATOM     16  O   UNL     1       5.006   2.757  19.856  0.00  0.00    +0.000 OA
ATOM     17  C   UNL     1       4.094   2.996  19.056  0.00  0.00    +0.000 C 
BRANCH  17  18
ATOM     18  C   UNL     1       3.213   1.855  18.531  0.00  0.00    +0.000 C 
ATOM     19  F   UNL     1       3.827   0.647  18.404  0.00  0.00    +0.000 F 
ATOM     20  F   UNL     1       2.150   1.630  19.359  0.00  0.00    +0.000 F 
ATOM     21  F   UNL     1       2.682   2.142  17.308  0.00  0.00    +0.000 F 
ENDBRANCH  17  18
ENDBRANCH   1  17
TORSDOF 4
ENDMDL
MODEL 5
REMARK VINA RESULT:      -6.9      1.891      2.247
REMARK  Name = 
REMARK  4 active torsions:
REMARK  status: ('A' for Active; 'I' for Inactive)
REMARK    1  A    between atoms: C_2  and  C_3
REMARK    2  A    between atoms: C_2  and  C_18
REMARK    3  A    between atoms: C_6  and  C_7
REMARK    4  A    between atoms: C_9  and  C_10
REMARK                            x       y       z     vdW  Elec       q    Type
REMARK                         _______ _______ _______ _____ _____    ______ ____
ROOT
ATOM      1  C   UNL     1       3.239   4.231  19.548  0.00  0.00    +0.000 A 
ATOM      2  C   UNL     1       2.363   4.607  20.552  0.00  0.00    +0.000 A 
ATOM      3  C   UNL     1       1.921   5.955  20.420  0.00  0.00    +0.000 A 
ATOM      4  C   UNL     1       2.433   6.564  19.292  0.00  0.00    +0.000 A 
ATOM      5  S   UNL     1       3.436   5.493  18.414  0.00  0.00    +0.000 S 
ENDROOT
BRANCH   4   6
ATOM      6  C   UNL     1       2.171   7.899  18.836  0.00  0.00    +0.000 A 
ATOM      7  N   UNL     1       1.490   8.786  19.533  0.00  0.00    +0.000 NA
ATOM      8  C   UNL     1       1.426   9.862  18.681  0.00  0.00    +0.000 A 
ATOM      9  N   UNL     1       2.064   9.684  17.516  0.00  0.00    +0.000 NA
ATOM     10  O   UNL     1       2.566   8.389  17.618  0.00  0.00    +0.000 OA
BRANCH   8  11
ATOM     11  C   UNL     1       0.673  11.112  19.009  0.00  0.00    +0.000 A 
ATOM     12  C   UNL     1       1.260  12.294  19.413  0.00  0.00    +0.000 A 
ATOM     13  C   UNL     1       0.298  13.325  19.626  0.00  0.00    +0.000 A 
ATOM     14  C   UNL     1      -0.987  12.888  19.397  0.00  0.00    +0.000 A 
ATOM     15  S   UNL     1      -1.028  11.246  18.910  0.00  0.00    +0.000 S 
ENDBRANCH   8  11
ENDBRANCH   4   6
BRANCH   1  17
ATOM     16  O   UNL     1       4.989   2.721  19.894  0.00  0.00    +0.000 OA
ATOM     17  C   UNL     1       3.867   2.917  19.410  0.00  0.00    +0.000 C 
BRANCH  17  18
ATOM     18  C   UNL     1       3.155   1.798  18.640  0.00  0.00    +0.000 C 
ATOM     19  F   UNL     1       3.857   0.641  18.499  0.00  0.00    +0.000 F 
ATOM     20  F   UNL     1       1.991   1.436  19.258  0.00  0.00    +0.000 F 
ATOM     21  F   UNL     1       2.806   2.186  17.381  0.00  0.00    +0.000 F 
ENDBRANCH  17  18
ENDBRANCH   1  17
TORSDOF 4
ENDMDL
MODEL 6
REMARK VINA RESULT:      -6.9      2.719      3.146
REMARK  Name = 
REMARK  4 active torsions:
REMARK  status: ('A' for Active; 'I' for Inactive)
REMARK    1  A    between atoms: C_2  and  C_3
REMARK    2  A    between atoms: C_2  and  C_18
REMARK    3  A    between atoms: C_6  and  C_7
REMARK    4  A    between atoms: C_9  and  C_10
REMARK                            x       y       z     vdW  Elec       q    Type
REMARK                         _______ _______ _______ _____ _____    ______ ____
ROOT
ATOM      1  C   UNL     1       4.557   5.273  17.370  0.00  0.00    +0.000 A 
ATOM      2  C   UNL     1       3.344   4.641  17.589  0.00  0.00    +0.000 A 
ATOM      3  C   UNL     1       2.347   5.525  18.096  0.00  0.00    +0.000 A 
ATOM      4  C   UNL     1       2.807   6.822  18.206  0.00  0.00    +0.000 A 
ATOM      5  S   UNL     1       4.435   6.945  17.695  0.00  0.00    +0.000 S 
ENDROOT
BRANCH   4   6
ATOM      6  C   UNL     1       2.064   7.968  18.647  0.00  0.00    +0.000 A 
ATOM      7  N   UNL     1       1.704   8.166  19.898  0.00  0.00    +0.000 NA
ATOM      8  C   UNL     1       0.961   9.319  19.826  0.00  0.00    +0.000 A 
ATOM      9  N   UNL     1       0.883   9.850  18.598  0.00  0.00    +0.000 NA
ATOM     10  O   UNL     1       1.618   8.963  17.816  0.00  0.00    +0.000 OA
BRANCH   8  11
ATOM     11  C   UNL     1       0.266   9.910  21.010  0.00  0.00    +0.000 A 
ATOM     12  C   UNL     1      -0.027   9.220  22.169  0.00  0.00    +0.000 A 
ATOM     13  C   UNL     1      -0.666  10.047  23.140  0.00  0.00    +0.000 A 
ATOM     14  C   UNL     1      -0.855  11.331  22.679  0.00  0.00    +0.000 A 
ATOM     15  S   UNL     1      -0.248  11.538  21.091  0.00  0.00    +0.000 S 
ENDBRANCH   8  11
ENDBRANCH   4   6
BRANCH   1  17
ATOM     16  O   UNL     1       5.683   3.745  16.007  0.00  0.00    +0.000 OA
ATOM     17  C   UNL     1       5.771   4.637  16.860  0.00  0.00    +0.000 C 
BRANCH  17  18
ATOM     18  C   UNL     1       7.145   5.048  17.404  0.00  0.00    +0.000 C 
ATOM     19  F   UNL     1       7.211   5.248  18.749  0.00  0.00    +0.000 F 
ATOM     20  F   UNL     1       8.088   4.096  17.138  0.00  0.00    +0.000 F 
ATOM     21  F   UNL     1       7.599   6.197  16.827  0.00  0.00    +0.000 F 
ENDBRANCH  17  18
ENDBRANCH   1  17
TORSDOF 4
ENDMDL
MODEL 7
REMARK VINA RESULT:      -6.9      1.674      2.111
REMARK  Name = 
REMARK  4 active torsions:
REMARK  status: ('A' for Active; 'I' for Inactive)
REMARK    1  A    between atoms: C_2  and  C_3
REMARK    2  A    between atoms: C_2  and  C_18
REMARK    3  A    between atoms: C_6  and  C_7
REMARK    4  A    between atoms: C_9  and  C_10
REMARK                            x       y       z     vdW  Elec       q    Type
REMARK                         _______ _______ _______ _____ _____    ______ ____
ROOT
ATOM      1  C   UNL     1       3.207   4.271  19.539  0.00  0.00    +0.000 A 
ATOM      2  C   UNL     1       2.406   4.636  20.608  0.00  0.00    +0.000 A 
ATOM      3  C   UNL     1       1.952   5.985  20.521  0.00  0.00    +0.000 A 
ATOM      4  C   UNL     1       2.377   6.604  19.363  0.00  0.00    +0.000 A 
ATOM      5  S   UNL     1       3.316   5.543  18.404  0.00  0.00    +0.000 S 
ENDROOT
BRANCH   4   6
ATOM      6  C   UNL     1       2.079   7.942  18.938  0.00  0.00    +0.000 A 
ATOM      7  N   UNL     1       1.419   8.810  19.678  0.00  0.00    +0.000 NA
ATOM      8  C   UNL     1       1.303   9.897  18.845  0.00  0.00    +0.000 A 
ATOM      9  N   UNL     1       1.891   9.743  17.650  0.00  0.00    +0.000 NA
ATOM     10  O   UNL     1       2.412   8.453  17.711  0.00  0.00    +0.000 OA
BRANCH   8  11
ATOM     11  C   UNL     1       0.551  11.132  19.225  0.00  0.00    +0.000 A 
ATOM     12  C   UNL     1      -0.487  11.670  18.492  0.00  0.00    +0.000 A 
ATOM     13  C   UNL     1      -1.036  12.832  19.112  0.00  0.00    +0.000 A 
ATOM     14  C   UNL     1      -0.384  13.148  20.283  0.00  0.00    +0.000 A 
ATOM     15  S   UNL     1       0.870  12.038  20.638  0.00  0.00    +0.000 S 
ENDBRANCH   8  11
ENDBRANCH   4   6
BRANCH   1  17
ATOM     16  O   UNL     1       4.962   2.749  19.787  0.00  0.00    +0.000 OA
ATOM     17  C   UNL     1       3.827   2.961  19.345  0.00  0.00    +0.000 C 
BRANCH  17  18
ATOM     18  C   UNL     1       3.087   1.865  18.567  0.00  0.00    +0.000 C 
ATOM     19  F   UNL     1       2.687   2.202  17.310  0.00  0.00    +0.000 F 
ATOM     20  F   UNL     1       3.871   0.758  18.406  0.00  0.00    +0.000 F 
ATOM     21  F   UNL     1       1.969   1.441  19.220  0.00  0.00    +0.000 F 
ENDBRANCH  17  18
ENDBRANCH   1  17
TORSDOF 4
ENDMDL
MODEL 8
REMARK VINA RESULT:      -6.8      4.027      4.989
REMARK  Name = 
REMARK  4 active torsions:
REMARK  status: ('A' for Active; 'I' for Inactive)
REMARK    1  A    between atoms: C_2  and  C_3
REMARK    2  A    between atoms: C_2  and  C_18
REMARK    3  A    between atoms: C_6  and  C_7
REMARK    4  A    between atoms: C_9  and  C_10
REMARK                            x       y       z     vdW  Elec       q    Type
REMARK                         _______ _______ _______ _____ _____    ______ ____
ROOT
ATOM      1  C   UNL     1       6.076   4.671  14.994  0.00  0.00    +0.000 A 
ATOM      2  C   UNL     1       5.656   3.507  15.617  0.00  0.00    +0.000 A 
ATOM      3  C   UNL     1       4.818   3.757  16.742  0.00  0.00    +0.000 A 
ATOM      4  C   UNL     1       4.577   5.104  16.925  0.00  0.00    +0.000 A 
ATOM      5  S   UNL     1       5.369   6.039  15.732  0.00  0.00    +0.000 S 
ENDROOT
BRANCH   4   6
ATOM      6  C   UNL     1       3.754   5.706  17.935  0.00  0.00    +0.000 A 
ATOM      7  N   UNL     1       3.136   6.859  17.778  0.00  0.00    +0.000 NA
ATOM      8  C   UNL     1       2.555   7.065  19.005  0.00  0.00    +0.000 A 
ATOM      9  N   UNL     1       2.761   6.078  19.888  0.00  0.00    +0.000 NA
ATOM     10  O   UNL     1       3.548   5.172  19.180  0.00  0.00    +0.000 OA
BRANCH   8  11
ATOM     11  C   UNL     1       1.791   8.306  19.341  0.00  0.00    +0.000 A 
ATOM     12  C   UNL     1       1.517   9.321  18.448  0.00  0.00    +0.000 A 
ATOM     13  C   UNL     1       0.744  10.364  19.040  0.00  0.00    +0.000 A 
ATOM     14  C   UNL     1       0.474  10.115  20.366  0.00  0.00    +0.000 A 
ATOM     15  S   UNL     1       1.135   8.624  20.887  0.00  0.00    +0.000 S 
ENDBRANCH   8  11
ENDBRANCH   4   6
BRANCH   1  17
ATOM     16  O   UNL     1       7.958   5.454  13.852  0.00  0.00    +0.000 OA
ATOM     17  C   UNL     1       6.944   4.745  13.820  0.00  0.00    +0.000 C 
BRANCH  17  18
ATOM     18  C   UNL     1       6.584   3.975  12.543  0.00  0.00    +0.000 C 
ATOM     19  F   UNL     1       5.254   3.864  12.278  0.00  0.00    +0.000 F 
ATOM     20  F   UNL     1       7.119   4.574  11.437  0.00  0.00    +0.000 F 
ATOM     21  F   UNL     1       7.076   2.704  12.557  0.00  0.00    +0.000 F 
ENDBRANCH  17  18
ENDBRANCH   1  17
TORSDOF 4
ENDMDL
MODEL 9
REMARK VINA RESULT:      -6.8      1.877      2.205
REMARK  Name = 
REMARK  4 active torsions:
REMARK  status: ('A' for Active; 'I' for Inactive)
REMARK    1  A    between atoms: C_2  and  C_3
REMARK    2  A    between atoms: C_2  and  C_18
REMARK    3  A    between atoms: C_6  and  C_7
REMARK    4  A    between atoms: C_9  and  C_10
REMARK                            x       y       z     vdW  Elec       q    Type
REMARK                         _______ _______ _______ _____ _____    ______ ____
ROOT
ATOM      1  C   UNL     1       3.533   4.435  18.953  0.00  0.00    +0.000 A 
ATOM      2  C   UNL     1       3.967   5.268  17.936  0.00  0.00    +0.000 A 
ATOM      3  C   UNL     1       3.398   6.573  18.013  0.00  0.00    +0.000 A 
ATOM      4  C   UNL     1       2.581   6.721  19.116  0.00  0.00    +0.000 A 
ATOM      5  S   UNL     1       2.517   5.280  20.035  0.00  0.00    +0.000 S 
ENDROOT
BRANCH   4   6
ATOM      6  C   UNL     1       1.878   7.906  19.518  0.00  0.00    +0.000 A 
ATOM      7  N   UNL     1       1.712   8.954  18.738  0.00  0.00    +0.000 NA
ATOM      8  C   UNL     1       1.071   9.850  19.559  0.00  0.00    +0.000 A 
ATOM      9  N   UNL     1       0.810   9.384  20.788  0.00  0.00    +0.000 NA
ATOM     10  O   UNL     1       1.335   8.094  20.762  0.00  0.00    +0.000 OA
BRANCH   8  11
ATOM     11  C   UNL     1       0.730  11.241  19.131  0.00  0.00    +0.000 A 
ATOM     12  C   UNL     1       1.660  12.222  18.848  0.00  0.00    +0.000 A 
ATOM     13  C   UNL     1       1.046  13.441  18.435  0.00  0.00    +0.000 A 
ATOM     14  C   UNL     1      -0.328  13.353  18.436  0.00  0.00    +0.000 A 
ATOM     15  S   UNL     1      -0.870  11.801  18.917  0.00  0.00    +0.000 S 
ENDBRANCH   8  11
ENDBRANCH   4   6
BRANCH   1  17
ATOM     16  O   UNL     1       4.962   2.778  19.775  0.00  0.00    +0.000 OA
ATOM     17  C   UNL     1       3.931   3.040  19.143  0.00  0.00    +0.000 C 
BRANCH  17  18
ATOM     18  C   UNL     1       3.095   1.909  18.532  0.00  0.00    +0.000 C 
ATOM     19  F   UNL     1       1.988   1.548  19.237  0.00  0.00    +0.000 F 
ATOM     20  F   UNL     1       2.633   2.249  17.292  0.00  0.00    +0.000 F 
ATOM     21  F   UNL     1       3.824   0.770  18.361  0.00  0.00    +0.000 F 
ENDBRANCH  17  18
ENDBRANCH   1  17
TORSDOF 4
ENDMDL
