MODEL 1
REMARK VINA RESULT:      -8.1      0.000      0.000
REMARK  Name = 
REMARK  9 active torsions:
REMARK  status: ('A' for Active; 'I' for Inactive)
REMARK    1  A    between atoms: C_1  and  C_2
REMARK    2  A    between atoms: C_2  and  O_3
REMARK    3  A    between atoms: O_3  and  C_4
REMARK    4  A    between atoms: C_4  and  C_6
REMARK    5  A    between atoms: C_8  and  O_9
REMARK    6  A    between atoms: C_14  and  S_15
REMARK    7  A    between atoms: S_15  and  C_16
REMARK    8  A    between atoms: C_19  and  O_20
REMARK    9  A    between atoms: O_20  and  C_21
REMARK                            x       y       z     vdW  Elec       q    Type
REMARK                         _______ _______ _______ _____ _____    ______ ____
ROOT
ATOM      1  C   UNL     1       0.557  10.794  20.610  0.00  0.00    +0.000 A 
ATOM      2  N   UNL     1       0.964  11.164  19.385  0.00  0.00    +0.000 NA
ATOM      3  C   UNL     1       1.526  10.190  18.680  0.00  0.00    +0.000 A 
ATOM      4  C   UNL     1       1.701   8.889  19.112  0.00  0.00    +0.000 A 
ATOM      5  C   UNL     1       2.292   7.869  18.348  0.00  0.00    +0.000 A 
ATOM      6  C   UNL     1       2.418   6.594  18.892  0.00  0.00    +0.000 A 
ATOM      7  C   UNL     1       2.991   5.536  18.160  0.00  0.00    +0.000 A 
ATOM      8  C   UNL     1       3.110   4.269  18.728  0.00  0.00    +0.000 A 
ATOM      9  C   UNL     1       2.635   4.068  20.024  0.00  0.00    +0.000 A 
ATOM     10  C   UNL     1       2.070   5.129  20.745  0.00  0.00    +0.000 A 
ATOM     11  C   UNL     1       1.944   6.401  20.199  0.00  0.00    +0.000 A 
ATOM     12  N   UNL     1       1.379   7.396  20.918  0.00  0.00    +0.000 NA
ATOM     13  C   UNL     1       1.247   8.619  20.397  0.00  0.00    +0.000 A 
ATOM     14  N   UNL     1       0.680   9.562  21.142  0.00  0.00    +0.000 NA
ENDROOT
BRANCH   1  15
ATOM     15  C   UNL     1       0.023  11.900  21.479  0.00  0.00    +0.000 C 
ATOM     16  O   UNL     1       0.622  12.939  21.720  0.00  0.00    +0.000 OA
BRANCH  15  17
ATOM     17  O   UNL     1      -1.161  11.525  22.031  0.00  0.00    +0.000 OA
BRANCH  17  19
ATOM     18  C   UNL     1      -2.502  12.661  20.418  0.00  0.00    +0.000 C 
ATOM     19  C   UNL     1      -2.227  12.473  21.898  0.00  0.00    +0.000 C 
ENDBRANCH  17  19
ENDBRANCH  15  17
ENDBRANCH   1  15
BRANCH   3  20
ATOM     20  O   UNL     1       1.950  10.592  17.452  0.00  0.00    +0.000 OA
ATOM     21  H   UNL     1       1.914   9.753  16.956  0.00  0.00    +0.000 HD
ENDBRANCH   3  20
BRANCH   8  22
ATOM     22  S   UNL     1       3.799   2.920  17.787  0.00  0.00    +0.000 S 
BRANCH  22  23
ATOM     23  C   UNL     1       5.043   3.752  16.814  0.00  0.00    +0.000 A 
ATOM     24  C   UNL     1       4.853   3.991  15.451  0.00  0.00    +0.000 A 
ATOM     25  C   UNL     1       5.842   4.635  14.703  0.00  0.00    +0.000 A 
ATOM     26  C   UNL     1       7.019   5.077  15.307  0.00  0.00    +0.000 A 
ATOM     27  C   UNL     1       7.202   4.870  16.673  0.00  0.00    +0.000 A 
ATOM     28  C   UNL     1       6.216   4.211  17.424  0.00  0.00    +0.000 A 
BRANCH  26  29
ATOM     29  O   UNL     1       7.927   5.634  14.452  0.00  0.00    +0.000 OA
ATOM     30  C   UNL     1       7.866   5.220  13.093  0.00  0.00    +0.000 C 
ENDBRANCH  26  29
ENDBRANCH  22  23
ENDBRANCH   8  22
TORSDOF 7
ENDMDL
MODEL 2
REMARK VINA RESULT:      -7.9      1.757      2.795
REMARK  Name = 
REMARK  9 active torsions:
REMARK  status: ('A' for Active; 'I' for Inactive)
REMARK    1  A    between atoms: C_1  and  C_2
REMARK    2  A    between atoms: C_2  and  O_3
REMARK    3  A    between atoms: O_3  and  C_4
REMARK    4  A    between atoms: C_4  and  C_6
REMARK    5  A    between atoms: C_8  and  O_9
REMARK    6  A    between atoms: C_14  and  S_15
REMARK    7  A    between atoms: S_15  and  C_16
REMARK    8  A    between atoms: C_19  and  O_20
REMARK    9  A    between atoms: O_20  and  C_21
REMARK                            x       y       z     vdW  Elec       q    Type
REMARK                         _______ _______ _______ _____ _____    ______ ____
ROOT
ATOM      1  C   UNL     1      -0.932  11.760  21.244  0.00  0.00    +0.000 A 
ATOM      2  N   UNL     1      -1.009  11.113  22.418  0.00  0.00    +0.000 NA
ATOM      3  C   UNL     1      -0.368   9.950  22.443  0.00  0.00    +0.000 A 
ATOM      4  C   UNL     1       0.338   9.404  21.388  0.00  0.00    +0.000 A 
ATOM      5  C   UNL     1       1.017   8.175  21.436  0.00  0.00    +0.000 A 
ATOM      6  C   UNL     1       1.693   7.724  20.306  0.00  0.00    +0.000 A 
ATOM      7  C   UNL     1       2.399   6.505  20.310  0.00  0.00    +0.000 A 
ATOM      8  C   UNL     1       3.065   6.073  19.164  0.00  0.00    +0.000 A 
ATOM      9  C   UNL     1       3.031   6.877  18.025  0.00  0.00    +0.000 A 
ATOM     10  C   UNL     1       2.322   8.087  18.032  0.00  0.00    +0.000 A 
ATOM     11  C   UNL     1       1.650   8.536  19.162  0.00  0.00    +0.000 A 
ATOM     12  N   UNL     1       0.990   9.715  19.136  0.00  0.00    +0.000 NA
ATOM     13  C   UNL     1       0.348  10.157  20.221  0.00  0.00    +0.000 A 
ATOM     14  N   UNL     1      -0.282  11.325  20.146  0.00  0.00    +0.000 NA
ENDROOT
BRANCH   1  15
ATOM     15  C   UNL     1      -1.743  13.023  21.143  0.00  0.00    +0.000 C 
ATOM     16  O   UNL     1      -1.898  13.818  22.059  0.00  0.00    +0.000 OA
BRANCH  15  17
ATOM     17  O   UNL     1      -2.354  13.085  19.931  0.00  0.00    +0.000 OA
BRANCH  17  19
ATOM     18  C   UNL     1      -3.912  11.799  18.662  0.00  0.00    +0.000 C 
ATOM     19  C   UNL     1      -3.717  12.643  19.908  0.00  0.00    +0.000 C 
ENDBRANCH  17  19
ENDBRANCH  15  17
ENDBRANCH   1  15
BRANCH   3  20
ATOM     20  O   UNL     1      -0.477   9.303  23.633  0.00  0.00    +0.000 OA
ATOM     21  H   UNL     1      -0.664  10.045  24.236  0.00  0.00    +0.000 HD
ENDBRANCH   3  20
BRANCH   8  22
ATOM     22  S   UNL     1       3.992   4.549  19.181  0.00  0.00    +0.000 S 
BRANCH  22  23
ATOM     23  C   UNL     1       5.094   4.778  17.795  0.00  0.00    +0.000 A 
ATOM     24  C   UNL     1       6.262   5.533  17.919  0.00  0.00    +0.000 A 
ATOM     25  C   UNL     1       7.108   5.711  16.821  0.00  0.00    +0.000 A 
ATOM     26  C   UNL     1       6.818   5.115  15.594  0.00  0.00    +0.000 A 
ATOM     27  C   UNL     1       5.670   4.333  15.471  0.00  0.00    +0.000 A 
ATOM     28  C   UNL     1       4.811   4.166  16.569  0.00  0.00    +0.000 A 
BRANCH  26  29
ATOM     29  O   UNL     1       7.692   5.418  14.589  0.00  0.00    +0.000 OA
ATOM     30  C   UNL     1       7.387   4.905  13.298  0.00  0.00    +0.000 C 
ENDBRANCH  26  29
ENDBRANCH  22  23
ENDBRANCH   8  22
TORSDOF 7
ENDMDL
MODEL 3
REMARK VINA RESULT:      -7.9      1.805      2.887
REMARK  Name = 
REMARK  9 active torsions:
REMARK  status: ('A' for Active; 'I' for Inactive)
REMARK    1  A    between atoms: C_1  and  C_2
REMARK    2  A    between atoms: C_2  and  O_3
REMARK    3  A    between atoms: O_3  and  C_4
REMARK    4  A    between atoms: C_4  and  C_6
REMARK    5  A    between atoms: C_8  and  O_9
REMARK    6  A    between atoms: C_14  and  S_15
REMARK    7  A    between atoms: S_15  and  C_16
REMARK    8  A    between atoms: C_19  and  O_20
REMARK    9  A    between atoms: O_20  and  C_21
REMARK                            x       y       z     vdW  Elec       q    Type
REMARK                         _______ _______ _______ _____ _____    ______ ____
ROOT
ATOM      1  C   UNL     1      -0.407  12.044  21.763  0.00  0.00    +0.000 A 
ATOM      2  N   UNL     1      -0.494  11.326  22.895  0.00  0.00    +0.000 NA
ATOM      3  C   UNL     1      -0.002  10.096  22.800  0.00  0.00    +0.000 A 
ATOM      4  C   UNL     1       0.566   9.548  21.666  0.00  0.00    +0.000 A 
ATOM      5  C   UNL     1       1.089   8.246  21.587  0.00  0.00    +0.000 A 
ATOM      6  C   UNL     1       1.634   7.801  20.386  0.00  0.00    +0.000 A 
ATOM      7  C   UNL     1       2.182   6.510  20.263  0.00  0.00    +0.000 A 
ATOM      8  C   UNL     1       2.719   6.085  19.049  0.00  0.00    +0.000 A 
ATOM      9  C   UNL     1       2.719   6.969  17.969  0.00  0.00    +0.000 A 
ATOM     10  C   UNL     1       2.168   8.251  18.103  0.00  0.00    +0.000 A 
ATOM     11  C   UNL     1       1.625   8.694  19.303  0.00  0.00    +0.000 A 
ATOM     12  N   UNL     1       1.116   9.942  19.399  0.00  0.00    +0.000 NA
ATOM     13  C   UNL     1       0.600  10.378  20.552  0.00  0.00    +0.000 A 
ATOM     14  N   UNL     1       0.118  11.615  20.597  0.00  0.00    +0.000 NA
ENDROOT
BRANCH   1  15
ATOM     15  C   UNL     1      -1.059  13.398  21.800  0.00  0.00    +0.000 C 
ATOM     16  O   UNL     1      -1.557  13.952  20.829  0.00  0.00    +0.000 OA
BRANCH  15  17
ATOM     17  O   UNL     1      -0.915  13.948  23.034  0.00  0.00    +0.000 OA
BRANCH  17  19
ATOM     18  C   UNL     1      -1.100  15.787  24.542  0.00  0.00    +0.000 C 
ATOM     19  C   UNL     1      -1.011  15.377  23.084  0.00  0.00    +0.000 C 
ENDBRANCH  17  19
ENDBRANCH  15  17
ENDBRANCH   1  15
BRANCH   3  20
ATOM     20  O   UNL     1      -0.120   9.381  23.950  0.00  0.00    +0.000 OA
ATOM     21  H   UNL     1      -1.084   9.241  23.987  0.00  0.00    +0.000 HD
ENDBRANCH   3  20
BRANCH   8  22
ATOM     22  S   UNL     1       3.449   4.464  18.902  0.00  0.00    +0.000 S 
BRANCH  22  23
ATOM     23  C   UNL     1       4.741   4.753  17.705  0.00  0.00    +0.000 A 
ATOM     24  C   UNL     1       4.658   4.231  16.412  0.00  0.00    +0.000 A 
ATOM     25  C   UNL     1       5.683   4.458  15.491  0.00  0.00    +0.000 A 
ATOM     26  C   UNL     1       6.790   5.233  15.834  0.00  0.00    +0.000 A 
ATOM     27  C   UNL     1       6.866   5.785  17.112  0.00  0.00    +0.000 A 
ATOM     28  C   UNL     1       5.843   5.546  18.044  0.00  0.00    +0.000 A 
BRANCH  26  29
ATOM     29  O   UNL     1       7.748   5.325  14.864  0.00  0.00    +0.000 OA
ATOM     30  C   UNL     1       7.368   4.934  13.550  0.00  0.00    +0.000 C 
ENDBRANCH  26  29
ENDBRANCH  22  23
ENDBRANCH   8  22
TORSDOF 7
ENDMDL
MODEL 4
REMARK VINA RESULT:      -7.8      0.820      1.213
REMARK  Name = 
REMARK  9 active torsions:
REMARK  status: ('A' for Active; 'I' for Inactive)
REMARK    1  A    between atoms: C_1  and  C_2
REMARK    2  A    between atoms: C_2  and  O_3
REMARK    3  A    between atoms: O_3  and  C_4
REMARK    4  A    between atoms: C_4  and  C_6
REMARK    5  A    between atoms: C_8  and  O_9
REMARK    6  A    between atoms: C_14  and  S_15
REMARK    7  A    between atoms: S_15  and  C_16
REMARK    8  A    between atoms: C_19  and  O_20
REMARK    9  A    between atoms: O_20  and  C_21
REMARK                            x       y       z     vdW  Elec       q    Type
REMARK                         _______ _______ _______ _____ _____    ______ ____
ROOT
ATOM      1  C   UNL     1       0.401  10.882  20.327  0.00  0.00    +0.000 A 
ATOM      2  N   UNL     1       0.894  11.191  19.116  0.00  0.00    +0.000 NA
ATOM      3  C   UNL     1       1.524  10.190  18.513  0.00  0.00    +0.000 A 
ATOM      4  C   UNL     1       1.686   8.919  19.030  0.00  0.00    +0.000 A 
ATOM      5  C   UNL     1       2.350   7.870  18.373  0.00  0.00    +0.000 A 
ATOM      6  C   UNL     1       2.454   6.630  18.997  0.00  0.00    +0.000 A 
ATOM      7  C   UNL     1       3.098   5.545  18.371  0.00  0.00    +0.000 A 
ATOM      8  C   UNL     1       3.193   4.314  19.019  0.00  0.00    +0.000 A 
ATOM      9  C   UNL     1       2.624   4.176  20.285  0.00  0.00    +0.000 A 
ATOM     10  C   UNL     1       1.989   5.264  20.899  0.00  0.00    +0.000 A 
ATOM     11  C   UNL     1       1.884   6.501  20.274  0.00  0.00    +0.000 A 
ATOM     12  N   UNL     1       1.251   7.523  20.890  0.00  0.00    +0.000 NA
ATOM     13  C   UNL     1       1.140   8.712  20.291  0.00  0.00    +0.000 A 
ATOM     14  N   UNL     1       0.503   9.683  20.936  0.00  0.00    +0.000 NA
ENDROOT
BRANCH   1  15
ATOM     15  C   UNL     1      -0.216  12.023  21.088  0.00  0.00    +0.000 C 
ATOM     16  O   UNL     1      -1.396  12.336  21.026  0.00  0.00    +0.000 OA
BRANCH  15  17
ATOM     17  O   UNL     1       0.748  12.706  21.760  0.00  0.00    +0.000 OA
BRANCH  17  19
ATOM     18  C   UNL     1       0.447  15.013  22.288  0.00  0.00    +0.000 C 
ATOM     19  C   UNL     1       1.010  14.030  21.279  0.00  0.00    +0.000 C 
ENDBRANCH  17  19
ENDBRANCH  15  17
ENDBRANCH   1  15
BRANCH   3  20
ATOM     20  O   UNL     1       2.034  10.531  17.299  0.00  0.00    +0.000 OA
ATOM     21  H   UNL     1       2.530   9.724  17.069  0.00  0.00    +0.000 HD
ENDBRANCH   3  20
BRANCH   8  22
ATOM     22  S   UNL     1       3.973   2.928  18.211  0.00  0.00    +0.000 S 
BRANCH  22  23
ATOM     23  C   UNL     1       5.133   3.745  17.127  0.00  0.00    +0.000 A 
ATOM     24  C   UNL     1       4.865   3.897  15.765  0.00  0.00    +0.000 A 
ATOM     25  C   UNL     1       5.789   4.529  14.929  0.00  0.00    +0.000 A 
ATOM     26  C   UNL     1       6.978   5.046  15.443  0.00  0.00    +0.000 A 
ATOM     27  C   UNL     1       7.239   4.927  16.807  0.00  0.00    +0.000 A 
ATOM     28  C   UNL     1       6.318   4.279  17.646  0.00  0.00    +0.000 A 
BRANCH  26  29
ATOM     29  O   UNL     1       7.819   5.583  14.511  0.00  0.00    +0.000 OA
ATOM     30  C   UNL     1       7.716   5.075  13.186  0.00  0.00    +0.000 C 
ENDBRANCH  26  29
ENDBRANCH  22  23
ENDBRANCH   8  22
TORSDOF 7
ENDMDL
MODEL 5
REMARK VINA RESULT:      -7.8      0.926      1.322
REMARK  Name = 
REMARK  9 active torsions:
REMARK  status: ('A' for Active; 'I' for Inactive)
REMARK    1  A    between atoms: C_1  and  C_2
REMARK    2  A    between atoms: C_2  and  O_3
REMARK    3  A    between atoms: O_3  and  C_4
REMARK    4  A    between atoms: C_4  and  C_6
REMARK    5  A    between atoms: C_8  and  O_9
REMARK    6  A    between atoms: C_14  and  S_15
REMARK    7  A    between atoms: S_15  and  C_16
REMARK    8  A    between atoms: C_19  and  O_20
REMARK    9  A    between atoms: O_20  and  C_21
REMARK                            x       y       z     vdW  Elec       q    Type
REMARK                         _______ _______ _______ _____ _____    ______ ____
ROOT
ATOM      1  C   UNL     1       0.565  11.097  20.182  0.00  0.00    +0.000 A 
ATOM      2  N   UNL     1       1.112  11.377  18.988  0.00  0.00    +0.000 NA
ATOM      3  C   UNL     1       1.723  10.347  18.413  0.00  0.00    +0.000 A 
ATOM      4  C   UNL     1       1.818   9.075  18.945  0.00  0.00    +0.000 A 
ATOM      5  C   UNL     1       2.462   7.996  18.319  0.00  0.00    +0.000 A 
ATOM      6  C   UNL     1       2.497   6.759  18.954  0.00  0.00    +0.000 A 
ATOM      7  C   UNL     1       3.119   5.644  18.359  0.00  0.00    +0.000 A 
ATOM      8  C   UNL     1       3.144   4.416  19.018  0.00  0.00    +0.000 A 
ATOM      9  C   UNL     1       2.527   4.310  20.264  0.00  0.00    +0.000 A 
ATOM     10  C   UNL     1       1.913   5.427  20.848  0.00  0.00    +0.000 A 
ATOM     11  C   UNL     1       1.879   6.662  20.211  0.00  0.00    +0.000 A 
ATOM     12  N   UNL     1       1.264   7.712  20.798  0.00  0.00    +0.000 NA
ATOM     13  C   UNL     1       1.220   8.900  20.187  0.00  0.00    +0.000 A 
ATOM     14  N   UNL     1       0.599   9.900  20.803  0.00  0.00    +0.000 NA
ENDROOT
BRANCH   1  15
ATOM     15  C   UNL     1      -0.033  12.267  20.914  0.00  0.00    +0.000 C 
ATOM     16  O   UNL     1       0.261  12.590  22.057  0.00  0.00    +0.000 OA
BRANCH  15  17
ATOM     17  O   UNL     1      -1.011  12.833  20.161  0.00  0.00    +0.000 OA
BRANCH  17  19
ATOM     18  C   UNL     1      -0.208  14.808  19.090  0.00  0.00    +0.000 C 
ATOM     19  C   UNL     1      -1.074  14.264  20.212  0.00  0.00    +0.000 C 
ENDBRANCH  17  19
ENDBRANCH  15  17
ENDBRANCH   1  15
BRANCH   3  20
ATOM     20  O   UNL     1       2.287  10.659  17.217  0.00  0.00    +0.000 OA
ATOM     21  H   UNL     1       1.987   9.912  16.666  0.00  0.00    +0.000 HD
ENDBRANCH   3  20
BRANCH   8  22
ATOM     22  S   UNL     1       3.898   2.995  18.247  0.00  0.00    +0.000 S 
BRANCH  22  23
ATOM     23  C   UNL     1       5.062   3.761  17.131  0.00  0.00    +0.000 A 
ATOM     24  C   UNL     1       6.262   4.302  17.597  0.00  0.00    +0.000 A 
ATOM     25  C   UNL     1       7.156   4.907  16.710  0.00  0.00    +0.000 A 
ATOM     26  C   UNL     1       6.883   4.953  15.344  0.00  0.00    +0.000 A 
ATOM     27  C   UNL     1       5.702   4.387  14.866  0.00  0.00    +0.000 A 
ATOM     28  C   UNL     1       4.795   3.792  15.757  0.00  0.00    +0.000 A 
BRANCH  26  29
ATOM     29  O   UNL     1       7.808   5.626  14.597  0.00  0.00    +0.000 OA
ATOM     30  C   UNL     1       7.871   5.305  13.213  0.00  0.00    +0.000 C 
ENDBRANCH  26  29
ENDBRANCH  22  23
ENDBRANCH   8  22
TORSDOF 7
ENDMDL
MODEL 6
REMARK VINA RESULT:      -7.7      3.803      9.412
REMARK  Name = 
REMARK  9 active torsions:
REMARK  status: ('A' for Active; 'I' for Inactive)
REMARK    1  A    between atoms: C_1  and  C_2
REMARK    2  A    between atoms: C_2  and  O_3
REMARK    3  A    between atoms: O_3  and  C_4
REMARK    4  A    between atoms: C_4  and  C_6
REMARK    5  A    between atoms: C_8  and  O_9
REMARK    6  A    between atoms: C_14  and  S_15
REMARK    7  A    between atoms: S_15  and  C_16
REMARK    8  A    between atoms: C_19  and  O_20
REMARK    9  A    between atoms: O_20  and  C_21
REMARK                            x       y       z     vdW  Elec       q    Type
REMARK                         _______ _______ _______ _____ _____    ______ ____
ROOT
ATOM      1  C   UNL     1       3.689   4.625  19.372  0.00  0.00    +0.000 A 
ATOM      2  N   UNL     1       4.146   5.124  18.212  0.00  0.00    +0.000 NA
ATOM      3  C   UNL     1       3.692   6.338  17.924  0.00  0.00    +0.000 A 
ATOM      4  C   UNL     1       2.828   7.076  18.711  0.00  0.00    +0.000 A 
ATOM      5  C   UNL     1       2.365   8.363  18.393  0.00  0.00    +0.000 A 
ATOM      6  C   UNL     1       1.492   9.009  19.264  0.00  0.00    +0.000 A 
ATOM      7  C   UNL     1       1.011  10.305  18.995  0.00  0.00    +0.000 A 
ATOM      8  C   UNL     1       0.134  10.929  19.880  0.00  0.00    +0.000 A 
ATOM      9  C   UNL     1      -0.241  10.253  21.042  0.00  0.00    +0.000 A 
ATOM     10  C   UNL     1       0.241   8.962  21.297  0.00  0.00    +0.000 A 
ATOM     11  C   UNL     1       1.114   8.320  20.427  0.00  0.00    +0.000 A 
ATOM     12  N   UNL     1       1.570   7.081  20.714  0.00  0.00    +0.000 NA
ATOM     13  C   UNL     1       2.416   6.461  19.886  0.00  0.00    +0.000 A 
ATOM     14  N   UNL     1       2.840   5.245  20.216  0.00  0.00    +0.000 NA
ENDROOT
BRANCH   1  15
ATOM     15  C   UNL     1       4.089   3.206  19.672  0.00  0.00    +0.000 C 
ATOM     16  O   UNL     1       5.244   2.805  19.692  0.00  0.00    +0.000 OA
BRANCH  15  17
ATOM     17  O   UNL     1       2.981   2.431  19.809  0.00  0.00    +0.000 OA
BRANCH  17  19
ATOM     18  C   UNL     1       0.869   2.374  18.700  0.00  0.00    +0.000 C 
ATOM     19  C   UNL     1       2.347   2.047  18.583  0.00  0.00    +0.000 C 
ENDBRANCH  17  19
ENDBRANCH  15  17
ENDBRANCH   1  15
BRANCH   3  20
ATOM     20  O   UNL     1       4.150   6.814  16.736  0.00  0.00    +0.000 OA
ATOM     21  H   UNL     1       4.398   5.987  16.284  0.00  0.00    +0.000 HD
ENDBRANCH   3  20
BRANCH   8  22
ATOM     22  S   UNL     1      -0.443  12.586  19.560  0.00  0.00    +0.000 S 
BRANCH  22  23
ATOM     23  C   UNL     1      -2.192  12.321  19.315  0.00  0.00    +0.000 A 
ATOM     24  C   UNL     1      -3.133  12.839  20.207  0.00  0.00    +0.000 A 
ATOM     25  C   UNL     1      -4.497  12.612  20.005  0.00  0.00    +0.000 A 
ATOM     26  C   UNL     1      -4.944  11.894  18.897  0.00  0.00    +0.000 A 
ATOM     27  C   UNL     1      -4.013  11.401  17.984  0.00  0.00    +0.000 A 
ATOM     28  C   UNL     1      -2.641  11.615  18.193  0.00  0.00    +0.000 A 
BRANCH  26  29
ATOM     29  O   UNL     1      -6.294  11.692  18.852  0.00  0.00    +0.000 OA
ATOM     30  C   UNL     1      -6.742  10.343  18.896  0.00  0.00    +0.000 C 
ENDBRANCH  26  29
ENDBRANCH  22  23
ENDBRANCH   8  22
TORSDOF 7
ENDMDL
MODEL 7
REMARK VINA RESULT:      -7.7      1.976      3.210
REMARK  Name = 
REMARK  9 active torsions:
REMARK  status: ('A' for Active; 'I' for Inactive)
REMARK    1  A    between atoms: C_1  and  C_2
REMARK    2  A    between atoms: C_2  and  O_3
REMARK    3  A    between atoms: O_3  and  C_4
REMARK    4  A    between atoms: C_4  and  C_6
REMARK    5  A    between atoms: C_8  and  O_9
REMARK    6  A    between atoms: C_14  and  S_15
REMARK    7  A    between atoms: S_15  and  C_16
REMARK    8  A    between atoms: C_19  and  O_20
REMARK    9  A    between atoms: O_20  and  C_21
REMARK                            x       y       z     vdW  Elec       q    Type
REMARK                         _______ _______ _______ _____ _____    ______ ____
ROOT
ATOM      1  C   UNL     1      -0.463  12.914  20.778  0.00  0.00    +0.000 A 
ATOM      2  N   UNL     1      -0.667  12.422  22.011  0.00  0.00    +0.000 NA
ATOM      3  C   UNL     1      -0.247  11.174  22.177  0.00  0.00    +0.000 A 
ATOM      4  C   UNL     1       0.357  10.398  21.206  0.00  0.00    +0.000 A 
ATOM      5  C   UNL     1       0.802   9.080  21.402  0.00  0.00    +0.000 A 
ATOM      6  C   UNL     1       1.394   8.395  20.345  0.00  0.00    +0.000 A 
ATOM      7  C   UNL     1       1.867   7.077  20.498  0.00  0.00    +0.000 A 
ATOM      8  C   UNL     1       2.454   6.410  19.424  0.00  0.00    +0.000 A 
ATOM      9  C   UNL     1       2.577   7.079  18.206  0.00  0.00    +0.000 A 
ATOM     10  C   UNL     1       2.099   8.389  18.065  0.00  0.00    +0.000 A 
ATOM     11  C   UNL     1       1.509   9.072  19.121  0.00  0.00    +0.000 A 
ATOM     12  N   UNL     1       1.075  10.340  18.952  0.00  0.00    +0.000 NA
ATOM     13  C   UNL     1       0.514  11.005  19.966  0.00  0.00    +0.000 A 
ATOM     14  N   UNL     1       0.107  12.252  19.751  0.00  0.00    +0.000 NA
ENDROOT
BRANCH   1  15
ATOM     15  C   UNL     1      -1.031  14.283  20.521  0.00  0.00    +0.000 C 
ATOM     16  O   UNL     1      -1.712  14.908  21.322  0.00  0.00    +0.000 OA
BRANCH  15  17
ATOM     17  O   UNL     1      -0.764  14.663  19.244  0.00  0.00    +0.000 OA
BRANCH  17  19
ATOM     18  C   UNL     1      -0.654  16.895  18.409  0.00  0.00    +0.000 C 
ATOM     19  C   UNL     1       0.113  15.789  19.111  0.00  0.00    +0.000 C 
ENDBRANCH  17  19
ENDBRANCH  15  17
ENDBRANCH   1  15
BRANCH   3  20
ATOM     20  O   UNL     1      -0.483  10.690  23.425  0.00  0.00    +0.000 OA
ATOM     21  H   UNL     1       0.421  10.652  23.787  0.00  0.00    +0.000 HD
ENDBRANCH   3  20
BRANCH   8  22
ATOM     22  S   UNL     1       3.088   4.756  19.627  0.00  0.00    +0.000 S 
BRANCH  22  23
ATOM     23  C   UNL     1       4.442   4.739  18.462  0.00  0.00    +0.000 A 
ATOM     24  C   UNL     1       4.272   4.250  17.165  0.00  0.00    +0.000 A 
ATOM     25  C   UNL     1       5.345   4.235  16.271  0.00  0.00    +0.000 A 
ATOM     26  C   UNL     1       6.592   4.735  16.644  0.00  0.00    +0.000 A 
ATOM     27  C   UNL     1       6.761   5.254  17.927  0.00  0.00    +0.000 A 
ATOM     28  C   UNL     1       5.688   5.257  18.832  0.00  0.00    +0.000 A 
BRANCH  26  29
ATOM     29  O   UNL     1       7.569   4.604  15.698  0.00  0.00    +0.000 OA
ATOM     30  C   UNL     1       7.185   4.824  14.346  0.00  0.00    +0.000 C 
ENDBRANCH  26  29
ENDBRANCH  22  23
ENDBRANCH   8  22
TORSDOF 7
ENDMDL
MODEL 8
REMARK VINA RESULT:      -7.7      1.811      2.929
REMARK  Name = 
REMARK  9 active torsions:
REMARK  status: ('A' for Active; 'I' for Inactive)
REMARK    1  A    between atoms: C_1  and  C_2
REMARK    2  A    between atoms: C_2  and  O_3
REMARK    3  A    between atoms: O_3  and  C_4
REMARK    4  A    between atoms: C_4  and  C_6
REMARK    5  A    between atoms: C_8  and  O_9
REMARK    6  A    between atoms: C_14  and  S_15
REMARK    7  A    between atoms: S_15  and  C_16
REMARK    8  A    between atoms: C_19  and  O_20
REMARK    9  A    between atoms: O_20  and  C_21
REMARK                            x       y       z     vdW  Elec       q    Type
REMARK                         _______ _______ _______ _____ _____    ______ ____
ROOT
ATOM      1  C   UNL     1      -0.742  11.926  21.336  0.00  0.00    +0.000 A 
ATOM      2  N   UNL     1      -0.767  11.299  22.524  0.00  0.00    +0.000 NA
ATOM      3  C   UNL     1      -0.161  10.118  22.530  0.00  0.00    +0.000 A 
ATOM      4  C   UNL     1       0.462   9.533  21.444  0.00  0.00    +0.000 A 
ATOM      5  C   UNL     1       1.104   8.284  21.471  0.00  0.00    +0.000 A 
ATOM      6  C   UNL     1       1.695   7.795  20.310  0.00  0.00    +0.000 A 
ATOM      7  C   UNL     1       2.362   6.554  20.292  0.00  0.00    +0.000 A 
ATOM      8  C   UNL     1       2.943   6.083  19.116  0.00  0.00    +0.000 A 
ATOM      9  C   UNL     1       2.865   6.871  17.967  0.00  0.00    +0.000 A 
ATOM     10  C   UNL     1       2.195   8.102  17.996  0.00  0.00    +0.000 A 
ATOM     11  C   UNL     1       1.607   8.590  19.157  0.00  0.00    +0.000 A 
ATOM     12  N   UNL     1       0.983   9.789  19.151  0.00  0.00    +0.000 NA
ATOM     13  C   UNL     1       0.423  10.267  20.265  0.00  0.00    +0.000 A 
ATOM     14  N   UNL     1      -0.174  11.453  20.209  0.00  0.00    +0.000 NA
ENDROOT
BRANCH   1  15
ATOM     15  C   UNL     1      -1.518  13.212  21.263  0.00  0.00    +0.000 C 
ATOM     16  O   UNL     1      -2.577  13.346  20.665  0.00  0.00    +0.000 OA
BRANCH  15  17
ATOM     17  O   UNL     1      -0.819  14.210  21.864  0.00  0.00    +0.000 OA
BRANCH  17  19
ATOM     18  C   UNL     1      -1.000  15.421  23.911  0.00  0.00    +0.000 C 
ATOM     19  C   UNL     1      -1.613  15.192  22.542  0.00  0.00    +0.000 C 
ENDBRANCH  17  19
ENDBRANCH  15  17
ENDBRANCH   1  15
BRANCH   3  20
ATOM     20  O   UNL     1      -0.217   9.492  23.736  0.00  0.00    +0.000 OA
ATOM     21  H   UNL     1      -1.140   9.668  23.997  0.00  0.00    +0.000 HD
ENDBRANCH   3  20
BRANCH   8  22
ATOM     22  S   UNL     1       3.822   4.532  19.102  0.00  0.00    +0.000 S 
BRANCH  22  23
ATOM     23  C   UNL     1       4.979   4.780  17.765  0.00  0.00    +0.000 A 
ATOM     24  C   UNL     1       6.156   5.507  17.955  0.00  0.00    +0.000 A 
ATOM     25  C   UNL     1       7.046   5.701  16.895  0.00  0.00    +0.000 A 
ATOM     26  C   UNL     1       6.791   5.148  15.641  0.00  0.00    +0.000 A 
ATOM     27  C   UNL     1       5.633   4.394  15.452  0.00  0.00    +0.000 A 
ATOM     28  C   UNL     1       4.731   4.210  16.512  0.00  0.00    +0.000 A 
BRANCH  26  29
ATOM     29  O   UNL     1       7.707   5.464  14.678  0.00  0.00    +0.000 OA
ATOM     30  C   UNL     1       7.501   4.902  13.388  0.00  0.00    +0.000 C 
ENDBRANCH  26  29
ENDBRANCH  22  23
ENDBRANCH   8  22
TORSDOF 7
ENDMDL
MODEL 9
REMARK VINA RESULT:      -7.6      3.092      9.719
REMARK  Name = 
REMARK  9 active torsions:
REMARK  status: ('A' for Active; 'I' for Inactive)
REMARK    1  A    between atoms: C_1  and  C_2
REMARK    2  A    between atoms: C_2  and  O_3
REMARK    3  A    between atoms: O_3  and  C_4
REMARK    4  A    between atoms: C_4  and  C_6
REMARK    5  A    between atoms: C_8  and  O_9
REMARK    6  A    between atoms: C_14  and  S_15
REMARK    7  A    between atoms: S_15  and  C_16
REMARK    8  A    between atoms: C_19  and  O_20
REMARK    9  A    between atoms: O_20  and  C_21
REMARK                            x       y       z     vdW  Elec       q    Type
REMARK                         _______ _______ _______ _____ _____    ______ ____
ROOT
ATOM      1  C   UNL     1       5.947   5.064  15.769  0.00  0.00    +0.000 A 
ATOM      2  N   UNL     1       6.015   4.214  16.807  0.00  0.00    +0.000 NA
ATOM      3  C   UNL     1       5.253   4.555  17.840  0.00  0.00    +0.000 A 
ATOM      4  C   UNL     1       4.438   5.669  17.900  0.00  0.00    +0.000 A 
ATOM      5  C   UNL     1       3.633   6.009  19.000  0.00  0.00    +0.000 A 
ATOM      6  C   UNL     1       2.854   7.161  18.946  0.00  0.00    +0.000 A 
ATOM      7  C   UNL     1       2.021   7.535  20.018  0.00  0.00    +0.000 A 
ATOM      8  C   UNL     1       1.253   8.696  19.942  0.00  0.00    +0.000 A 
ATOM      9  C   UNL     1       1.314   9.465  18.780  0.00  0.00    +0.000 A 
ATOM     10  C   UNL     1       2.149   9.085  17.721  0.00  0.00    +0.000 A 
ATOM     11  C   UNL     1       2.925   7.933  17.776  0.00  0.00    +0.000 A 
ATOM     12  N   UNL     1       3.707   7.590  16.729  0.00  0.00    +0.000 NA
ATOM     13  C   UNL     1       4.449   6.480  16.772  0.00  0.00    +0.000 A 
ATOM     14  N   UNL     1       5.197   6.183  15.714  0.00  0.00    +0.000 NA
ENDROOT
BRANCH   1  15
ATOM     15  C   UNL     1       6.884   4.773  14.629  0.00  0.00    +0.000 C 
ATOM     16  O   UNL     1       7.842   5.472  14.327  0.00  0.00    +0.000 OA
BRANCH  15  17
ATOM     17  O   UNL     1       6.446   3.691  13.933  0.00  0.00    +0.000 OA
BRANCH  17  19
ATOM     18  C   UNL     1       5.353   3.087  11.901  0.00  0.00    +0.000 C 
ATOM     19  C   UNL     1       6.549   3.797  12.508  0.00  0.00    +0.000 C 
ENDBRANCH  17  19
ENDBRANCH  15  17
ENDBRANCH   1  15
BRANCH   3  20
ATOM     20  O   UNL     1       5.354   3.694  18.888  0.00  0.00    +0.000 OA
ATOM     21  H   UNL     1       4.514   3.863  19.353  0.00  0.00    +0.000 HD
ENDBRANCH   3  20
BRANCH   8  22
ATOM     22  S   UNL     1       0.168   9.149  21.284  0.00  0.00    +0.000 S 
BRANCH  22  23
ATOM     23  C   UNL     1      -0.167  10.864  20.917  0.00  0.00    +0.000 A 
ATOM     24  C   UNL     1      -1.379  11.257  20.346  0.00  0.00    +0.000 A 
ATOM     25  C   UNL     1      -1.619  12.602  20.056  0.00  0.00    +0.000 A 
ATOM     26  C   UNL     1      -0.670  13.578  20.360  0.00  0.00    +0.000 A 
ATOM     27  C   UNL     1       0.529  13.198  20.959  0.00  0.00    +0.000 A 
ATOM     28  C   UNL     1       0.779  11.844  21.238  0.00  0.00    +0.000 A 
BRANCH  26  29
ATOM     29  O   UNL     1      -1.004  14.844  19.969  0.00  0.00    +0.000 OA
ATOM     30  C   UNL     1      -1.760  15.620  20.890  0.00  0.00    +0.000 C 
ENDBRANCH  26  29
ENDBRANCH  22  23
ENDBRANCH   8  22
TORSDOF 7
ENDMDL
