MODEL 1
REMARK VINA RESULT:      -6.3      0.000      0.000
REMARK  Name = 
REMARK  11 active torsions:
REMARK  status: ('A' for Active; 'I' for Inactive)
REMARK    1  A    between atoms: C_1  and  O_2
REMARK    2  A    between atoms: O_2  and  C_3
REMARK    3  A    between atoms: C_6  and  S_7
REMARK    4  A    between atoms: S_7  and  N_10
REMARK    5  A    between atoms: N_10  and  C_11
REMARK    6  A    between atoms: C_11  and  C_12
REMARK    7  A    between atoms: C_12  and  S_13
REMARK    8  A    between atoms: S_13  and  C_14
REMARK    9  A    between atoms: C_14  and  C_15
REMARK   10  A    between atoms: C_14  and  C_16
REMARK   11  A    between atoms: C_14  and  C_17
REMARK                            x       y       z     vdW  Elec       q    Type
REMARK                         _______ _______ _______ _____ _____    ______ ____
ROOT
ATOM      1  S   UNL     1       7.138   5.630  17.376  0.00  0.00    +0.000 S 
ATOM      2  O   UNL     1       7.774   4.595  18.168  0.00  0.00    +0.000 OA
ATOM      3  O   UNL     1       7.804   6.875  17.082  0.00  0.00    +0.000 OA
ENDROOT
BRANCH   1   7
ATOM      4  C   UNL     1       5.751   3.882  13.374  0.00  0.00    +0.000 A 
ATOM      5  C   UNL     1       5.040   3.619  14.561  0.00  0.00    +0.000 A 
ATOM      6  C   UNL     1       5.477   4.112  15.794  0.00  0.00    +0.000 A 
ATOM      7  C   UNL     1       6.643   4.877  15.852  0.00  0.00    +0.000 A 
ATOM      8  C   UNL     1       7.354   5.158  14.688  0.00  0.00    +0.000 A 
ATOM      9  C   UNL     1       6.907   4.673  13.446  0.00  0.00    +0.000 A 
ATOM     10 CL   UNL     1       7.813   5.221  12.082  0.00  0.00    +0.000 Cl
BRANCH   4  12
ATOM     11  C   UNL     1       5.668   2.242  11.631  0.00  0.00    +0.000 C 
ATOM     12  O   UNL     1       5.119   3.391  12.261  0.00  0.00    +0.000 OA
ENDBRANCH   4  12
ENDBRANCH   1   7
BRANCH   1  13
ATOM     13  N   UNL     1       5.678   5.987  18.139  0.00  0.00    +0.000 NA
ATOM     14  H   UNL     1       4.952   6.181  17.439  0.00  0.00    +0.000 HD
BRANCH  13  15
ATOM     15  C   UNL     1       5.256   5.078  19.216  0.00  0.00    +0.000 C 
BRANCH  15  16
ATOM     16  C   UNL     1       3.779   5.280  19.582  0.00  0.00    +0.000 C 
BRANCH  16  17
ATOM     17  S   UNL     1       3.001   3.692  20.095  0.00  0.00    +0.000 S 
BRANCH  17  18
ATOM     18  C   UNL     1       2.149   3.151  18.541  0.00  0.00    +0.000 C 
ATOM     19  C   UNL     1       3.011   2.135  17.785  0.00  0.00    +0.000 C 
ATOM     20  C   UNL     1       0.827   2.480  18.954  0.00  0.00    +0.000 C 
ATOM     21  C   UNL     1       1.830   4.357  17.651  0.00  0.00    +0.000 C 
ENDBRANCH  17  18
ENDBRANCH  16  17
ENDBRANCH  15  16
ENDBRANCH  13  15
ENDBRANCH   1  13
TORSDOF 7
ENDMDL
MODEL 2
REMARK VINA RESULT:      -6.1      4.933      7.212
REMARK  Name = 
REMARK  11 active torsions:
REMARK  status: ('A' for Active; 'I' for Inactive)
REMARK    1  A    between atoms: C_1  and  O_2
REMARK    2  A    between atoms: O_2  and  C_3
REMARK    3  A    between atoms: C_6  and  S_7
REMARK    4  A    between atoms: S_7  and  N_10
REMARK    5  A    between atoms: N_10  and  C_11
REMARK    6  A    between atoms: C_11  and  C_12
REMARK    7  A    between atoms: C_12  and  S_13
REMARK    8  A    between atoms: S_13  and  C_14
REMARK    9  A    between atoms: C_14  and  C_15
REMARK   10  A    between atoms: C_14  and  C_16
REMARK   11  A    between atoms: C_14  and  C_17
REMARK                            x       y       z     vdW  Elec       q    Type
REMARK                         _______ _______ _______ _____ _____    ______ ____
ROOT
ATOM      1  S   UNL     1       7.213   5.505  17.331  0.00  0.00    +0.000 S 
ATOM      2  O   UNL     1       7.885   4.399  17.984  0.00  0.00    +0.000 OA
ATOM      3  O   UNL     1       7.534   5.896  15.980  0.00  0.00    +0.000 OA
ENDROOT
BRANCH   1   7
ATOM      4  C   UNL     1       2.751   4.571  17.793  0.00  0.00    +0.000 A 
ATOM      5  C   UNL     1       3.600   3.701  17.082  0.00  0.00    +0.000 A 
ATOM      6  C   UNL     1       4.954   3.997  16.898  0.00  0.00    +0.000 A 
ATOM      7  C   UNL     1       5.475   5.179  17.427  0.00  0.00    +0.000 A 
ATOM      8  C   UNL     1       4.655   6.046  18.144  0.00  0.00    +0.000 A 
ATOM      9  C   UNL     1       3.296   5.743  18.339  0.00  0.00    +0.000 A 
ATOM     10 CL   UNL     1       2.445   6.842  19.364  0.00  0.00    +0.000 Cl
BRANCH   4  12
ATOM     11  C   UNL     1       1.172   3.383  19.147  0.00  0.00    +0.000 C 
ATOM     12  O   UNL     1       1.485   4.068  17.942  0.00  0.00    +0.000 OA
ENDBRANCH   4  12
ENDBRANCH   1   7
BRANCH   1  13
ATOM     13  N   UNL     1       7.423   6.849  18.326  0.00  0.00    +0.000 NA
ATOM     14  H   UNL     1       7.964   6.590  19.159  0.00  0.00    +0.000 HD
BRANCH  13  15
ATOM     15  C   UNL     1       7.868   8.091  17.673  0.00  0.00    +0.000 C 
BRANCH  15  16
ATOM     16  C   UNL     1       8.643   8.995  18.642  0.00  0.00    +0.000 C 
BRANCH  16  17
ATOM     17  S   UNL     1       8.850  10.686  17.947  0.00  0.00    +0.000 S 
BRANCH  17  18
ATOM     18  C   UNL     1       9.759  11.561  19.306  0.00  0.00    +0.000 C 
ATOM     19  C   UNL     1      11.271  11.481  19.074  0.00  0.00    +0.000 C 
ATOM     20  C   UNL     1       9.323  13.037  19.270  0.00  0.00    +0.000 C 
ATOM     21  C   UNL     1       9.389  10.972  20.671  0.00  0.00    +0.000 C 
ENDBRANCH  17  18
ENDBRANCH  16  17
ENDBRANCH  15  16
ENDBRANCH  13  15
ENDBRANCH   1  13
TORSDOF 7
ENDMDL
MODEL 3
REMARK VINA RESULT:      -6.1      5.015      7.317
REMARK  Name = 
REMARK  11 active torsions:
REMARK  status: ('A' for Active; 'I' for Inactive)
REMARK    1  A    between atoms: C_1  and  O_2
REMARK    2  A    between atoms: O_2  and  C_3
REMARK    3  A    between atoms: C_6  and  S_7
REMARK    4  A    between atoms: S_7  and  N_10
REMARK    5  A    between atoms: N_10  and  C_11
REMARK    6  A    between atoms: C_11  and  C_12
REMARK    7  A    between atoms: C_12  and  S_13
REMARK    8  A    between atoms: S_13  and  C_14
REMARK    9  A    between atoms: C_14  and  C_15
REMARK   10  A    between atoms: C_14  and  C_16
REMARK   11  A    between atoms: C_14  and  C_17
REMARK                            x       y       z     vdW  Elec       q    Type
REMARK                         _______ _______ _______ _____ _____    ______ ____
ROOT
ATOM      1  S   UNL     1       7.213   5.626  17.560  0.00  0.00    +0.000 S 
ATOM      2  O   UNL     1       7.749   5.253  18.855  0.00  0.00    +0.000 OA
ATOM      3  O   UNL     1       7.761   5.099  16.335  0.00  0.00    +0.000 OA
ENDROOT
BRANCH   1   7
ATOM      4  C   UNL     1       2.732   4.735  17.902  0.00  0.00    +0.000 A 
ATOM      5  C   UNL     1       3.667   3.691  17.766  0.00  0.00    +0.000 A 
ATOM      6  C   UNL     1       5.032   3.952  17.619  0.00  0.00    +0.000 A 
ATOM      7  C   UNL     1       5.478   5.274  17.602  0.00  0.00    +0.000 A 
ATOM      8  C   UNL     1       4.572   6.321  17.747  0.00  0.00    +0.000 A 
ATOM      9  C   UNL     1       3.200   6.058  17.907  0.00  0.00    +0.000 A 
ATOM     10 CL   UNL     1       2.223   7.448  18.214  0.00  0.00    +0.000 Cl
BRANCH   4  12
ATOM     11  C   UNL     1       1.147   3.753  19.405  0.00  0.00    +0.000 C 
ATOM     12  O   UNL     1       1.458   4.278  18.122  0.00  0.00    +0.000 OA
ENDBRANCH   4  12
ENDBRANCH   1   7
BRANCH   1  13
ATOM     13  N   UNL     1       7.279   7.308  17.480  0.00  0.00    +0.000 NA
ATOM     14  H   UNL     1       6.334   7.703  17.557  0.00  0.00    +0.000 HD
BRANCH  13  15
ATOM     15  C   UNL     1       8.285   7.971  18.325  0.00  0.00    +0.000 C 
BRANCH  15  16
ATOM     16  C   UNL     1       8.390   9.470  18.013  0.00  0.00    +0.000 C 
BRANCH  16  17
ATOM     17  S   UNL     1       9.275  10.365  19.355  0.00  0.00    +0.000 S 
BRANCH  17  18
ATOM     18  C   UNL     1       9.729  11.962  18.529  0.00  0.00    +0.000 C 
ATOM     19  C   UNL     1       8.577  12.453  17.647  0.00  0.00    +0.000 C 
ATOM     20  C   UNL     1       9.986  12.995  19.641  0.00  0.00    +0.000 C 
ATOM     21  C   UNL     1      11.010  11.799  17.704  0.00  0.00    +0.000 C 
ENDBRANCH  17  18
ENDBRANCH  16  17
ENDBRANCH  15  16
ENDBRANCH  13  15
ENDBRANCH   1  13
TORSDOF 7
ENDMDL
MODEL 4
REMARK VINA RESULT:      -6.1      1.098      1.453
REMARK  Name = 
REMARK  11 active torsions:
REMARK  status: ('A' for Active; 'I' for Inactive)
REMARK    1  A    between atoms: C_1  and  O_2
REMARK    2  A    between atoms: O_2  and  C_3
REMARK    3  A    between atoms: C_6  and  S_7
REMARK    4  A    between atoms: S_7  and  N_10
REMARK    5  A    between atoms: N_10  and  C_11
REMARK    6  A    between atoms: C_11  and  C_12
REMARK    7  A    between atoms: C_12  and  S_13
REMARK    8  A    between atoms: S_13  and  C_14
REMARK    9  A    between atoms: C_14  and  C_15
REMARK   10  A    between atoms: C_14  and  C_16
REMARK   11  A    between atoms: C_14  and  C_17
REMARK                            x       y       z     vdW  Elec       q    Type
REMARK                         _______ _______ _______ _____ _____    ______ ____
ROOT
ATOM      1  S   UNL     1       6.909   5.511  17.720  0.00  0.00    +0.000 S 
ATOM      2  O   UNL     1       7.592   4.533  18.544  0.00  0.00    +0.000 OA
ATOM      3  O   UNL     1       7.406   6.857  17.574  0.00  0.00    +0.000 OA
ENDROOT
BRANCH   1   7
ATOM      4  C   UNL     1       6.313   3.834  13.498  0.00  0.00    +0.000 A 
ATOM      5  C   UNL     1       5.562   3.341  14.583  0.00  0.00    +0.000 A 
ATOM      6  C   UNL     1       5.764   3.815  15.882  0.00  0.00    +0.000 A 
ATOM      7  C   UNL     1       6.733   4.794  16.111  0.00  0.00    +0.000 A 
ATOM      8  C   UNL     1       7.478   5.302  15.050  0.00  0.00    +0.000 A 
ATOM      9  C   UNL     1       7.266   4.834  13.741  0.00  0.00    +0.000 A 
ATOM     10 CL   UNL     1       8.165   5.658  12.519  0.00  0.00    +0.000 Cl
BRANCH   4  12
ATOM     11  C   UNL     1       4.551   3.479  11.915  0.00  0.00    +0.000 C 
ATOM     12  O   UNL     1       5.910   3.311  12.297  0.00  0.00    +0.000 OA
ENDBRANCH   4  12
ENDBRANCH   1   7
BRANCH   1  13
ATOM     13  N   UNL     1       5.326   5.600  18.294  0.00  0.00    +0.000 NA
ATOM     14  H   UNL     1       5.324   5.628  19.320  0.00  0.00    +0.000 HD
BRANCH  13  15
ATOM     15  C   UNL     1       4.448   6.592  17.656  0.00  0.00    +0.000 C 
BRANCH  15  16
ATOM     16  C   UNL     1       3.016   6.519  18.206  0.00  0.00    +0.000 C 
BRANCH  16  17
ATOM     17  S   UNL     1       2.938   5.463  19.711  0.00  0.00    +0.000 S 
BRANCH  17  18
ATOM     18  C   UNL     1       2.098   3.937  19.078  0.00  0.00    +0.000 C 
ATOM     19  C   UNL     1       0.945   3.539  20.005  0.00  0.00    +0.000 C 
ATOM     20  C   UNL     1       1.532   4.271  17.686  0.00  0.00    +0.000 C 
ATOM     21  C   UNL     1       3.100   2.787  18.937  0.00  0.00    +0.000 C 
ENDBRANCH  17  18
ENDBRANCH  16  17
ENDBRANCH  15  16
ENDBRANCH  13  15
ENDBRANCH   1  13
TORSDOF 7
ENDMDL
MODEL 5
REMARK VINA RESULT:      -6.0      4.552      5.752
REMARK  Name = 
REMARK  11 active torsions:
REMARK  status: ('A' for Active; 'I' for Inactive)
REMARK    1  A    between atoms: C_1  and  O_2
REMARK    2  A    between atoms: O_2  and  C_3
REMARK    3  A    between atoms: C_6  and  S_7
REMARK    4  A    between atoms: S_7  and  N_10
REMARK    5  A    between atoms: N_10  and  C_11
REMARK    6  A    between atoms: C_11  and  C_12
REMARK    7  A    between atoms: C_12  and  S_13
REMARK    8  A    between atoms: S_13  and  C_14
REMARK    9  A    between atoms: C_14  and  C_15
REMARK   10  A    between atoms: C_14  and  C_16
REMARK   11  A    between atoms: C_14  and  C_17
REMARK                            x       y       z     vdW  Elec       q    Type
REMARK                         _______ _______ _______ _____ _____    ______ ____
ROOT
ATOM      1  S   UNL     1       2.693   4.771  19.580  0.00  0.00    +0.000 S 
ATOM      2  O   UNL     1       1.580   4.598  18.666  0.00  0.00    +0.000 OA
ATOM      3  O   UNL     1       2.838   3.954  20.760  0.00  0.00    +0.000 OA
ENDROOT
BRANCH   1   7
ATOM      4  C   UNL     1       6.497   4.660  17.029  0.00  0.00    +0.000 A 
ATOM      5  C   UNL     1       5.271   4.195  16.516  0.00  0.00    +0.000 A 
ATOM      6  C   UNL     1       4.113   4.184  17.299  0.00  0.00    +0.000 A 
ATOM      7  C   UNL     1       4.173   4.641  18.616  0.00  0.00    +0.000 A 
ATOM      8  C   UNL     1       5.373   5.116  19.138  0.00  0.00    +0.000 A 
ATOM      9  C   UNL     1       6.535   5.138  18.347  0.00  0.00    +0.000 A 
ATOM     10 CL   UNL     1       7.906   5.883  19.087  0.00  0.00    +0.000 Cl
BRANCH   4  12
ATOM     11  C   UNL     1       7.123   4.836  14.723  0.00  0.00    +0.000 C 
ATOM     12  O   UNL     1       7.492   4.674  16.086  0.00  0.00    +0.000 OA
ENDBRANCH   4  12
ENDBRANCH   1   7
BRANCH   1  13
ATOM     13  N   UNL     1       2.670   6.385  20.063  0.00  0.00    +0.000 NA
ATOM     14  H   UNL     1       3.495   6.594  20.638  0.00  0.00    +0.000 HD
BRANCH  13  15
ATOM     15  C   UNL     1       2.389   7.383  19.019  0.00  0.00    +0.000 C 
BRANCH  15  16
ATOM     16  C   UNL     1       1.575   8.564  19.567  0.00  0.00    +0.000 C 
BRANCH  16  17
ATOM     17  S   UNL     1       1.351   9.865  18.285  0.00  0.00    +0.000 S 
BRANCH  17  18
ATOM     18  C   UNL     1      -0.206  10.702  18.842  0.00  0.00    +0.000 C 
ATOM     19  C   UNL     1      -0.516  10.338  20.298  0.00  0.00    +0.000 C 
ATOM     20  C   UNL     1       0.031  12.220  18.744  0.00  0.00    +0.000 C 
ATOM     21  C   UNL     1      -1.379  10.327  17.930  0.00  0.00    +0.000 C 
ENDBRANCH  17  18
ENDBRANCH  16  17
ENDBRANCH  15  16
ENDBRANCH  13  15
ENDBRANCH   1  13
TORSDOF 7
ENDMDL
MODEL 6
REMARK VINA RESULT:      -6.0      4.121      5.375
REMARK  Name = 
REMARK  11 active torsions:
REMARK  status: ('A' for Active; 'I' for Inactive)
REMARK    1  A    between atoms: C_1  and  O_2
REMARK    2  A    between atoms: O_2  and  C_3
REMARK    3  A    between atoms: C_6  and  S_7
REMARK    4  A    between atoms: S_7  and  N_10
REMARK    5  A    between atoms: N_10  and  C_11
REMARK    6  A    between atoms: C_11  and  C_12
REMARK    7  A    between atoms: C_12  and  S_13
REMARK    8  A    between atoms: S_13  and  C_14
REMARK    9  A    between atoms: C_14  and  C_15
REMARK   10  A    between atoms: C_14  and  C_16
REMARK   11  A    between atoms: C_14  and  C_17
REMARK                            x       y       z     vdW  Elec       q    Type
REMARK                         _______ _______ _______ _____ _____    ______ ____
ROOT
ATOM      1  S   UNL     1       2.928   3.773  19.338  0.00  0.00    +0.000 S 
ATOM      2  O   UNL     1       1.868   3.330  18.453  0.00  0.00    +0.000 OA
ATOM      3  O   UNL     1       3.292   3.025  20.517  0.00  0.00    +0.000 OA
ENDROOT
BRANCH   1   7
ATOM      4  C   UNL     1       6.607   4.562  16.722  0.00  0.00    +0.000 A 
ATOM      5  C   UNL     1       5.445   3.981  16.177  0.00  0.00    +0.000 A 
ATOM      6  C   UNL     1       4.333   3.696  16.974  0.00  0.00    +0.000 A 
ATOM      7  C   UNL     1       4.373   3.991  18.338  0.00  0.00    +0.000 A 
ATOM      8  C   UNL     1       5.507   4.577  18.894  0.00  0.00    +0.000 A 
ATOM      9  C   UNL     1       6.622   4.875  18.090  0.00  0.00    +0.000 A 
ATOM     10 CL   UNL     1       7.893   5.724  18.893  0.00  0.00    +0.000 Cl
BRANCH   4  12
ATOM     11  C   UNL     1       7.151   4.847  14.407  0.00  0.00    +0.000 C 
ATOM     12  O   UNL     1       7.552   4.844  15.770  0.00  0.00    +0.000 OA
ENDBRANCH   4  12
ENDBRANCH   1   7
BRANCH   1  13
ATOM     13  N   UNL     1       2.531   5.340  19.816  0.00  0.00    +0.000 NA
ATOM     14  H   UNL     1       3.103   5.618  20.621  0.00  0.00    +0.000 HD
BRANCH  13  15
ATOM     15  C   UNL     1       2.445   6.352  18.752  0.00  0.00    +0.000 C 
BRANCH  15  16
ATOM     16  C   UNL     1       2.196   7.755  19.323  0.00  0.00    +0.000 C 
BRANCH  16  17
ATOM     17  S   UNL     1       1.776   8.949  17.987  0.00  0.00    +0.000 S 
BRANCH  17  18
ATOM     18  C   UNL     1       0.774  10.218  18.894  0.00  0.00    +0.000 C 
ATOM     19  C   UNL     1       1.428  11.598  18.776  0.00  0.00    +0.000 C 
ATOM     20  C   UNL     1      -0.615  10.262  18.230  0.00  0.00    +0.000 C 
ATOM     21  C   UNL     1       0.604   9.823  20.364  0.00  0.00    +0.000 C 
ENDBRANCH  17  18
ENDBRANCH  16  17
ENDBRANCH  15  16
ENDBRANCH  13  15
ENDBRANCH   1  13
TORSDOF 7
ENDMDL
MODEL 7
REMARK VINA RESULT:      -6.0      0.867      1.047
REMARK  Name = 
REMARK  11 active torsions:
REMARK  status: ('A' for Active; 'I' for Inactive)
REMARK    1  A    between atoms: C_1  and  O_2
REMARK    2  A    between atoms: O_2  and  C_3
REMARK    3  A    between atoms: C_6  and  S_7
REMARK    4  A    between atoms: S_7  and  N_10
REMARK    5  A    between atoms: N_10  and  C_11
REMARK    6  A    between atoms: C_11  and  C_12
REMARK    7  A    between atoms: C_12  and  S_13
REMARK    8  A    between atoms: S_13  and  C_14
REMARK    9  A    between atoms: C_14  and  C_15
REMARK   10  A    between atoms: C_14  and  C_16
REMARK   11  A    between atoms: C_14  and  C_17
REMARK                            x       y       z     vdW  Elec       q    Type
REMARK                         _______ _______ _______ _____ _____    ______ ____
ROOT
ATOM      1  S   UNL     1       7.081   5.446  17.218  0.00  0.00    +0.000 S 
ATOM      2  O   UNL     1       7.772   4.445  18.008  0.00  0.00    +0.000 OA
ATOM      3  O   UNL     1       7.604   6.780  17.060  0.00  0.00    +0.000 OA
ENDROOT
BRANCH   1   7
ATOM      4  C   UNL     1       6.266   3.803  13.019  0.00  0.00    +0.000 A 
ATOM      5  C   UNL     1       5.615   3.261  14.144  0.00  0.00    +0.000 A 
ATOM      6  C   UNL     1       5.888   3.725  15.434  0.00  0.00    +0.000 A 
ATOM      7  C   UNL     1       6.824   4.744  15.612  0.00  0.00    +0.000 A 
ATOM      8  C   UNL     1       7.470   5.302  14.512  0.00  0.00    +0.000 A 
ATOM      9  C   UNL     1       7.187   4.843  13.213  0.00  0.00    +0.000 A 
ATOM     10 CL   UNL     1       7.960   5.725  11.945  0.00  0.00    +0.000 Cl
BRANCH   4  12
ATOM     11  C   UNL     1       4.402   3.304  11.599  0.00  0.00    +0.000 C 
ATOM     12  O   UNL     1       5.802   3.280  11.839  0.00  0.00    +0.000 OA
ENDBRANCH   4  12
ENDBRANCH   1   7
BRANCH   1  13
ATOM     13  N   UNL     1       5.525   5.568  17.855  0.00  0.00    +0.000 NA
ATOM     14  H   UNL     1       4.863   5.042  17.272  0.00  0.00    +0.000 HD
BRANCH  13  15
ATOM     15  C   UNL     1       5.383   5.333  19.300  0.00  0.00    +0.000 C 
BRANCH  15  16
ATOM     16  C   UNL     1       3.910   5.198  19.711  0.00  0.00    +0.000 C 
BRANCH  16  17
ATOM     17  S   UNL     1       2.890   4.560  18.318  0.00  0.00    +0.000 S 
BRANCH  17  18
ATOM     18  C   UNL     1       2.509   2.831  18.870  0.00  0.00    +0.000 C 
ATOM     19  C   UNL     1       3.369   1.824  18.100  0.00  0.00    +0.000 C 
ATOM     20  C   UNL     1       2.852   2.744  20.368  0.00  0.00    +0.000 C 
ATOM     21  C   UNL     1       1.020   2.521  18.688  0.00  0.00    +0.000 C 
ENDBRANCH  17  18
ENDBRANCH  16  17
ENDBRANCH  15  16
ENDBRANCH  13  15
ENDBRANCH   1  13
TORSDOF 7
ENDMDL
MODEL 8
REMARK VINA RESULT:      -5.9      0.900      1.209
REMARK  Name = 
REMARK  11 active torsions:
REMARK  status: ('A' for Active; 'I' for Inactive)
REMARK    1  A    between atoms: C_1  and  O_2
REMARK    2  A    between atoms: O_2  and  C_3
REMARK    3  A    between atoms: C_6  and  S_7
REMARK    4  A    between atoms: S_7  and  N_10
REMARK    5  A    between atoms: N_10  and  C_11
REMARK    6  A    between atoms: C_11  and  C_12
REMARK    7  A    between atoms: C_12  and  S_13
REMARK    8  A    between atoms: S_13  and  C_14
REMARK    9  A    between atoms: C_14  and  C_15
REMARK   10  A    between atoms: C_14  and  C_16
REMARK   11  A    between atoms: C_14  and  C_17
REMARK                            x       y       z     vdW  Elec       q    Type
REMARK                         _______ _______ _______ _____ _____    ______ ____
ROOT
ATOM      1  S   UNL     1       6.771   5.586  17.598  0.00  0.00    +0.000 S 
ATOM      2  O   UNL     1       7.364   4.559  18.433  0.00  0.00    +0.000 OA
ATOM      3  O   UNL     1       7.338   6.909  17.508  0.00  0.00    +0.000 OA
ENDROOT
BRANCH   1   7
ATOM      4  C   UNL     1       6.328   4.031  13.311  0.00  0.00    +0.000 A 
ATOM      5  C   UNL     1       5.458   3.596  14.330  0.00  0.00    +0.000 A 
ATOM      6  C   UNL     1       5.610   4.031  15.649  0.00  0.00    +0.000 A 
ATOM      7  C   UNL     1       6.646   4.911  15.966  0.00  0.00    +0.000 A 
ATOM      8  C   UNL     1       7.510   5.361  14.971  0.00  0.00    +0.000 A 
ATOM      9  C   UNL     1       7.350   4.934  13.641  0.00  0.00    +0.000 A 
ATOM     10 CL   UNL     1       8.408   5.686  12.503  0.00  0.00    +0.000 Cl
BRANCH   4  12
ATOM     11  C   UNL     1       4.629   3.120  11.889  0.00  0.00    +0.000 C 
ATOM     12  O   UNL     1       5.966   3.566  12.073  0.00  0.00    +0.000 OA
ENDBRANCH   4  12
ENDBRANCH   1   7
BRANCH   1  13
ATOM     13  N   UNL     1       5.167   5.739  18.092  0.00  0.00    +0.000 NA
ATOM     14  H   UNL     1       4.537   5.389  17.361  0.00  0.00    +0.000 HD
BRANCH  13  15
ATOM     15  C   UNL     1       4.846   5.267  19.449  0.00  0.00    +0.000 C 
BRANCH  15  16
ATOM     16  C   UNL     1       3.352   5.421  19.764  0.00  0.00    +0.000 C 
BRANCH  16  17
ATOM     17  S   UNL     1       2.317   4.580  18.496  0.00  0.00    +0.000 S 
BRANCH  17  18
ATOM     18  C   UNL     1       2.169   2.865  19.184  0.00  0.00    +0.000 C 
ATOM     19  C   UNL     1       2.203   2.900  20.716  0.00  0.00    +0.000 C 
ATOM     20  C   UNL     1       0.811   2.304  18.725  0.00  0.00    +0.000 C 
ATOM     21  C   UNL     1       3.283   1.965  18.638  0.00  0.00    +0.000 C 
ENDBRANCH  17  18
ENDBRANCH  16  17
ENDBRANCH  15  16
ENDBRANCH  13  15
ENDBRANCH   1  13
TORSDOF 7
ENDMDL
MODEL 9
REMARK VINA RESULT:      -5.9      0.537      1.137
REMARK  Name = 
REMARK  11 active torsions:
REMARK  status: ('A' for Active; 'I' for Inactive)
REMARK    1  A    between atoms: C_1  and  O_2
REMARK    2  A    between atoms: O_2  and  C_3
REMARK    3  A    between atoms: C_6  and  S_7
REMARK    4  A    between atoms: S_7  and  N_10
REMARK    5  A    between atoms: N_10  and  C_11
REMARK    6  A    between atoms: C_11  and  C_12
REMARK    7  A    between atoms: C_12  and  S_13
REMARK    8  A    between atoms: S_13  and  C_14
REMARK    9  A    between atoms: C_14  and  C_15
REMARK   10  A    between atoms: C_14  and  C_16
REMARK   11  A    between atoms: C_14  and  C_17
REMARK                            x       y       z     vdW  Elec       q    Type
REMARK                         _______ _______ _______ _____ _____    ______ ____
ROOT
ATOM      1  S   UNL     1       6.733   5.742  17.312  0.00  0.00    +0.000 S 
ATOM      2  O   UNL     1       7.632   4.905  18.082  0.00  0.00    +0.000 OA
ATOM      3  O   UNL     1       6.988   7.149  17.118  0.00  0.00    +0.000 OA
ENDROOT
BRANCH   1   7
ATOM      4  C   UNL     1       6.132   3.942  13.142  0.00  0.00    +0.000 A 
ATOM      5  C   UNL     1       5.324   3.542  14.223  0.00  0.00    +0.000 A 
ATOM      6  C   UNL     1       5.526   4.053  15.509  0.00  0.00    +0.000 A 
ATOM      7  C   UNL     1       6.550   4.976  15.726  0.00  0.00    +0.000 A 
ATOM      8  C   UNL     1       7.353   5.393  14.668  0.00  0.00    +0.000 A 
ATOM      9  C   UNL     1       7.142   4.889  13.373  0.00  0.00    +0.000 A 
ATOM     10 CL   UNL     1       8.122   5.604  12.144  0.00  0.00    +0.000 Cl
BRANCH   4  12
ATOM     11  C   UNL     1       5.919   2.008  11.745  0.00  0.00    +0.000 C 
ATOM     12  O   UNL     1       5.725   3.401  11.950  0.00  0.00    +0.000 OA
ENDBRANCH   4  12
ENDBRANCH   1   7
BRANCH   1  13
ATOM     13  N   UNL     1       5.209   5.582  18.013  0.00  0.00    +0.000 NA
ATOM     14  H   UNL     1       4.566   5.119  17.359  0.00  0.00    +0.000 HD
BRANCH  13  15
ATOM     15  C   UNL     1       5.166   5.051  19.385  0.00  0.00    +0.000 C 
BRANCH  15  16
ATOM     16  C   UNL     1       4.655   3.604  19.418  0.00  0.00    +0.000 C 
BRANCH  16  17
ATOM     17  S   UNL     1       2.926   3.526  20.044  0.00  0.00    +0.000 S 
BRANCH  17  18
ATOM     18  C   UNL     1       1.969   3.128  18.507  0.00  0.00    +0.000 C 
ATOM     19  C   UNL     1       1.708   4.401  17.695  0.00  0.00    +0.000 C 
ATOM     20  C   UNL     1       2.830   2.166  17.669  0.00  0.00    +0.000 C 
ATOM     21  C   UNL     1       0.651   2.430  18.856  0.00  0.00    +0.000 C 
ENDBRANCH  17  18
ENDBRANCH  16  17
ENDBRANCH  15  16
ENDBRANCH  13  15
ENDBRANCH   1  13
TORSDOF 7
ENDMDL
