MODEL 1
REMARK VINA RESULT:      -8.1      0.000      0.000
REMARK  Name = 
REMARK  5 active torsions:
REMARK  status: ('A' for Active; 'I' for Inactive)
REMARK    1  A    between atoms: C_1  and  N_2
REMARK    2  A    between atoms: N_2  and  C_3
REMARK    3  A    between atoms: N_2  and  C_10
REMARK    4  A    between atoms: C_3  and  C_4
REMARK    5  A    between atoms: N_18  and  C_19
REMARK                            x       y       z     vdW  Elec       q    Type
REMARK                         _______ _______ _______ _____ _____    ______ ____
ROOT
ATOM      1  C   UNL     1       2.392   6.743  19.451  0.00  0.00    +0.000 A 
ATOM      2  C   UNL     1       1.813   5.629  20.338  0.00  0.00    +0.000 A 
ATOM      3  C   UNL     1       2.055   4.308  19.855  0.00  0.00    +0.000 A 
ATOM      4  C   UNL     1       2.571   4.268  18.570  0.00  0.00    +0.000 A 
ATOM      5  C   UNL     1       3.677   5.012  18.544  0.00  0.00    +0.000 A 
ATOM      6  C   UNL     1       3.367   6.329  18.494  0.00  0.00    +0.000 A 
ATOM      7  C   UNL     1       4.004   6.536  17.198  0.00  0.00    +0.000 A 
ATOM      8  C   UNL     1       4.960   5.508  17.023  0.00  0.00    +0.000 A 
ATOM      9  N   UNL     1       5.016   4.923  18.269  0.00  0.00    +0.000 N 
ATOM     10  C   UNL     1       5.952   5.513  19.280  0.00  0.00    +0.000 C 
ATOM     11  C   UNL     1       1.806   3.309  17.778  0.00  0.00    +0.000 C 
ATOM     12  C   UNL     1       2.619   2.076  17.694  0.00  0.00    +0.000 C 
ATOM     13  C   UNL     1       2.764   1.849  19.242  0.00  0.00    +0.000 C 
ATOM     14  C   UNL     1       1.621   2.863  19.924  0.00  0.00    +0.000 C 
ATOM     15  O   UNL     1       0.768   2.877  18.754  0.00  0.00    +0.000 OA
ENDROOT
BRANCH   1  17
ATOM     16  C   UNL     1       1.389   8.503  20.815  0.00  0.00    +0.000 C 
ATOM     17  N   UNL     1       1.987   8.070  19.537  0.00  0.00    +0.000 N 
BRANCH  17  18
ATOM     18  C   UNL     1       2.019   9.037  18.474  0.00  0.00    +0.000 C 
BRANCH  18  19
ATOM     19  C   UNL     1       0.862  10.015  18.434  0.00  0.00    +0.000 A 
ATOM     20  C   UNL     1      -0.425   9.668  17.980  0.00  0.00    +0.000 A 
ATOM     21  C   UNL     1      -1.450  10.629  17.925  0.00  0.00    +0.000 A 
ATOM     22  C   UNL     1      -1.195  11.931  18.311  0.00  0.00    +0.000 A 
ATOM     23  C   UNL     1       0.063  12.300  18.782  0.00  0.00    +0.000 A 
ATOM     24  C   UNL     1       1.081  11.339  18.845  0.00  0.00    +0.000 A 
ENDBRANCH  18  19
ENDBRANCH  17  18
ENDBRANCH   1  17
TORSDOF 3
ENDMDL
MODEL 2
REMARK VINA RESULT:      -7.8      1.911      3.388
REMARK  Name = 
REMARK  5 active torsions:
REMARK  status: ('A' for Active; 'I' for Inactive)
REMARK    1  A    between atoms: C_1  and  N_2
REMARK    2  A    between atoms: N_2  and  C_3
REMARK    3  A    between atoms: N_2  and  C_10
REMARK    4  A    between atoms: C_3  and  C_4
REMARK    5  A    between atoms: N_18  and  C_19
REMARK                            x       y       z     vdW  Elec       q    Type
REMARK                         _______ _______ _______ _____ _____    ______ ____
ROOT
ATOM      1  C   UNL     1       2.363   7.430  19.085  0.00  0.00    +0.000 A 
ATOM      2  C   UNL     1       3.027   7.819  17.754  0.00  0.00    +0.000 A 
ATOM      3  C   UNL     1       4.005   6.887  17.291  0.00  0.00    +0.000 A 
ATOM      4  C   UNL     1       4.341   5.920  18.224  0.00  0.00    +0.000 A 
ATOM      5  C   UNL     1       3.221   5.307  18.607  0.00  0.00    +0.000 A 
ATOM      6  C   UNL     1       2.535   6.072  19.489  0.00  0.00    +0.000 A 
ATOM      7  C   UNL     1       2.641   5.101  20.573  0.00  0.00    +0.000 A 
ATOM      8  C   UNL     1       2.868   3.832  19.989  0.00  0.00    +0.000 A 
ATOM      9  N   UNL     1       2.644   4.065  18.649  0.00  0.00    +0.000 N 
ATOM     10  C   UNL     1       1.237   3.958  18.144  0.00  0.00    +0.000 C 
ATOM     11  C   UNL     1       5.795   5.828  18.315  0.00  0.00    +0.000 C 
ATOM     12  C   UNL     1       6.200   4.632  17.545  0.00  0.00    +0.000 C 
ATOM     13  C   UNL     1       5.543   5.061  16.184  0.00  0.00    +0.000 C 
ATOM     14  C   UNL     1       5.193   6.685  16.381  0.00  0.00    +0.000 C 
ATOM     15  O   UNL     1       6.221   6.904  17.377  0.00  0.00    +0.000 OA
ENDROOT
BRANCH   1  17
ATOM     16  C   UNL     1       0.978   7.788  21.065  0.00  0.00    +0.000 C 
ATOM     17  N   UNL     1       1.662   8.333  19.876  0.00  0.00    +0.000 N 
BRANCH  17  18
ATOM     18  C   UNL     1       1.473   9.732  19.602  0.00  0.00    +0.000 C 
BRANCH  18  19
ATOM     19  C   UNL     1       0.118  10.117  19.044  0.00  0.00    +0.000 A 
ATOM     20  C   UNL     1      -0.374   9.639  17.814  0.00  0.00    +0.000 A 
ATOM     21  C   UNL     1      -1.622  10.066  17.325  0.00  0.00    +0.000 A 
ATOM     22  C   UNL     1      -2.373  10.971  18.050  0.00  0.00    +0.000 A 
ATOM     23  C   UNL     1      -1.921  11.448  19.278  0.00  0.00    +0.000 A 
ATOM     24  C   UNL     1      -0.681  11.015  19.769  0.00  0.00    +0.000 A 
ENDBRANCH  18  19
ENDBRANCH  17  18
ENDBRANCH   1  17
TORSDOF 3
ENDMDL
MODEL 3
REMARK VINA RESULT:      -7.6      1.558      2.224
REMARK  Name = 
REMARK  5 active torsions:
REMARK  status: ('A' for Active; 'I' for Inactive)
REMARK    1  A    between atoms: C_1  and  N_2
REMARK    2  A    between atoms: N_2  and  C_3
REMARK    3  A    between atoms: N_2  and  C_10
REMARK    4  A    between atoms: C_3  and  C_4
REMARK    5  A    between atoms: N_18  and  C_19
REMARK                            x       y       z     vdW  Elec       q    Type
REMARK                         _______ _______ _______ _____ _____    ______ ____
ROOT
ATOM      1  C   UNL     1       2.237   6.597  20.013  0.00  0.00    +0.000 A 
ATOM      2  C   UNL     1       1.783   5.335  20.765  0.00  0.00    +0.000 A 
ATOM      3  C   UNL     1       2.015   4.116  20.060  0.00  0.00    +0.000 A 
ATOM      4  C   UNL     1       2.400   4.297  18.742  0.00  0.00    +0.000 A 
ATOM      5  C   UNL     1       3.476   5.084  18.730  0.00  0.00    +0.000 A 
ATOM      6  C   UNL     1       3.124   6.378  18.916  0.00  0.00    +0.000 A 
ATOM      7  C   UNL     1       3.622   6.810  17.614  0.00  0.00    +0.000 A 
ATOM      8  C   UNL     1       4.587   5.864  17.192  0.00  0.00    +0.000 A 
ATOM      9  N   UNL     1       4.783   5.098  18.320  0.00  0.00    +0.000 N 
ATOM     10  C   UNL     1       5.797   5.568  19.319  0.00  0.00    +0.000 C 
ATOM     11  C   UNL     1       1.590   3.437  17.885  0.00  0.00    +0.000 C 
ATOM     12  C   UNL     1       2.426   2.268  17.533  0.00  0.00    +0.000 C 
ATOM     13  C   UNL     1       2.731   1.814  19.005  0.00  0.00    +0.000 C 
ATOM     14  C   UNL     1       1.632   2.659  19.942  0.00  0.00    +0.000 C 
ATOM     15  O   UNL     1       0.667   2.814  18.873  0.00  0.00    +0.000 OA
ENDROOT
BRANCH   1  17
ATOM     16  C   UNL     1       1.398   8.751  19.226  0.00  0.00    +0.000 C 
ATOM     17  N   UNL     1       1.803   7.875  20.343  0.00  0.00    +0.000 N 
BRANCH  17  18
ATOM     18  C   UNL     1       1.788   8.452  21.660  0.00  0.00    +0.000 C 
BRANCH  18  19
ATOM     19  C   UNL     1       0.793   9.575  21.878  0.00  0.00    +0.000 A 
ATOM     20  C   UNL     1       0.812  10.775  21.143  0.00  0.00    +0.000 A 
ATOM     21  C   UNL     1      -0.111  11.800  21.419  0.00  0.00    +0.000 A 
ATOM     22  C   UNL     1      -1.041  11.636  22.427  0.00  0.00    +0.000 A 
ATOM     23  C   UNL     1      -1.096  10.453  23.160  0.00  0.00    +0.000 A 
ATOM     24  C   UNL     1      -0.182   9.429  22.877  0.00  0.00    +0.000 A 
ENDBRANCH  18  19
ENDBRANCH  17  18
ENDBRANCH   1  17
TORSDOF 3
ENDMDL
MODEL 4
REMARK VINA RESULT:      -7.6      0.757      1.438
REMARK  Name = 
REMARK  5 active torsions:
REMARK  status: ('A' for Active; 'I' for Inactive)
REMARK    1  A    between atoms: C_1  and  N_2
REMARK    2  A    between atoms: N_2  and  C_3
REMARK    3  A    between atoms: N_2  and  C_10
REMARK    4  A    between atoms: C_3  and  C_4
REMARK    5  A    between atoms: N_18  and  C_19
REMARK                            x       y       z     vdW  Elec       q    Type
REMARK                         _______ _______ _______ _____ _____    ______ ____
ROOT
ATOM      1  C   UNL     1       2.306   6.999  19.379  0.00  0.00    +0.000 A 
ATOM      2  C   UNL     1       1.727   6.209  20.565  0.00  0.00    +0.000 A 
ATOM      3  C   UNL     1       1.871   4.793  20.454  0.00  0.00    +0.000 A 
ATOM      4  C   UNL     1       2.302   4.371  19.207  0.00  0.00    +0.000 A 
ATOM      5  C   UNL     1       3.441   5.004  18.926  0.00  0.00    +0.000 A 
ATOM      6  C   UNL     1       3.196   6.275  18.529  0.00  0.00    +0.000 A 
ATOM      7  C   UNL     1       3.760   6.079  17.197  0.00  0.00    +0.000 A 
ATOM      8  C   UNL     1       4.650   4.981  17.269  0.00  0.00    +0.000 A 
ATOM      9  N   UNL     1       4.754   4.755  18.624  0.00  0.00    +0.000 N 
ATOM     10  C   UNL     1       5.780   5.536  19.388  0.00  0.00    +0.000 C 
ATOM     11  C   UNL     1       1.442   3.285  18.747  0.00  0.00    +0.000 C 
ATOM     12  C   UNL     1       2.184   2.024  18.969  0.00  0.00    +0.000 C 
ATOM     13  C   UNL     1       2.414   2.219  20.511  0.00  0.00    +0.000 C 
ATOM     14  C   UNL     1       1.369   3.454  20.938  0.00  0.00    +0.000 C 
ATOM     15  O   UNL     1       0.446   3.205  19.851  0.00  0.00    +0.000 OA
ENDROOT
BRANCH   1  17
ATOM     16  C   UNL     1       2.414   8.873  17.816  0.00  0.00    +0.000 C 
ATOM     17  N   UNL     1       1.974   8.322  19.114  0.00  0.00    +0.000 N 
BRANCH  17  18
ATOM     18  C   UNL     1       1.316   9.228  20.015  0.00  0.00    +0.000 C 
BRANCH  18  19
ATOM     19  C   UNL     1       0.510  10.336  19.365  0.00  0.00    +0.000 A 
ATOM     20  C   UNL     1       0.945  11.674  19.308  0.00  0.00    +0.000 A 
ATOM     21  C   UNL     1       0.135  12.668  18.731  0.00  0.00    +0.000 A 
ATOM     22  C   UNL     1      -1.106  12.335  18.222  0.00  0.00    +0.000 A 
ATOM     23  C   UNL     1      -1.556  11.018  18.248  0.00  0.00    +0.000 A 
ATOM     24  C   UNL     1      -0.744  10.026  18.815  0.00  0.00    +0.000 A 
ENDBRANCH  18  19
ENDBRANCH  17  18
ENDBRANCH   1  17
TORSDOF 3
ENDMDL
MODEL 5
REMARK VINA RESULT:      -7.5      2.058      3.814
REMARK  Name = 
REMARK  5 active torsions:
REMARK  status: ('A' for Active; 'I' for Inactive)
REMARK    1  A    between atoms: C_1  and  N_2
REMARK    2  A    between atoms: N_2  and  C_3
REMARK    3  A    between atoms: N_2  and  C_10
REMARK    4  A    between atoms: C_3  and  C_4
REMARK    5  A    between atoms: N_18  and  C_19
REMARK                            x       y       z     vdW  Elec       q    Type
REMARK                         _______ _______ _______ _____ _____    ______ ____
ROOT
ATOM      1  C   UNL     1       3.243   6.872  18.206  0.00  0.00    +0.000 A 
ATOM      2  C   UNL     1       4.256   7.251  17.112  0.00  0.00    +0.000 A 
ATOM      3  C   UNL     1       5.431   6.440  17.093  0.00  0.00    +0.000 A 
ATOM      4  C   UNL     1       5.552   5.606  18.194  0.00  0.00    +0.000 A 
ATOM      5  C   UNL     1       4.446   4.867  18.277  0.00  0.00    +0.000 A 
ATOM      6  C   UNL     1       3.428   5.588  18.803  0.00  0.00    +0.000 A 
ATOM      7  C   UNL     1       3.285   4.729  19.973  0.00  0.00    +0.000 A 
ATOM      8  C   UNL     1       3.834   3.467  19.645  0.00  0.00    +0.000 A 
ATOM      9  N   UNL     1       4.034   3.561  18.285  0.00  0.00    +0.000 N 
ATOM     10  C   UNL     1       2.890   3.210  17.382  0.00  0.00    +0.000 C 
ATOM     11  C   UNL     1       6.898   5.736  18.745  0.00  0.00    +0.000 C 
ATOM     12  C   UNL     1       7.666   4.557  18.289  0.00  0.00    +0.000 C 
ATOM     13  C   UNL     1       7.443   4.780  16.749  0.00  0.00    +0.000 C 
ATOM     14  C   UNL     1       6.865   6.345  16.631  0.00  0.00    +0.000 C 
ATOM     15  O   UNL     1       7.480   6.788  17.866  0.00  0.00    +0.000 OA
ENDROOT
BRANCH   1  17
ATOM     16  C   UNL     1       1.954   7.773  20.074  0.00  0.00    +0.000 C 
ATOM     17  N   UNL     1       2.225   7.720  18.624  0.00  0.00    +0.000 N 
BRANCH  17  18
ATOM     18  C   UNL     1       1.357   8.488  17.772  0.00  0.00    +0.000 C 
BRANCH  18  19
ATOM     19  C   UNL     1       1.150   9.935  18.173  0.00  0.00    +0.000 A 
ATOM     20  C   UNL     1       2.180  10.896  18.152  0.00  0.00    +0.000 A 
ATOM     21  C   UNL     1       1.939  12.215  18.576  0.00  0.00    +0.000 A 
ATOM     22  C   UNL     1       0.684  12.575  19.028  0.00  0.00    +0.000 A 
ATOM     23  C   UNL     1      -0.358  11.652  19.044  0.00  0.00    +0.000 A 
ATOM     24  C   UNL     1      -0.120  10.339  18.612  0.00  0.00    +0.000 A 
ENDBRANCH  18  19
ENDBRANCH  17  18
ENDBRANCH   1  17
TORSDOF 3
ENDMDL
MODEL 6
REMARK VINA RESULT:      -7.5      2.257      3.952
REMARK  Name = 
REMARK  5 active torsions:
REMARK  status: ('A' for Active; 'I' for Inactive)
REMARK    1  A    between atoms: C_1  and  N_2
REMARK    2  A    between atoms: N_2  and  C_3
REMARK    3  A    between atoms: N_2  and  C_10
REMARK    4  A    between atoms: C_3  and  C_4
REMARK    5  A    between atoms: N_18  and  C_19
REMARK                            x       y       z     vdW  Elec       q    Type
REMARK                         _______ _______ _______ _____ _____    ______ ____
ROOT
ATOM      1  C   UNL     1       2.422   7.369  18.909  0.00  0.00    +0.000 A 
ATOM      2  C   UNL     1       3.206   7.705  17.630  0.00  0.00    +0.000 A 
ATOM      3  C   UNL     1       4.213   6.753  17.291  0.00  0.00    +0.000 A 
ATOM      4  C   UNL     1       4.457   5.819  18.285  0.00  0.00    +0.000 A 
ATOM      5  C   UNL     1       3.303   5.226  18.588  0.00  0.00    +0.000 A 
ATOM      6  C   UNL     1       2.546   6.026  19.377  0.00  0.00    +0.000 A 
ATOM      7  C   UNL     1       2.548   5.095  20.501  0.00  0.00    +0.000 A 
ATOM      8  C   UNL     1       2.816   3.805  19.986  0.00  0.00    +0.000 A 
ATOM      9  N   UNL     1       2.715   3.989  18.624  0.00  0.00    +0.000 N 
ATOM     10  C   UNL     1       1.359   3.869  17.999  0.00  0.00    +0.000 C 
ATOM     11  C   UNL     1       5.897   5.725  18.509  0.00  0.00    +0.000 C 
ATOM     12  C   UNL     1       6.360   4.499  17.823  0.00  0.00    +0.000 C 
ATOM     13  C   UNL     1       5.830   4.880  16.394  0.00  0.00    +0.000 C 
ATOM     14  C   UNL     1       5.476   6.512  16.499  0.00  0.00    +0.000 C 
ATOM     15  O   UNL     1       6.413   6.763  17.575  0.00  0.00    +0.000 OA
ENDROOT
BRANCH   1  17
ATOM     16  C   UNL     1       1.066   9.398  18.807  0.00  0.00    +0.000 C 
ATOM     17  N   UNL     1       1.660   8.304  19.600  0.00  0.00    +0.000 N 
BRANCH  17  18
ATOM     18  C   UNL     1       1.463   8.352  21.023  0.00  0.00    +0.000 C 
BRANCH  18  19
ATOM     19  C   UNL     1       0.654   9.526  21.539  0.00  0.00    +0.000 A 
ATOM     20  C   UNL     1       0.805  10.839  21.052  0.00  0.00    +0.000 A 
ATOM     21  C   UNL     1       0.057  11.897  21.599  0.00  0.00    +0.000 A 
ATOM     22  C   UNL     1      -0.830  11.653  22.630  0.00  0.00    +0.000 A 
ATOM     23  C   UNL     1      -1.013  10.363  23.121  0.00  0.00    +0.000 A 
ATOM     24  C   UNL     1      -0.274   9.307  22.569  0.00  0.00    +0.000 A 
ENDBRANCH  18  19
ENDBRANCH  17  18
ENDBRANCH   1  17
TORSDOF 3
ENDMDL
MODEL 7
REMARK VINA RESULT:      -7.4      2.042      3.655
REMARK  Name = 
REMARK  5 active torsions:
REMARK  status: ('A' for Active; 'I' for Inactive)
REMARK    1  A    between atoms: C_1  and  N_2
REMARK    2  A    between atoms: N_2  and  C_3
REMARK    3  A    between atoms: N_2  and  C_10
REMARK    4  A    between atoms: C_3  and  C_4
REMARK    5  A    between atoms: N_18  and  C_19
REMARK                            x       y       z     vdW  Elec       q    Type
REMARK                         _______ _______ _______ _____ _____    ______ ____
ROOT
ATOM      1  C   UNL     1       2.362   7.427  18.911  0.00  0.00    +0.000 A 
ATOM      2  C   UNL     1       3.160   7.792  17.647  0.00  0.00    +0.000 A 
ATOM      3  C   UNL     1       4.176   6.852  17.303  0.00  0.00    +0.000 A 
ATOM      4  C   UNL     1       4.413   5.900  18.282  0.00  0.00    +0.000 A 
ATOM      5  C   UNL     1       3.258   5.295  18.559  0.00  0.00    +0.000 A 
ATOM      6  C   UNL     1       2.488   6.076  19.353  0.00  0.00    +0.000 A 
ATOM      7  C   UNL     1       2.480   5.123  20.459  0.00  0.00    +0.000 A 
ATOM      8  C   UNL     1       2.762   3.845  19.922  0.00  0.00    +0.000 A 
ATOM      9  N   UNL     1       2.677   4.055  18.562  0.00  0.00    +0.000 N 
ATOM     10  C   UNL     1       1.328   3.941  17.919  0.00  0.00    +0.000 C 
ATOM     11  C   UNL     1       5.850   5.808  18.522  0.00  0.00    +0.000 C 
ATOM     12  C   UNL     1       6.328   4.598  17.818  0.00  0.00    +0.000 C 
ATOM     13  C   UNL     1       5.814   5.005  16.390  0.00  0.00    +0.000 C 
ATOM     14  C   UNL     1       5.451   6.633  16.522  0.00  0.00    +0.000 C 
ATOM     15  O   UNL     1       6.372   6.867  17.614  0.00  0.00    +0.000 OA
ENDROOT
BRANCH   1  17
ATOM     16  C   UNL     1       1.535   8.193  21.078  0.00  0.00    +0.000 C 
ATOM     17  N   UNL     1       1.587   8.345  19.610  0.00  0.00    +0.000 N 
BRANCH  17  18
ATOM     18  C   UNL     1       0.767   9.375  19.034  0.00  0.00    +0.000 C 
BRANCH  18  19
ATOM     19  C   UNL     1       1.306  10.788  19.146  0.00  0.00    +0.000 A 
ATOM     20  C   UNL     1       0.998  11.649  20.216  0.00  0.00    +0.000 A 
ATOM     21  C   UNL     1       1.493  12.965  20.244  0.00  0.00    +0.000 A 
ATOM     22  C   UNL     1       2.284  13.425  19.209  0.00  0.00    +0.000 A 
ATOM     23  C   UNL     1       2.620  12.592  18.145  0.00  0.00    +0.000 A 
ATOM     24  C   UNL     1       2.133  11.277  18.123  0.00  0.00    +0.000 A 
ENDBRANCH  18  19
ENDBRANCH  17  18
ENDBRANCH   1  17
TORSDOF 3
ENDMDL
MODEL 8
REMARK VINA RESULT:      -7.4      2.039      3.741
REMARK  Name = 
REMARK  5 active torsions:
REMARK  status: ('A' for Active; 'I' for Inactive)
REMARK    1  A    between atoms: C_1  and  N_2
REMARK    2  A    between atoms: N_2  and  C_3
REMARK    3  A    between atoms: N_2  and  C_10
REMARK    4  A    between atoms: C_3  and  C_4
REMARK    5  A    between atoms: N_18  and  C_19
REMARK                            x       y       z     vdW  Elec       q    Type
REMARK                         _______ _______ _______ _____ _____    ______ ____
ROOT
ATOM      1  C   UNL     1       2.870   5.661  19.082  0.00  0.00    +0.000 A 
ATOM      2  C   UNL     1       3.235   6.446  17.811  0.00  0.00    +0.000 A 
ATOM      3  C   UNL     1       4.346   5.914  17.091  0.00  0.00    +0.000 A 
ATOM      4  C   UNL     1       5.035   4.925  17.775  0.00  0.00    +0.000 A 
ATOM      5  C   UNL     1       4.166   3.973  18.111  0.00  0.00    +0.000 A 
ATOM      6  C   UNL     1       3.430   4.351  19.183  0.00  0.00    +0.000 A 
ATOM      7  C   UNL     1       3.919   3.270  20.032  0.00  0.00    +0.000 A 
ATOM      8  C   UNL     1       4.380   2.236  19.183  0.00  0.00    +0.000 A 
ATOM      9  N   UNL     1       3.932   2.633  17.941  0.00  0.00    +0.000 N 
ATOM     10  C   UNL     1       2.544   2.237  17.538  0.00  0.00    +0.000 C 
ATOM     11  C   UNL     1       6.464   5.220  17.730  0.00  0.00    +0.000 C 
ATOM     12  C   UNL     1       7.053   4.336  16.701  0.00  0.00    +0.000 C 
ATOM     13  C   UNL     1       6.137   4.804  15.514  0.00  0.00    +0.000 C 
ATOM     14  C   UNL     1       5.417   6.209  16.068  0.00  0.00    +0.000 C 
ATOM     15  O   UNL     1       6.478   6.519  17.003  0.00  0.00    +0.000 OA
ENDROOT
BRANCH   1  17
ATOM     16  C   UNL     1       0.953   5.343  20.562  0.00  0.00    +0.000 C 
ATOM     17  N   UNL     1       2.074   6.183  20.095  0.00  0.00    +0.000 N 
BRANCH  17  18
ATOM     18  C   UNL     1       2.188   7.494  20.673  0.00  0.00    +0.000 C 
BRANCH  18  19
ATOM     19  C   UNL     1       1.262   8.550  20.102  0.00  0.00    +0.000 A 
ATOM     20  C   UNL     1       1.339   9.006  18.773  0.00  0.00    +0.000 A 
ATOM     21  C   UNL     1       0.481  10.020  18.311  0.00  0.00    +0.000 A 
ATOM     22  C   UNL     1      -0.443  10.584  19.169  0.00  0.00    +0.000 A 
ATOM     23  C   UNL     1      -0.555  10.142  20.485  0.00  0.00    +0.000 A 
ATOM     24  C   UNL     1       0.295   9.125  20.942  0.00  0.00    +0.000 A 
ENDBRANCH  18  19
ENDBRANCH  17  18
ENDBRANCH   1  17
TORSDOF 3
ENDMDL
MODEL 9
REMARK VINA RESULT:      -7.4      2.078      3.686
REMARK  Name = 
REMARK  5 active torsions:
REMARK  status: ('A' for Active; 'I' for Inactive)
REMARK    1  A    between atoms: C_1  and  N_2
REMARK    2  A    between atoms: N_2  and  C_3
REMARK    3  A    between atoms: N_2  and  C_10
REMARK    4  A    between atoms: C_3  and  C_4
REMARK    5  A    between atoms: N_18  and  C_19
REMARK                            x       y       z     vdW  Elec       q    Type
REMARK                         _______ _______ _______ _____ _____    ______ ____
ROOT
ATOM      1  C   UNL     1       3.360   7.070  17.935  0.00  0.00    +0.000 A 
ATOM      2  C   UNL     1       4.170   7.275  16.644  0.00  0.00    +0.000 A 
ATOM      3  C   UNL     1       5.259   6.367  16.483  0.00  0.00    +0.000 A 
ATOM      4  C   UNL     1       5.530   5.613  17.614  0.00  0.00    +0.000 A 
ATOM      5  C   UNL     1       4.411   4.981  17.967  0.00  0.00    +0.000 A 
ATOM      6  C   UNL     1       3.565   5.824  18.603  0.00  0.00    +0.000 A 
ATOM      7  C   UNL     1       3.588   5.073  19.854  0.00  0.00    +0.000 A 
ATOM      8  C   UNL     1       3.974   3.747  19.547  0.00  0.00    +0.000 A 
ATOM      9  N   UNL     1       3.918   3.719  18.170  0.00  0.00    +0.000 N 
ATOM     10  C   UNL     1       2.601   3.400  17.530  0.00  0.00    +0.000 C 
ATOM     11  C   UNL     1       6.962   5.669  17.893  0.00  0.00    +0.000 C 
ATOM     12  C   UNL     1       7.544   4.396  17.414  0.00  0.00    +0.000 C 
ATOM     13  C   UNL     1       7.048   4.519  15.928  0.00  0.00    +0.000 C 
ATOM     14  C   UNL     1       6.569   6.114  15.776  0.00  0.00    +0.000 C 
ATOM     15  O   UNL     1       7.438   6.596  16.830  0.00  0.00    +0.000 OA
ENDROOT
BRANCH   1  17
ATOM     16  C   UNL     1       1.891   7.743  19.767  0.00  0.00    +0.000 C 
ATOM     17  N   UNL     1       2.502   8.032  18.454  0.00  0.00    +0.000 N 
BRANCH  17  18
ATOM     18  C   UNL     1       2.089   9.243  17.798  0.00  0.00    +0.000 C 
BRANCH  18  19
ATOM     19  C   UNL     1       0.852   9.911  18.363  0.00  0.00    +0.000 A 
ATOM     20  C   UNL     1      -0.447   9.667  17.876  0.00  0.00    +0.000 A 
ATOM     21  C   UNL     1      -1.554  10.350  18.410  0.00  0.00    +0.000 A 
ATOM     22  C   UNL     1      -1.371  11.277  19.418  0.00  0.00    +0.000 A 
ATOM     23  C   UNL     1      -0.101  11.528  19.932  0.00  0.00    +0.000 A 
ATOM     24  C   UNL     1       1.001  10.840  19.405  0.00  0.00    +0.000 A 
ENDBRANCH  18  19
ENDBRANCH  17  18
ENDBRANCH   1  17
TORSDOF 3
ENDMDL
