MODEL 1
REMARK VINA RESULT:      -7.4      0.000      0.000
REMARK  Name = 
REMARK  4 active torsions:
REMARK  status: ('A' for Active; 'I' for Inactive)
REMARK    1  A    between atoms: C_1  and  N_2
REMARK    2  A    between atoms: C_7  and  C_8
REMARK    3  A    between atoms: C_8  and  C_9
REMARK    4  A    between atoms: C_15  and  C_17
REMARK                            x       y       z     vdW  Elec       q    Type
REMARK                         _______ _______ _______ _____ _____    ______ ____
ROOT
ATOM      1  C   UNL     1       2.776   6.526  19.029  0.00  0.00    +0.000 C 
ATOM      2  C   UNL     1       2.000   6.425  20.353  0.00  0.00    +0.000 C 
ATOM      3  O   UNL     1       1.888   5.100  20.872  0.00  0.00    +0.000 OA
ATOM      4  C   UNL     1       0.949   4.315  20.141  0.00  0.00    +0.000 C 
ATOM      5  C   UNL     1       1.647   3.444  19.094  0.00  0.00    +0.000 C 
ATOM      6  N   UNL     1       2.706   4.123  18.338  0.00  0.00    +0.000 N 
ATOM      7  C   UNL     1       3.768   3.329  17.863  0.00  0.00    +0.000 C 
ATOM      8  O   UNL     1       3.733   2.109  18.048  0.00  0.00    +0.000 OA
ATOM      9  C   UNL     1       2.417   5.498  17.937  0.00  0.00    +0.000 C 
ENDROOT
BRANCH   7  10
ATOM     10  C   UNL     1       4.886   3.940  17.155  0.00  0.00    +0.000 A 
ATOM     11  C   UNL     1       5.162   4.135  15.815  0.00  0.00    +0.000 A 
ATOM     12  N   UNL     1       6.349   4.774  15.510  0.00  0.00    +0.000 NA
ATOM     13  C   UNL     1       6.944   5.119  16.630  0.00  0.00    +0.000 A 
ATOM     14  S   UNL     1       6.143   4.685  18.076  0.00  0.00    +0.000 S 
ENDBRANCH   7  10
BRANCH   1  15
ATOM     15  C   UNL     1       2.750   7.970  18.467  0.00  0.00    +0.000 C 
BRANCH  15  22
ATOM     16  C   UNL     1       0.701   9.325  22.718  0.00  0.00    +0.000 C 
ATOM     17  N   UNL     1      -0.195   9.952  21.762  0.00  0.00    +0.000 N 
ATOM     18  C   UNL     1       0.137   9.729  20.415  0.00  0.00    +0.000 A 
ATOM     19  C   UNL     1      -0.693  10.261  19.435  0.00  0.00    +0.000 A 
ATOM     20  C   UNL     1      -0.403  10.026  18.093  0.00  0.00    +0.000 A 
ATOM     21  C   UNL     1       0.715   9.272  17.760  0.00  0.00    +0.000 A 
ATOM     22  C   UNL     1       1.516   8.785  18.784  0.00  0.00    +0.000 A 
ATOM     23  N   UNL     1       1.217   8.993  20.090  0.00  0.00    +0.000 NA
ATOM     24  H   UNL     1      -0.283  10.953  21.918  0.00  0.00    +0.000 HD
ENDBRANCH  15  22
ENDBRANCH   1  15
TORSDOF 3
ENDMDL
MODEL 2
REMARK VINA RESULT:      -7.4      1.864      2.306
REMARK  Name = 
REMARK  4 active torsions:
REMARK  status: ('A' for Active; 'I' for Inactive)
REMARK    1  A    between atoms: C_1  and  N_2
REMARK    2  A    between atoms: C_7  and  C_8
REMARK    3  A    between atoms: C_8  and  C_9
REMARK    4  A    between atoms: C_15  and  C_17
REMARK                            x       y       z     vdW  Elec       q    Type
REMARK                         _______ _______ _______ _____ _____    ______ ____
ROOT
ATOM      1  C   UNL     1       2.639   7.310  18.594  0.00  0.00    +0.000 C 
ATOM      2  C   UNL     1       1.865   7.536  19.904  0.00  0.00    +0.000 C 
ATOM      3  O   UNL     1       2.180   6.609  20.943  0.00  0.00    +0.000 OA
ATOM      4  C   UNL     1       1.610   5.324  20.706  0.00  0.00    +0.000 C 
ATOM      5  C   UNL     1       2.624   4.374  20.064  0.00  0.00    +0.000 C 
ATOM      6  N   UNL     1       3.432   4.972  18.994  0.00  0.00    +0.000 N 
ATOM      7  C   UNL     1       4.727   4.454  18.800  0.00  0.00    +0.000 C 
ATOM      8  O   UNL     1       5.098   3.496  19.486  0.00  0.00    +0.000 OA
ATOM      9  C   UNL     1       2.716   5.858  18.079  0.00  0.00    +0.000 C 
ENDROOT
BRANCH   7  10
ATOM     10  C   UNL     1       5.610   5.034  17.797  0.00  0.00    +0.000 A 
ATOM     11  C   UNL     1       6.505   6.087  17.822  0.00  0.00    +0.000 A 
ATOM     12  N   UNL     1       7.190   6.351  16.650  0.00  0.00    +0.000 NA
ATOM     13  C   UNL     1       6.855   5.451  15.753  0.00  0.00    +0.000 A 
ATOM     14  S   UNL     1       5.709   4.283  16.245  0.00  0.00    +0.000 S 
ENDBRANCH   7  10
BRANCH   1  15
ATOM     15  C   UNL     1       2.156   8.273  17.479  0.00  0.00    +0.000 C 
BRANCH  15  22
ATOM     16  C   UNL     1      -2.527   9.709  17.814  0.00  0.00    +0.000 C 
ATOM     17  N   UNL     1      -1.837  10.880  18.324  0.00  0.00    +0.000 N 
ATOM     18  C   UNL     1      -0.436  10.772  18.344  0.00  0.00    +0.000 A 
ATOM     19  C   UNL     1       0.303  11.865  18.781  0.00  0.00    +0.000 A 
ATOM     20  C   UNL     1       1.694  11.794  18.779  0.00  0.00    +0.000 A 
ATOM     21  C   UNL     1       2.315  10.629  18.348  0.00  0.00    +0.000 A 
ATOM     22  C   UNL     1       1.522   9.564  17.944  0.00  0.00    +0.000 A 
ATOM     23  N   UNL     1       0.168   9.645  17.922  0.00  0.00    +0.000 NA
ATOM     24  H   UNL     1      -2.160  11.141  19.252  0.00  0.00    +0.000 HD
ENDBRANCH  15  22
ENDBRANCH   1  15
TORSDOF 3
ENDMDL
MODEL 3
REMARK VINA RESULT:      -7.2      0.981      1.849
REMARK  Name = 
REMARK  4 active torsions:
REMARK  status: ('A' for Active; 'I' for Inactive)
REMARK    1  A    between atoms: C_1  and  N_2
REMARK    2  A    between atoms: C_7  and  C_8
REMARK    3  A    between atoms: C_8  and  C_9
REMARK    4  A    between atoms: C_15  and  C_17
REMARK                            x       y       z     vdW  Elec       q    Type
REMARK                         _______ _______ _______ _____ _____    ______ ____
ROOT
ATOM      1  C   UNL     1       2.480   6.130  19.406  0.00  0.00    +0.000 C 
ATOM      2  C   UNL     1       1.664   5.759  20.657  0.00  0.00    +0.000 C 
ATOM      3  O   UNL     1       1.627   4.362  20.944  0.00  0.00    +0.000 OA
ATOM      4  C   UNL     1       0.773   3.652  20.049  0.00  0.00    +0.000 C 
ATOM      5  C   UNL     1       1.570   3.015  18.907  0.00  0.00    +0.000 C 
ATOM      6  N   UNL     1       2.605   3.878  18.326  0.00  0.00    +0.000 N 
ATOM      7  C   UNL     1       3.737   3.243  17.778  0.00  0.00    +0.000 C 
ATOM      8  O   UNL     1       3.781   2.010  17.757  0.00  0.00    +0.000 OA
ATOM      9  C   UNL     1       2.234   5.279  18.144  0.00  0.00    +0.000 C 
ENDROOT
BRANCH   7  10
ATOM     10  C   UNL     1       4.835   4.034  17.236  0.00  0.00    +0.000 A 
ATOM     11  C   UNL     1       5.158   4.449  15.957  0.00  0.00    +0.000 A 
ATOM     12  N   UNL     1       6.303   5.212  15.820  0.00  0.00    +0.000 NA
ATOM     13  C   UNL     1       6.813   5.425  17.012  0.00  0.00    +0.000 A 
ATOM     14  S   UNL     1       5.981   4.721  18.328  0.00  0.00    +0.000 S 
ENDBRANCH   7  10
BRANCH   1  15
ATOM     15  C   UNL     1       2.372   7.644  19.090  0.00  0.00    +0.000 C 
BRANCH  15  22
ATOM     16  C   UNL     1      -1.166  10.926  18.192  0.00  0.00    +0.000 C 
ATOM     17  N   UNL     1      -1.183  10.885  19.643  0.00  0.00    +0.000 N 
ATOM     18  C   UNL     1      -0.242  10.012  20.215  0.00  0.00    +0.000 A 
ATOM     19  C   UNL     1      -0.165   9.942  21.601  0.00  0.00    +0.000 A 
ATOM     20  C   UNL     1       0.782   9.110  22.192  0.00  0.00    +0.000 A 
ATOM     21  C   UNL     1       1.625   8.357  21.384  0.00  0.00    +0.000 A 
ATOM     22  C   UNL     1       1.485   8.454  20.006  0.00  0.00    +0.000 A 
ATOM     23  N   UNL     1       0.580   9.286  19.434  0.00  0.00    +0.000 NA
ATOM     24  H   UNL     1      -2.105  10.662  20.009  0.00  0.00    +0.000 HD
ENDBRANCH  15  22
ENDBRANCH   1  15
TORSDOF 3
ENDMDL
MODEL 4
REMARK VINA RESULT:      -7.2      1.903      2.518
REMARK  Name = 
REMARK  4 active torsions:
REMARK  status: ('A' for Active; 'I' for Inactive)
REMARK    1  A    between atoms: C_1  and  N_2
REMARK    2  A    between atoms: C_7  and  C_8
REMARK    3  A    between atoms: C_8  and  C_9
REMARK    4  A    between atoms: C_15  and  C_17
REMARK                            x       y       z     vdW  Elec       q    Type
REMARK                         _______ _______ _______ _____ _____    ______ ____
ROOT
ATOM      1  C   UNL     1       2.509   7.364  19.053  0.00  0.00    +0.000 C 
ATOM      2  C   UNL     1       1.505   7.126  20.194  0.00  0.00    +0.000 C 
ATOM      3  O   UNL     1       1.774   5.968  20.984  0.00  0.00    +0.000 OA
ATOM      4  C   UNL     1       1.440   4.762  20.299  0.00  0.00    +0.000 C 
ATOM      5  C   UNL     1       2.672   4.138  19.640  0.00  0.00    +0.000 C 
ATOM      6  N   UNL     1       3.551   5.092  18.954  0.00  0.00    +0.000 N 
ATOM      7  C   UNL     1       4.921   4.772  18.889  0.00  0.00    +0.000 C 
ATOM      8  O   UNL     1       5.307   3.694  19.349  0.00  0.00    +0.000 OA
ATOM      9  C   UNL     1       2.877   6.140  18.191  0.00  0.00    +0.000 C 
ENDROOT
BRANCH   7  10
ATOM     10  C   UNL     1       5.866   5.698  18.277  0.00  0.00    +0.000 A 
ATOM     11  C   UNL     1       5.768   6.588  17.224  0.00  0.00    +0.000 A 
ATOM     12  N   UNL     1       6.900   7.323  16.923  0.00  0.00    +0.000 NA
ATOM     13  C   UNL     1       7.839   7.030  17.795  0.00  0.00    +0.000 A 
ATOM     14  S   UNL     1       7.434   5.867  18.979  0.00  0.00    +0.000 S 
ENDBRANCH   7  10
BRANCH   1  15
ATOM     15  C   UNL     1       2.084   8.563  18.168  0.00  0.00    +0.000 C 
BRANCH  15  22
ATOM     16  C   UNL     1      -2.334   9.962  16.548  0.00  0.00    +0.000 C 
ATOM     17  N   UNL     1      -2.268  10.659  17.820  0.00  0.00    +0.000 N 
ATOM     18  C   UNL     1      -1.077  10.456  18.538  0.00  0.00    +0.000 A 
ATOM     19  C   UNL     1      -0.916  11.119  19.749  0.00  0.00    +0.000 A 
ATOM     20  C   UNL     1       0.269  10.960  20.462  0.00  0.00    +0.000 A 
ATOM     21  C   UNL     1       1.263  10.134  19.955  0.00  0.00    +0.000 A 
ATOM     22  C   UNL     1       1.034   9.482  18.751  0.00  0.00    +0.000 A 
ATOM     23  N   UNL     1      -0.110   9.660  18.045  0.00  0.00    +0.000 NA
ATOM     24  H   UNL     1      -3.057  10.436  18.421  0.00  0.00    +0.000 HD
ENDBRANCH  15  22
ENDBRANCH   1  15
TORSDOF 3
ENDMDL
MODEL 5
REMARK VINA RESULT:      -7.2      1.524      2.081
REMARK  Name = 
REMARK  4 active torsions:
REMARK  status: ('A' for Active; 'I' for Inactive)
REMARK    1  A    between atoms: C_1  and  N_2
REMARK    2  A    between atoms: C_7  and  C_8
REMARK    3  A    between atoms: C_8  and  C_9
REMARK    4  A    between atoms: C_15  and  C_17
REMARK                            x       y       z     vdW  Elec       q    Type
REMARK                         _______ _______ _______ _____ _____    ______ ____
ROOT
ATOM      1  C   UNL     1       2.447   5.080  20.246  0.00  0.00    +0.000 C 
ATOM      2  C   UNL     1       1.870   3.965  21.136  0.00  0.00    +0.000 C 
ATOM      3  O   UNL     1       2.123   2.642  20.663  0.00  0.00    +0.000 OA
ATOM      4  C   UNL     1       1.311   2.309  19.540  0.00  0.00    +0.000 C 
ATOM      5  C   UNL     1       2.066   2.521  18.225  0.00  0.00    +0.000 C 
ATOM      6  N   UNL     1       2.849   3.761  18.160  0.00  0.00    +0.000 N 
ATOM      7  C   UNL     1       4.003   3.751  17.352  0.00  0.00    +0.000 C 
ATOM      8  O   UNL     1       4.268   2.738  16.699  0.00  0.00    +0.000 OA
ATOM      9  C   UNL     1       2.209   4.945  18.728  0.00  0.00    +0.000 C 
ENDROOT
BRANCH   7  10
ATOM     10  C   UNL     1       4.863   4.925  17.283  0.00  0.00    +0.000 A 
ATOM     11  C   UNL     1       5.007   5.937  16.352  0.00  0.00    +0.000 A 
ATOM     12  N   UNL     1       5.945   6.912  16.632  0.00  0.00    +0.000 NA
ATOM     13  C   UNL     1       6.470   6.667  17.812  0.00  0.00    +0.000 A 
ATOM     14  S   UNL     1       5.898   5.275  18.619  0.00  0.00    +0.000 S 
ENDBRANCH   7  10
BRANCH   1  15
ATOM     15  C   UNL     1       2.027   6.483  20.755  0.00  0.00    +0.000 C 
BRANCH  15  22
ATOM     16  C   UNL     1      -0.484  10.695  20.534  0.00  0.00    +0.000 C 
ATOM     17  N   UNL     1       0.275  10.756  19.298  0.00  0.00    +0.000 N 
ATOM     18  C   UNL     1       1.109   9.648  19.067  0.00  0.00    +0.000 A 
ATOM     19  C   UNL     1       1.841   9.608  17.886  0.00  0.00    +0.000 A 
ATOM     20  C   UNL     1       2.648   8.505  17.620  0.00  0.00    +0.000 A 
ATOM     21  C   UNL     1       2.714   7.471  18.544  0.00  0.00    +0.000 A 
ATOM     22  C   UNL     1       1.976   7.579  19.715  0.00  0.00    +0.000 A 
ATOM     23  N   UNL     1       1.169   8.642  19.960  0.00  0.00    +0.000 NA
ATOM     24  H   UNL     1       0.830  11.605  19.229  0.00  0.00    +0.000 HD
ENDBRANCH  15  22
ENDBRANCH   1  15
TORSDOF 3
ENDMDL
MODEL 6
REMARK VINA RESULT:      -7.1      7.241     10.694
REMARK  Name = 
REMARK  4 active torsions:
REMARK  status: ('A' for Active; 'I' for Inactive)
REMARK    1  A    between atoms: C_1  and  N_2
REMARK    2  A    between atoms: C_7  and  C_8
REMARK    3  A    between atoms: C_8  and  C_9
REMARK    4  A    between atoms: C_15  and  C_17
REMARK                            x       y       z     vdW  Elec       q    Type
REMARK                         _______ _______ _______ _____ _____    ______ ____
ROOT
ATOM      1  C   UNL     1      -3.321  12.550  21.637  0.00  0.00    +0.000 C 
ATOM      2  C   UNL     1      -2.728  12.195  23.012  0.00  0.00    +0.000 C 
ATOM      3  O   UNL     1      -3.695  11.824  23.994  0.00  0.00    +0.000 OA
ATOM      4  C   UNL     1      -4.421  12.949  24.483  0.00  0.00    +0.000 C 
ATOM      5  C   UNL     1      -5.763  13.101  23.762  0.00  0.00    +0.000 C 
ATOM      6  N   UNL     1      -5.705  12.904  22.309  0.00  0.00    +0.000 N 
ATOM      7  C   UNL     1      -6.863  12.405  21.681  0.00  0.00    +0.000 C 
ATOM      8  O   UNL     1      -7.877  12.216  22.358  0.00  0.00    +0.000 OA
ATOM      9  C   UNL     1      -4.547  13.487  21.636  0.00  0.00    +0.000 C 
ENDROOT
BRANCH   7  10
ATOM     10  C   UNL     1      -6.863  12.127  20.250  0.00  0.00    +0.000 A 
ATOM     11  C   UNL     1      -6.517  11.016  19.504  0.00  0.00    +0.000 A 
ATOM     12  N   UNL     1      -6.657  11.119  18.132  0.00  0.00    +0.000 NA
ATOM     13  C   UNL     1      -7.170  12.295  17.847  0.00  0.00    +0.000 A 
ATOM     14  S   UNL     1      -7.483  13.325  19.173  0.00  0.00    +0.000 S 
ENDBRANCH   7  10
BRANCH   1  15
ATOM     15  C   UNL     1      -2.228  13.059  20.664  0.00  0.00    +0.000 C 
BRANCH  15  22
ATOM     16  C   UNL     1      -3.207  11.076  16.281  0.00  0.00    +0.000 C 
ATOM     17  N   UNL     1      -1.978  10.388  16.632  0.00  0.00    +0.000 N 
ATOM     18  C   UNL     1      -1.440  10.749  17.880  0.00  0.00    +0.000 A 
ATOM     19  C   UNL     1      -0.284  10.108  18.309  0.00  0.00    +0.000 A 
ATOM     20  C   UNL     1       0.249  10.424  19.557  0.00  0.00    +0.000 A 
ATOM     21  C   UNL     1      -0.379  11.382  20.342  0.00  0.00    +0.000 A 
ATOM     22  C   UNL     1      -1.519  12.002  19.848  0.00  0.00    +0.000 A 
ATOM     23  N   UNL     1      -2.051  11.673  18.645  0.00  0.00    +0.000 NA
ATOM     24  H   UNL     1      -1.260  10.498  15.920  0.00  0.00    +0.000 HD
ENDBRANCH  15  22
ENDBRANCH   1  15
TORSDOF 3
ENDMDL
MODEL 7
REMARK VINA RESULT:      -7.1      1.836      2.069
REMARK  Name = 
REMARK  4 active torsions:
REMARK  status: ('A' for Active; 'I' for Inactive)
REMARK    1  A    between atoms: C_1  and  N_2
REMARK    2  A    between atoms: C_7  and  C_8
REMARK    3  A    between atoms: C_8  and  C_9
REMARK    4  A    between atoms: C_15  and  C_17
REMARK                            x       y       z     vdW  Elec       q    Type
REMARK                         _______ _______ _______ _____ _____    ______ ____
ROOT
ATOM      1  C   UNL     1       2.606   7.619  18.683  0.00  0.00    +0.000 C 
ATOM      2  C   UNL     1       1.837   7.832  19.998  0.00  0.00    +0.000 C 
ATOM      3  O   UNL     1       2.026   6.801  20.966  0.00  0.00    +0.000 OA
ATOM      4  C   UNL     1       1.320   5.610  20.626  0.00  0.00    +0.000 C 
ATOM      5  C   UNL     1       2.233   4.602  19.925  0.00  0.00    +0.000 C 
ATOM      6  N   UNL     1       3.123   5.182  18.912  0.00  0.00    +0.000 N 
ATOM      7  C   UNL     1       4.356   4.536  18.693  0.00  0.00    +0.000 C 
ATOM      8  O   UNL     1       4.604   3.495  19.308  0.00  0.00    +0.000 OA
ATOM      9  C   UNL     1       2.530   6.210  18.060  0.00  0.00    +0.000 C 
ENDROOT
BRANCH   7  10
ATOM     10  C   UNL     1       5.318   5.086  17.746  0.00  0.00    +0.000 A 
ATOM     11  C   UNL     1       6.177   6.167  17.794  0.00  0.00    +0.000 A 
ATOM     12  N   UNL     1       6.967   6.385  16.680  0.00  0.00    +0.000 NA
ATOM     13  C   UNL     1       6.745   5.424  15.811  0.00  0.00    +0.000 A 
ATOM     14  S   UNL     1       5.589   4.249  16.260  0.00  0.00    +0.000 S 
ENDBRANCH   7  10
BRANCH   1  15
ATOM     15  C   UNL     1       2.255   8.710  17.640  0.00  0.00    +0.000 C 
BRANCH  15  22
ATOM     16  C   UNL     1       2.366  13.112  19.810  0.00  0.00    +0.000 C 
ATOM     17  N   UNL     1       0.941  12.946  19.585  0.00  0.00    +0.000 N 
ATOM     18  C   UNL     1       0.583  11.735  18.967  0.00  0.00    +0.000 A 
ATOM     19  C   UNL     1      -0.766  11.479  18.751  0.00  0.00    +0.000 A 
ATOM     20  C   UNL     1      -1.147  10.273  18.170  0.00  0.00    +0.000 A 
ATOM     21  C   UNL     1      -0.172   9.353  17.808  0.00  0.00    +0.000 A 
ATOM     22  C   UNL     1       1.160   9.676  18.030  0.00  0.00    +0.000 A 
ATOM     23  N   UNL     1       1.527  10.841  18.620  0.00  0.00    +0.000 NA
ATOM     24  H   UNL     1       0.544  13.717  19.055  0.00  0.00    +0.000 HD
ENDBRANCH  15  22
ENDBRANCH   1  15
TORSDOF 3
ENDMDL
MODEL 8
REMARK VINA RESULT:      -7.1      2.278      4.074
REMARK  Name = 
REMARK  4 active torsions:
REMARK  status: ('A' for Active; 'I' for Inactive)
REMARK    1  A    between atoms: C_1  and  N_2
REMARK    2  A    between atoms: C_7  and  C_8
REMARK    3  A    between atoms: C_8  and  C_9
REMARK    4  A    between atoms: C_15  and  C_17
REMARK                            x       y       z     vdW  Elec       q    Type
REMARK                         _______ _______ _______ _____ _____    ______ ____
ROOT
ATOM      1  C   UNL     1       3.966   6.420  17.518  0.00  0.00    +0.000 C 
ATOM      2  C   UNL     1       5.115   6.630  16.516  0.00  0.00    +0.000 C 
ATOM      3  O   UNL     1       6.116   5.614  16.544  0.00  0.00    +0.000 OA
ATOM      4  C   UNL     1       6.958   5.720  17.690  0.00  0.00    +0.000 C 
ATOM      5  C   UNL     1       6.501   4.776  18.805  0.00  0.00    +0.000 C 
ATOM      6  N   UNL     1       5.050   4.741  19.023  0.00  0.00    +0.000 N 
ATOM      7  C   UNL     1       4.502   3.540  19.513  0.00  0.00    +0.000 C 
ATOM      8  O   UNL     1       5.259   2.605  19.791  0.00  0.00    +0.000 OA
ATOM      9  C   UNL     1       4.367   6.031  18.956  0.00  0.00    +0.000 C 
ENDROOT
BRANCH   7  10
ATOM     10  C   UNL     1       3.062   3.408  19.699  0.00  0.00    +0.000 A 
ATOM     11  C   UNL     1       2.012   3.202  18.824  0.00  0.00    +0.000 A 
ATOM     12  N   UNL     1       0.747   3.122  19.378  0.00  0.00    +0.000 NA
ATOM     13  C   UNL     1       0.852   3.206  20.685  0.00  0.00    +0.000 A 
ATOM     14  S   UNL     1       2.431   3.405  21.306  0.00  0.00    +0.000 S 
ENDBRANCH   7  10
BRANCH   1  15
ATOM     15  C   UNL     1       2.987   7.621  17.516  0.00  0.00    +0.000 C 
BRANCH  15  22
ATOM     16  C   UNL     1       0.726  11.598  19.298  0.00  0.00    +0.000 C 
ATOM     17  N   UNL     1       0.468  10.634  20.351  0.00  0.00    +0.000 N 
ATOM     18  C   UNL     1       1.017   9.359  20.126  0.00  0.00    +0.000 A 
ATOM     19  C   UNL     1       0.850   8.387  21.105  0.00  0.00    +0.000 A 
ATOM     20  C   UNL     1       1.413   7.127  20.919  0.00  0.00    +0.000 A 
ATOM     21  C   UNL     1       2.121   6.863  19.754  0.00  0.00    +0.000 A 
ATOM     22  C   UNL     1       2.235   7.869  18.804  0.00  0.00    +0.000 A 
ATOM     23  N   UNL     1       1.709   9.103  19.000  0.00  0.00    +0.000 NA
ATOM     24  H   UNL     1      -0.524  10.534  20.546  0.00  0.00    +0.000 HD
ENDBRANCH  15  22
ENDBRANCH   1  15
TORSDOF 3
ENDMDL
MODEL 9
REMARK VINA RESULT:      -7.1      2.638      6.678
REMARK  Name = 
REMARK  4 active torsions:
REMARK  status: ('A' for Active; 'I' for Inactive)
REMARK    1  A    between atoms: C_1  and  N_2
REMARK    2  A    between atoms: C_7  and  C_8
REMARK    3  A    between atoms: C_8  and  C_9
REMARK    4  A    between atoms: C_15  and  C_17
REMARK                            x       y       z     vdW  Elec       q    Type
REMARK                         _______ _______ _______ _____ _____    ______ ____
ROOT
ATOM      1  C   UNL     1       2.853   6.619  17.965  0.00  0.00    +0.000 C 
ATOM      2  C   UNL     1       2.597   5.115  17.769  0.00  0.00    +0.000 C 
ATOM      3  O   UNL     1       1.638   4.558  18.668  0.00  0.00    +0.000 OA
ATOM      4  C   UNL     1       2.164   4.402  19.984  0.00  0.00    +0.000 C 
ATOM      5  C   UNL     1       1.769   5.577  20.883  0.00  0.00    +0.000 C 
ATOM      6  N   UNL     1       1.882   6.897  20.253  0.00  0.00    +0.000 N 
ATOM      7  C   UNL     1       1.003   7.902  20.702  0.00  0.00    +0.000 C 
ATOM      8  O   UNL     1       0.230   7.650  21.631  0.00  0.00    +0.000 OA
ATOM      9  C   UNL     1       3.061   7.101  19.415  0.00  0.00    +0.000 C 
ENDROOT
BRANCH   7  10
ATOM     10  C   UNL     1       1.015   9.222  20.084  0.00  0.00    +0.000 A 
ATOM     11  C   UNL     1       1.085   9.649  18.772  0.00  0.00    +0.000 A 
ATOM     12  N   UNL     1       1.065  11.016  18.560  0.00  0.00    +0.000 NA
ATOM     13  C   UNL     1       0.917  11.620  19.717  0.00  0.00    +0.000 A 
ATOM     14  S   UNL     1       0.820  10.610  21.091  0.00  0.00    +0.000 S 
ENDBRANCH   7  10
BRANCH   1  15
ATOM     15  C   UNL     1       3.991   7.123  17.040  0.00  0.00    +0.000 C 
BRANCH  15  22
ATOM     16  C   UNL     1       7.790   5.539  19.716  0.00  0.00    +0.000 C 
ATOM     17  N   UNL     1       7.964   4.769  18.498  0.00  0.00    +0.000 N 
ATOM     18  C   UNL     1       7.002   5.019  17.504  0.00  0.00    +0.000 A 
ATOM     19  C   UNL     1       7.119   4.352  16.290  0.00  0.00    +0.000 A 
ATOM     20  C   UNL     1       6.197   4.608  15.278  0.00  0.00    +0.000 A 
ATOM     21  C   UNL     1       5.173   5.517  15.505  0.00  0.00    +0.000 A 
ATOM     22  C   UNL     1       5.097   6.135  16.746  0.00  0.00    +0.000 A 
ATOM     23  N   UNL     1       6.011   5.905  17.720  0.00  0.00    +0.000 NA
ATOM     24  H   UNL     1       7.999   3.769  18.678  0.00  0.00    +0.000 HD
ENDBRANCH  15  22
ENDBRANCH   1  15
TORSDOF 3
ENDMDL
