MODEL 1
REMARK VINA RESULT:      -7.3      0.000      0.000
REMARK  Name = 
REMARK  5 active torsions:
REMARK  status: ('A' for Active; 'I' for Inactive)
REMARK    1  A    between atoms: C_1  and  C_2
REMARK    2  A    between atoms: C_2  and  O_3
REMARK    3  A    between atoms: O_3  and  C_4
REMARK    4  A    between atoms: C_7  and  C_8
REMARK    5  A    between atoms: C_21  and  C_23
REMARK                            x       y       z     vdW  Elec       q    Type
REMARK                         _______ _______ _______ _____ _____    ______ ____
ROOT
ATOM      1  C   UNL     1      -2.208  13.806  21.696  0.00  0.00    +0.000 C 
ATOM      2  C   UNL     1      -1.839  14.793  22.761  0.00  0.00    +0.000 A 
ATOM      3  N   UNL     1      -0.940  15.822  22.643  0.00  0.00    +0.000 N 
ATOM      4  C   UNL     1      -0.681  16.355  23.893  0.00  0.00    +0.000 A 
ATOM      5  C   UNL     1       0.249  17.320  24.294  0.00  0.00    +0.000 A 
ATOM      6  C   UNL     1       0.334  17.606  25.663  0.00  0.00    +0.000 A 
ATOM      7  C   UNL     1      -0.506  16.985  26.584  0.00  0.00    +0.000 A 
ATOM      8  C   UNL     1      -1.459  16.054  26.163  0.00  0.00    +0.000 A 
ATOM      9  C   UNL     1      -1.529  15.717  24.800  0.00  0.00    +0.000 A 
ATOM     10  C   UNL     1      -2.282  14.777  24.064  0.00  0.00    +0.000 A 
ATOM     11  C   UNL     1      -3.311  13.809  24.483  0.00  0.00    +0.000 C 
ATOM     12  C   UNL     1      -4.217  13.529  23.279  0.00  0.00    +0.000 C 
ATOM     13  N   UNL     1      -3.527  13.147  22.018  0.00  0.00    +0.000 N 
ATOM     14  C   UNL     1      -4.428  12.602  21.061  0.00  0.00    +0.000 C 
ATOM     15  O   UNL     1      -5.626  12.505  21.354  0.00  0.00    +0.000 OA
ATOM     16  H   UNL     1      -0.453  16.093  21.800  0.00  0.00    +0.000 HD
ENDROOT
BRANCH  14  17
ATOM     17  C   UNL     1      -4.003  12.129  19.747  0.00  0.00    +0.000 A 
ATOM     18  C   UNL     1      -4.740  12.210  18.565  0.00  0.00    +0.000 A 
ATOM     19  C   UNL     1      -4.056  11.518  17.527  0.00  0.00    +0.000 A 
ATOM     20  C   UNL     1      -4.316  11.238  16.172  0.00  0.00    +0.000 A 
ATOM     21  C   UNL     1      -3.398  10.466  15.449  0.00  0.00    +0.000 A 
ATOM     22 CL   UNL     1      -3.723  10.082  13.802  0.00  0.00    +0.000 Cl
ATOM     23  C   UNL     1      -2.231   9.993  16.039  0.00  0.00    +0.000 A 
ATOM     24  C   UNL     1      -1.946  10.285  17.374  0.00  0.00    +0.000 A 
ATOM     25  C   UNL     1      -2.892  11.021  18.093  0.00  0.00    +0.000 A 
ATOM     26  N   UNL     1      -2.929  11.342  19.426  0.00  0.00    +0.000 N 
ATOM     27  H   UNL     1      -2.293  10.945  20.090  0.00  0.00    +0.000 HD
ENDBRANCH  14  17
BRANCH   1  31
ATOM     28  C   UNL     1       0.326  10.576  20.606  0.00  0.00    +0.000 A 
ATOM     29  C   UNL     1      -0.345  10.493  21.827  0.00  0.00    +0.000 A 
ATOM     30  C   UNL     1      -1.052  11.596  22.300  0.00  0.00    +0.000 A 
ATOM     31  C   UNL     1      -1.075  12.784  21.550  0.00  0.00    +0.000 A 
ATOM     32  C   UNL     1      -0.122  12.945  20.529  0.00  0.00    +0.000 A 
ATOM     33  C   UNL     1       0.568  11.829  20.044  0.00  0.00    +0.000 A 
BRANCH  28  34
ATOM     34  O   UNL     1       0.635   9.476  19.836  0.00  0.00    +0.000 OA
BRANCH  34  36
ATOM     35  C   UNL     1       1.758   8.594  17.832  0.00  0.00    +0.000 C 
ATOM     36  C   UNL     1       1.434   9.811  18.683  0.00  0.00    +0.000 C 
ENDBRANCH  34  36
ENDBRANCH  28  34
ENDBRANCH   1  31
TORSDOF 4
ENDMDL
MODEL 2
REMARK VINA RESULT:      -7.3      3.326      5.740
REMARK  Name = 
REMARK  5 active torsions:
REMARK  status: ('A' for Active; 'I' for Inactive)
REMARK    1  A    between atoms: C_1  and  C_2
REMARK    2  A    between atoms: C_2  and  O_3
REMARK    3  A    between atoms: O_3  and  C_4
REMARK    4  A    between atoms: C_7  and  C_8
REMARK    5  A    between atoms: C_21  and  C_23
REMARK                            x       y       z     vdW  Elec       q    Type
REMARK                         _______ _______ _______ _____ _____    ______ ____
ROOT
ATOM      1  C   UNL     1      -2.615  12.241  20.798  0.00  0.00    +0.000 C 
ATOM      2  C   UNL     1      -3.779  12.894  21.480  0.00  0.00    +0.000 A 
ATOM      3  N   UNL     1      -4.775  12.262  22.177  0.00  0.00    +0.000 N 
ATOM      4  C   UNL     1      -5.794  13.158  22.444  0.00  0.00    +0.000 A 
ATOM      5  C   UNL     1      -7.058  12.956  23.010  0.00  0.00    +0.000 A 
ATOM      6  C   UNL     1      -7.917  14.061  23.084  0.00  0.00    +0.000 A 
ATOM      7  C   UNL     1      -7.511  15.321  22.653  0.00  0.00    +0.000 A 
ATOM      8  C   UNL     1      -6.231  15.516  22.130  0.00  0.00    +0.000 A 
ATOM      9  C   UNL     1      -5.369  14.413  22.002  0.00  0.00    +0.000 A 
ATOM     10  C   UNL     1      -4.084  14.235  21.445  0.00  0.00    +0.000 A 
ATOM     11  C   UNL     1      -3.157  15.189  20.809  0.00  0.00    +0.000 C 
ATOM     12  C   UNL     1      -1.733  14.651  20.979  0.00  0.00    +0.000 C 
ATOM     13  N   UNL     1      -1.513  13.242  20.556  0.00  0.00    +0.000 N 
ATOM     14  C   UNL     1      -0.129  12.928  20.445  0.00  0.00    +0.000 C 
ATOM     15  O   UNL     1       0.706  13.806  20.697  0.00  0.00    +0.000 OA
ATOM     16  H   UNL     1      -4.823  11.273  22.383  0.00  0.00    +0.000 HD
ENDROOT
BRANCH  14  17
ATOM     17  C   UNL     1       0.359  11.619  20.027  0.00  0.00    +0.000 A 
ATOM     18  C   UNL     1       0.507  10.496  20.843  0.00  0.00    +0.000 A 
ATOM     19  C   UNL     1       1.141   9.454  20.111  0.00  0.00    +0.000 A 
ATOM     20  C   UNL     1       1.569   8.144  20.403  0.00  0.00    +0.000 A 
ATOM     21  C   UNL     1       2.215   7.402  19.406  0.00  0.00    +0.000 A 
ATOM     22 CL   UNL     1       2.779   5.814  19.761  0.00  0.00    +0.000 Cl
ATOM     23  C   UNL     1       2.420   7.927  18.135  0.00  0.00    +0.000 A 
ATOM     24  C   UNL     1       1.977   9.213  17.821  0.00  0.00    +0.000 A 
ATOM     25  C   UNL     1       1.372   9.957  18.839  0.00  0.00    +0.000 A 
ATOM     26  N   UNL     1       0.960  11.264  18.848  0.00  0.00    +0.000 N 
ATOM     27  H   UNL     1       1.182  11.900  18.106  0.00  0.00    +0.000 HD
ENDBRANCH  14  17
BRANCH   1  31
ATOM     28  C   UNL     1      -3.379  11.139  16.768  0.00  0.00    +0.000 A 
ATOM     29  C   UNL     1      -4.381  11.825  17.456  0.00  0.00    +0.000 A 
ATOM     30  C   UNL     1      -4.242  12.058  18.823  0.00  0.00    +0.000 A 
ATOM     31  C   UNL     1      -3.100  11.593  19.496  0.00  0.00    +0.000 A 
ATOM     32  C   UNL     1      -2.302  10.624  18.863  0.00  0.00    +0.000 A 
ATOM     33  C   UNL     1      -2.432  10.411  17.488  0.00  0.00    +0.000 A 
BRANCH  28  34
ATOM     34  O   UNL     1      -3.173  11.263  15.411  0.00  0.00    +0.000 OA
BRANCH  34  36
ATOM     35  C   UNL     1      -3.854   9.907  13.473  0.00  0.00    +0.000 C 
ATOM     36  C   UNL     1      -3.035   9.987  14.751  0.00  0.00    +0.000 C 
ENDBRANCH  34  36
ENDBRANCH  28  34
ENDBRANCH   1  31
TORSDOF 4
ENDMDL
MODEL 3
REMARK VINA RESULT:      -7.3      3.412      7.504
REMARK  Name = 
REMARK  5 active torsions:
REMARK  status: ('A' for Active; 'I' for Inactive)
REMARK    1  A    between atoms: C_1  and  C_2
REMARK    2  A    between atoms: C_2  and  O_3
REMARK    3  A    between atoms: O_3  and  C_4
REMARK    4  A    between atoms: C_7  and  C_8
REMARK    5  A    between atoms: C_21  and  C_23
REMARK                            x       y       z     vdW  Elec       q    Type
REMARK                         _______ _______ _______ _____ _____    ______ ____
ROOT
ATOM      1  C   UNL     1       0.039  10.701  19.952  0.00  0.00    +0.000 C 
ATOM      2  C   UNL     1       1.032   9.627  19.626  0.00  0.00    +0.000 A 
ATOM      3  N   UNL     1       1.896   9.612  18.561  0.00  0.00    +0.000 N 
ATOM      4  C   UNL     1       2.474   8.360  18.452  0.00  0.00    +0.000 A 
ATOM      5  C   UNL     1       3.309   7.827  17.464  0.00  0.00    +0.000 A 
ATOM      6  C   UNL     1       3.679   6.482  17.588  0.00  0.00    +0.000 A 
ATOM      7  C   UNL     1       3.268   5.716  18.676  0.00  0.00    +0.000 A 
ATOM      8  C   UNL     1       2.469   6.274  19.677  0.00  0.00    +0.000 A 
ATOM      9  C   UNL     1       2.046   7.609  19.549  0.00  0.00    +0.000 A 
ATOM     10  C   UNL     1       1.183   8.437  20.299  0.00  0.00    +0.000 A 
ATOM     11  C   UNL     1       0.422   8.185  21.536  0.00  0.00    +0.000 C 
ATOM     12  C   UNL     1       0.199   9.529  22.237  0.00  0.00    +0.000 C 
ATOM     13  N   UNL     1      -0.379  10.613  21.399  0.00  0.00    +0.000 N 
ATOM     14  C   UNL     1      -0.847  11.704  22.186  0.00  0.00    +0.000 C 
ATOM     15  O   UNL     1      -0.732  11.646  23.416  0.00  0.00    +0.000 OA
ATOM     16  H   UNL     1       2.024  10.355  17.888  0.00  0.00    +0.000 HD
ENDROOT
BRANCH  14  17
ATOM     17  C   UNL     1      -1.476  12.888  21.611  0.00  0.00    +0.000 A 
ATOM     18  C   UNL     1      -0.817  13.968  21.024  0.00  0.00    +0.000 A 
ATOM     19  C   UNL     1      -1.757  14.988  20.710  0.00  0.00    +0.000 A 
ATOM     20  C   UNL     1      -1.683  16.280  20.153  0.00  0.00    +0.000 A 
ATOM     21  C   UNL     1      -2.856  17.035  20.029  0.00  0.00    +0.000 A 
ATOM     22 CL   UNL     1      -2.774  18.631  19.387  0.00  0.00    +0.000 Cl
ATOM     23  C   UNL     1      -4.087  16.525  20.425  0.00  0.00    +0.000 A 
ATOM     24  C   UNL     1      -4.182  15.236  20.952  0.00  0.00    +0.000 A 
ATOM     25  C   UNL     1      -2.997  14.511  21.109  0.00  0.00    +0.000 A 
ATOM     26  N   UNL     1      -2.781  13.294  21.702  0.00  0.00    +0.000 N 
ATOM     27  H   UNL     1      -3.490  12.824  22.232  0.00  0.00    +0.000 HD
ENDBRANCH  14  17
BRANCH   1  31
ATOM     28  C   UNL     1      -2.680  10.869  16.693  0.00  0.00    +0.000 A 
ATOM     29  C   UNL     1      -2.921  11.704  17.785  0.00  0.00    +0.000 A 
ATOM     30  C   UNL     1      -2.156  11.563  18.941  0.00  0.00    +0.000 A 
ATOM     31  C   UNL     1      -1.156  10.578  19.000  0.00  0.00    +0.000 A 
ATOM     32  C   UNL     1      -1.178   9.550  18.042  0.00  0.00    +0.000 A 
ATOM     33  C   UNL     1      -1.931   9.707  16.874  0.00  0.00    +0.000 A 
BRANCH  28  34
ATOM     34  O   UNL     1      -3.010  11.204  15.398  0.00  0.00    +0.000 OA
BRANCH  34  36
ATOM     35  C   UNL     1      -4.138   9.996  13.574  0.00  0.00    +0.000 C 
ATOM     36  C   UNL     1      -2.932  10.081  14.496  0.00  0.00    +0.000 C 
ENDBRANCH  34  36
ENDBRANCH  28  34
ENDBRANCH   1  31
TORSDOF 4
ENDMDL
MODEL 4
REMARK VINA RESULT:      -7.3      2.837      5.433
REMARK  Name = 
REMARK  5 active torsions:
REMARK  status: ('A' for Active; 'I' for Inactive)
REMARK    1  A    between atoms: C_1  and  C_2
REMARK    2  A    between atoms: C_2  and  O_3
REMARK    3  A    between atoms: O_3  and  C_4
REMARK    4  A    between atoms: C_7  and  C_8
REMARK    5  A    between atoms: C_21  and  C_23
REMARK                            x       y       z     vdW  Elec       q    Type
REMARK                         _______ _______ _______ _____ _____    ______ ____
ROOT
ATOM      1  C   UNL     1      -2.521  12.504  21.453  0.00  0.00    +0.000 C 
ATOM      2  C   UNL     1      -3.705  13.043  22.197  0.00  0.00    +0.000 A 
ATOM      3  N   UNL     1      -4.841  12.352  22.531  0.00  0.00    +0.000 N 
ATOM      4  C   UNL     1      -5.803  13.235  22.985  0.00  0.00    +0.000 A 
ATOM      5  C   UNL     1      -7.146  13.025  23.317  0.00  0.00    +0.000 A 
ATOM      6  C   UNL     1      -7.905  14.146  23.679  0.00  0.00    +0.000 A 
ATOM      7  C   UNL     1      -7.333  15.414  23.749  0.00  0.00    +0.000 A 
ATOM      8  C   UNL     1      -5.980  15.602  23.456  0.00  0.00    +0.000 A 
ATOM      9  C   UNL     1      -5.211  14.499  23.045  0.00  0.00    +0.000 A 
ATOM     10  C   UNL     1      -3.882  14.348  22.594  0.00  0.00    +0.000 A 
ATOM     11  C   UNL     1      -2.795  15.329  22.419  0.00  0.00    +0.000 C 
ATOM     12  C   UNL     1      -1.461  14.584  22.538  0.00  0.00    +0.000 C 
ATOM     13  N   UNL     1      -1.311  13.377  21.681  0.00  0.00    +0.000 N 
ATOM     14  C   UNL     1       0.042  12.939  21.609  0.00  0.00    +0.000 C 
ATOM     15  O   UNL     1       0.908  13.568  22.230  0.00  0.00    +0.000 OA
ATOM     16  H   UNL     1      -5.005  11.366  22.379  0.00  0.00    +0.000 HD
ENDROOT
BRANCH  14  17
ATOM     17  C   UNL     1       0.465  11.788  20.819  0.00  0.00    +0.000 A 
ATOM     18  C   UNL     1       0.570  10.472  21.271  0.00  0.00    +0.000 A 
ATOM     19  C   UNL     1       1.148   9.662  20.255  0.00  0.00    +0.000 A 
ATOM     20  C   UNL     1       1.518   8.307  20.145  0.00  0.00    +0.000 A 
ATOM     21  C   UNL     1       2.119   7.861  18.961  0.00  0.00    +0.000 A 
ATOM     22 CL   UNL     1       2.613   6.217  18.828  0.00  0.00    +0.000 Cl
ATOM     23  C   UNL     1       2.333   8.723  17.892  0.00  0.00    +0.000 A 
ATOM     24  C   UNL     1       1.947  10.062  17.974  0.00  0.00    +0.000 A 
ATOM     25  C   UNL     1       1.388  10.502  19.178  0.00  0.00    +0.000 A 
ATOM     26  N   UNL     1       1.036  11.766  19.574  0.00  0.00    +0.000 N 
ATOM     27  H   UNL     1       1.279  12.580  19.043  0.00  0.00    +0.000 HD
ENDBRANCH  14  17
BRANCH   1  31
ATOM     28  C   UNL     1      -3.411  11.213  17.506  0.00  0.00    +0.000 A 
ATOM     29  C   UNL     1      -2.157  11.781  17.737  0.00  0.00    +0.000 A 
ATOM     30  C   UNL     1      -1.885  12.368  18.971  0.00  0.00    +0.000 A 
ATOM     31  C   UNL     1      -2.876  12.391  19.966  0.00  0.00    +0.000 A 
ATOM     32  C   UNL     1      -4.205  12.135  19.588  0.00  0.00    +0.000 A 
ATOM     33  C   UNL     1      -4.470  11.526  18.357  0.00  0.00    +0.000 A 
BRANCH  28  34
ATOM     34  O   UNL     1      -3.634  10.229  16.567  0.00  0.00    +0.000 OA
BRANCH  34  36
ATOM     35  C   UNL     1      -2.933   9.877  14.234  0.00  0.00    +0.000 C 
ATOM     36  C   UNL     1      -3.692  10.747  15.222  0.00  0.00    +0.000 C 
ENDBRANCH  34  36
ENDBRANCH  28  34
ENDBRANCH   1  31
TORSDOF 4
ENDMDL
MODEL 5
REMARK VINA RESULT:      -7.2      3.570      7.572
REMARK  Name = 
REMARK  5 active torsions:
REMARK  status: ('A' for Active; 'I' for Inactive)
REMARK    1  A    between atoms: C_1  and  C_2
REMARK    2  A    between atoms: C_2  and  O_3
REMARK    3  A    between atoms: O_3  and  C_4
REMARK    4  A    between atoms: C_7  and  C_8
REMARK    5  A    between atoms: C_21  and  C_23
REMARK                            x       y       z     vdW  Elec       q    Type
REMARK                         _______ _______ _______ _____ _____    ______ ____
ROOT
ATOM      1  C   UNL     1       0.456  10.654  19.975  0.00  0.00    +0.000 C 
ATOM      2  C   UNL     1       1.131   9.316  19.977  0.00  0.00    +0.000 A 
ATOM      3  N   UNL     1       2.085   8.883  19.093  0.00  0.00    +0.000 N 
ATOM      4  C   UNL     1       2.286   7.525  19.256  0.00  0.00    +0.000 A 
ATOM      5  C   UNL     1       3.053   6.623  18.512  0.00  0.00    +0.000 A 
ATOM      6  C   UNL     1       2.999   5.271  18.878  0.00  0.00    +0.000 A 
ATOM      7  C   UNL     1       2.244   4.848  19.970  0.00  0.00    +0.000 A 
ATOM      8  C   UNL     1       1.517   5.767  20.730  0.00  0.00    +0.000 A 
ATOM      9  C   UNL     1       1.519   7.121  20.352  0.00  0.00    +0.000 A 
ATOM     10  C   UNL     1       0.841   8.268  20.820  0.00  0.00    +0.000 A 
ATOM     11  C   UNL     1      -0.116   8.451  21.926  0.00  0.00    +0.000 C 
ATOM     12  C   UNL     1      -0.031   9.908  22.389  0.00  0.00    +0.000 C 
ATOM     13  N   UNL     1      -0.156  10.940  21.325  0.00  0.00    +0.000 N 
ATOM     14  C   UNL     1      -0.387  12.237  21.863  0.00  0.00    +0.000 C 
ATOM     15  O   UNL     1      -0.457  12.372  23.091  0.00  0.00    +0.000 OA
ATOM     16  H   UNL     1       2.511   9.433  18.359  0.00  0.00    +0.000 HD
ENDROOT
BRANCH  14  17
ATOM     17  C   UNL     1      -0.566  13.423  21.032  0.00  0.00    +0.000 A 
ATOM     18  C   UNL     1       0.376  13.965  20.157  0.00  0.00    +0.000 A 
ATOM     19  C   UNL     1      -0.110  15.196  19.635  0.00  0.00    +0.000 A 
ATOM     20  C   UNL     1       0.393  16.180  18.762  0.00  0.00    +0.000 A 
ATOM     21  C   UNL     1      -0.382  17.318  18.501  0.00  0.00    +0.000 A 
ATOM     22 CL   UNL     1       0.237  18.547  17.467  0.00  0.00    +0.000 Cl
ATOM     23  C   UNL     1      -1.640  17.479  19.070  0.00  0.00    +0.000 A 
ATOM     24  C   UNL     1      -2.164  16.500  19.916  0.00  0.00    +0.000 A 
ATOM     25  C   UNL     1      -1.362  15.391  20.200  0.00  0.00    +0.000 A 
ATOM     26  N   UNL     1      -1.568  14.356  21.075  0.00  0.00    +0.000 N 
ATOM     27  H   UNL     1      -2.317  14.359  21.740  0.00  0.00    +0.000 HD
ENDBRANCH  14  17
BRANCH   1  31
ATOM     28  C   UNL     1      -2.989  11.199  17.552  0.00  0.00    +0.000 A 
ATOM     29  C   UNL     1      -2.734   9.917  18.041  0.00  0.00    +0.000 A 
ATOM     30  C   UNL     1      -1.533   9.657  18.697  0.00  0.00    +0.000 A 
ATOM     31  C   UNL     1      -0.587  10.684  18.853  0.00  0.00    +0.000 A 
ATOM     32  C   UNL     1      -0.719  11.837  18.059  0.00  0.00    +0.000 A 
ATOM     33  C   UNL     1      -1.935  12.102  17.421  0.00  0.00    +0.000 A 
BRANCH  28  34
ATOM     34  O   UNL     1      -4.259  11.686  17.333  0.00  0.00    +0.000 OA
BRANCH  34  36
ATOM     35  C   UNL     1      -6.415  11.003  18.305  0.00  0.00    +0.000 C 
ATOM     36  C   UNL     1      -5.072  11.679  18.525  0.00  0.00    +0.000 C 
ENDBRANCH  34  36
ENDBRANCH  28  34
ENDBRANCH   1  31
TORSDOF 4
ENDMDL
MODEL 6
REMARK VINA RESULT:      -7.2      3.575      7.465
REMARK  Name = 
REMARK  5 active torsions:
REMARK  status: ('A' for Active; 'I' for Inactive)
REMARK    1  A    between atoms: C_1  and  C_2
REMARK    2  A    between atoms: C_2  and  O_3
REMARK    3  A    between atoms: O_3  and  C_4
REMARK    4  A    between atoms: C_7  and  C_8
REMARK    5  A    between atoms: C_21  and  C_23
REMARK                            x       y       z     vdW  Elec       q    Type
REMARK                         _______ _______ _______ _____ _____    ______ ____
ROOT
ATOM      1  C   UNL     1       0.322  10.825  19.914  0.00  0.00    +0.000 C 
ATOM      2  C   UNL     1       1.090   9.542  19.810  0.00  0.00    +0.000 A 
ATOM      3  N   UNL     1       1.891   9.154  18.767  0.00  0.00    +0.000 N 
ATOM      4  C   UNL     1       2.227   7.820  18.913  0.00  0.00    +0.000 A 
ATOM      5  C   UNL     1       2.909   6.955  18.051  0.00  0.00    +0.000 A 
ATOM      6  C   UNL     1       3.034   5.616  18.446  0.00  0.00    +0.000 A 
ATOM      7  C   UNL     1       2.537   5.174  19.669  0.00  0.00    +0.000 A 
ATOM      8  C   UNL     1       1.896   6.059  20.538  0.00  0.00    +0.000 A 
ATOM      9  C   UNL     1       1.718   7.396  20.142  0.00  0.00    +0.000 A 
ATOM     10  C   UNL     1       1.051   8.504  20.711  0.00  0.00    +0.000 A 
ATOM     11  C   UNL     1       0.310   8.650  21.977  0.00  0.00    +0.000 C 
ATOM     12  C   UNL     1       0.364  10.125  22.390  0.00  0.00    +0.000 C 
ATOM     13  N   UNL     1      -0.043  11.108  21.350  0.00  0.00    +0.000 N 
ATOM     14  C   UNL     1      -0.271  12.401  21.900  0.00  0.00    +0.000 C 
ATOM     15  O   UNL     1      -0.117  12.571  23.115  0.00  0.00    +0.000 OA
ATOM     16  H   UNL     1       2.123   9.710  17.955  0.00  0.00    +0.000 HD
ENDROOT
BRANCH  14  17
ATOM     17  C   UNL     1      -0.700  13.542  21.098  0.00  0.00    +0.000 A 
ATOM     18  C   UNL     1       0.032  14.154  20.079  0.00  0.00    +0.000 A 
ATOM     19  C   UNL     1      -0.654  15.316  19.630  0.00  0.00    +0.000 A 
ATOM     20  C   UNL     1      -0.399  16.323  18.679  0.00  0.00    +0.000 A 
ATOM     21  C   UNL     1      -1.317  17.371  18.536  0.00  0.00    +0.000 A 
ATOM     22 CL   UNL     1      -0.998  18.630  17.405  0.00  0.00    +0.000 Cl
ATOM     23  C   UNL     1      -2.480  17.420  19.297  0.00  0.00    +0.000 A 
ATOM     24  C   UNL     1      -2.761  16.415  20.224  0.00  0.00    +0.000 A 
ATOM     25  C   UNL     1      -1.814  15.400  20.385  0.00  0.00    +0.000 A 
ATOM     26  N   UNL     1      -1.773  14.372  21.292  0.00  0.00    +0.000 N 
ATOM     27  H   UNL     1      -2.404  14.317  22.067  0.00  0.00    +0.000 HD
ENDBRANCH  14  17
BRANCH   1  31
ATOM     28  C   UNL     1      -2.505  11.027  16.751  0.00  0.00    +0.000 A 
ATOM     29  C   UNL     1      -2.650  11.923  17.812  0.00  0.00    +0.000 A 
ATOM     30  C   UNL     1      -1.851  11.783  18.944  0.00  0.00    +0.000 A 
ATOM     31  C   UNL     1      -0.914  10.739  19.012  0.00  0.00    +0.000 A 
ATOM     32  C   UNL     1      -1.038   9.673  18.104  0.00  0.00    +0.000 A 
ATOM     33  C   UNL     1      -1.825   9.828  16.958  0.00  0.00    +0.000 A 
BRANCH  28  34
ATOM     34  O   UNL     1      -2.864  11.326  15.455  0.00  0.00    +0.000 OA
BRANCH  34  36
ATOM     35  C   UNL     1      -2.915   9.789  13.533  0.00  0.00    +0.000 C 
ATOM     36  C   UNL     1      -3.586  10.253  14.815  0.00  0.00    +0.000 C 
ENDBRANCH  34  36
ENDBRANCH  28  34
ENDBRANCH   1  31
TORSDOF 4
ENDMDL
MODEL 7
REMARK VINA RESULT:      -7.2      1.345      1.392
REMARK  Name = 
REMARK  5 active torsions:
REMARK  status: ('A' for Active; 'I' for Inactive)
REMARK    1  A    between atoms: C_1  and  C_2
REMARK    2  A    between atoms: C_2  and  O_3
REMARK    3  A    between atoms: O_3  and  C_4
REMARK    4  A    between atoms: C_7  and  C_8
REMARK    5  A    between atoms: C_21  and  C_23
REMARK                            x       y       z     vdW  Elec       q    Type
REMARK                         _______ _______ _______ _____ _____    ______ ____
ROOT
ATOM      1  C   UNL     1      -3.256  13.997  20.850  0.00  0.00    +0.000 C 
ATOM      2  C   UNL     1      -3.166  15.123  21.835  0.00  0.00    +0.000 A 
ATOM      3  N   UNL     1      -2.468  16.292  21.674  0.00  0.00    +0.000 N 
ATOM      4  C   UNL     1      -2.416  16.969  22.879  0.00  0.00    +0.000 A 
ATOM      5  C   UNL     1      -1.719  18.126  23.242  0.00  0.00    +0.000 A 
ATOM      6  C   UNL     1      -1.801  18.537  24.579  0.00  0.00    +0.000 A 
ATOM      7  C   UNL     1      -2.583  17.845  25.501  0.00  0.00    +0.000 A 
ATOM      8  C   UNL     1      -3.308  16.716  25.114  0.00  0.00    +0.000 A 
ATOM      9  C   UNL     1      -3.202  16.258  23.789  0.00  0.00    +0.000 A 
ATOM     10  C   UNL     1      -3.703  15.132  23.101  0.00  0.00    +0.000 A 
ATOM     11  C   UNL     1      -4.565  14.021  23.547  0.00  0.00    +0.000 C 
ATOM     12  C   UNL     1      -5.301  13.471  22.321  0.00  0.00    +0.000 C 
ATOM     13  N   UNL     1      -4.451  13.125  21.151  0.00  0.00    +0.000 N 
ATOM     14  C   UNL     1      -5.153  12.337  20.195  0.00  0.00    +0.000 C 
ATOM     15  O   UNL     1      -6.332  12.036  20.419  0.00  0.00    +0.000 OA
ATOM     16  H   UNL     1      -1.973  16.581  20.841  0.00  0.00    +0.000 HD
ENDROOT
BRANCH  14  17
ATOM     17  C   UNL     1      -4.542  11.846  18.965  0.00  0.00    +0.000 A 
ATOM     18  C   UNL     1      -5.069  11.968  17.679  0.00  0.00    +0.000 A 
ATOM     19  C   UNL     1      -4.258  11.244  16.760  0.00  0.00    +0.000 A 
ATOM     20  C   UNL     1      -4.305  10.981  15.377  0.00  0.00    +0.000 A 
ATOM     21  C   UNL     1      -3.320  10.164  14.807  0.00  0.00    +0.000 A 
ATOM     22 CL   UNL     1      -3.388   9.801  13.126  0.00  0.00    +0.000 Cl
ATOM     23  C   UNL     1      -2.292   9.631  15.577  0.00  0.00    +0.000 A 
ATOM     24  C   UNL     1      -2.216   9.906  16.943  0.00  0.00    +0.000 A 
ATOM     25  C   UNL     1      -3.230  10.686  17.505  0.00  0.00    +0.000 A 
ATOM     26  N   UNL     1      -3.470  11.007  18.816  0.00  0.00    +0.000 N 
ATOM     27  H   UNL     1      -2.973  10.576  19.571  0.00  0.00    +0.000 HD
ENDBRANCH  14  17
BRANCH   1  31
ATOM     28  C   UNL     1      -0.127  11.169  20.346  0.00  0.00    +0.000 A 
ATOM     29  C   UNL     1      -0.789  11.195  21.575  0.00  0.00    +0.000 A 
ATOM     30  C   UNL     1      -1.704  12.211  21.842  0.00  0.00    +0.000 A 
ATOM     31  C   UNL     1      -1.945  13.204  20.879  0.00  0.00    +0.000 A 
ATOM     32  C   UNL     1      -1.025  13.346  19.825  0.00  0.00    +0.000 A 
ATOM     33  C   UNL     1      -0.124  12.313  19.548  0.00  0.00    +0.000 A 
BRANCH  28  34
ATOM     34  O   UNL     1       0.401  10.022  19.796  0.00  0.00    +0.000 OA
BRANCH  34  36
ATOM     35  C   UNL     1       1.494   9.028  17.827  0.00  0.00    +0.000 C 
ATOM     36  C   UNL     1       1.211  10.286  18.631  0.00  0.00    +0.000 C 
ENDBRANCH  34  36
ENDBRANCH  28  34
ENDBRANCH   1  31
TORSDOF 4
ENDMDL
MODEL 8
REMARK VINA RESULT:      -7.1      3.351      5.284
REMARK  Name = 
REMARK  5 active torsions:
REMARK  status: ('A' for Active; 'I' for Inactive)
REMARK    1  A    between atoms: C_1  and  C_2
REMARK    2  A    between atoms: C_2  and  O_3
REMARK    3  A    between atoms: O_3  and  C_4
REMARK    4  A    between atoms: C_7  and  C_8
REMARK    5  A    between atoms: C_21  and  C_23
REMARK                            x       y       z     vdW  Elec       q    Type
REMARK                         _______ _______ _______ _____ _____    ______ ____
ROOT
ATOM      1  C   UNL     1      -2.483  11.976  21.181  0.00  0.00    +0.000 C 
ATOM      2  C   UNL     1      -3.762  12.676  21.528  0.00  0.00    +0.000 A 
ATOM      3  N   UNL     1      -4.900  12.719  20.766  0.00  0.00    +0.000 N 
ATOM      4  C   UNL     1      -5.773  13.655  21.289  0.00  0.00    +0.000 A 
ATOM      5  C   UNL     1      -6.989  14.141  20.796  0.00  0.00    +0.000 A 
ATOM      6  C   UNL     1      -7.620  15.161  21.522  0.00  0.00    +0.000 A 
ATOM      7  C   UNL     1      -7.079  15.641  22.712  0.00  0.00    +0.000 A 
ATOM      8  C   UNL     1      -5.886  15.117  23.214  0.00  0.00    +0.000 A 
ATOM      9  C   UNL     1      -5.212  14.126  22.478  0.00  0.00    +0.000 A 
ATOM     10  C   UNL     1      -3.975  13.464  22.635  0.00  0.00    +0.000 A 
ATOM     11  C   UNL     1      -2.940  13.568  23.680  0.00  0.00    +0.000 C 
ATOM     12  C   UNL     1      -2.175  12.241  23.722  0.00  0.00    +0.000 C 
ATOM     13  N   UNL     1      -1.652  11.748  22.420  0.00  0.00    +0.000 N 
ATOM     14  C   UNL     1      -0.699  10.704  22.588  0.00  0.00    +0.000 C 
ATOM     15  O   UNL     1      -0.417  10.331  23.733  0.00  0.00    +0.000 OA
ATOM     16  H   UNL     1      -5.053  12.228  19.895  0.00  0.00    +0.000 HD
ENDROOT
BRANCH  14  17
ATOM     17  C   UNL     1      -0.019  10.059  21.470  0.00  0.00    +0.000 A 
ATOM     18  C   UNL     1       0.504   8.766  21.460  0.00  0.00    +0.000 A 
ATOM     19  C   UNL     1       1.214   8.547  20.246  0.00  0.00    +0.000 A 
ATOM     20  C   UNL     1       1.957   7.483  19.700  0.00  0.00    +0.000 A 
ATOM     21  C   UNL     1       2.568   7.651  18.451  0.00  0.00    +0.000 A 
ATOM     22 CL   UNL     1       3.513   6.372  17.789  0.00  0.00    +0.000 Cl
ATOM     23  C   UNL     1       2.435   8.836  17.737  0.00  0.00    +0.000 A 
ATOM     24  C   UNL     1       1.678   9.890  18.251  0.00  0.00    +0.000 A 
ATOM     25  C   UNL     1       1.111   9.723  19.518  0.00  0.00    +0.000 A 
ATOM     26  N   UNL     1       0.434  10.619  20.304  0.00  0.00    +0.000 N 
ATOM     27  H   UNL     1       0.383  11.594  20.082  0.00  0.00    +0.000 HD
ENDBRANCH  14  17
BRANCH   1  31
ATOM     28  C   UNL     1       0.329  13.612  18.451  0.00  0.00    +0.000 A 
ATOM     29  C   UNL     1       0.098  14.305  19.641  0.00  0.00    +0.000 A 
ATOM     30  C   UNL     1      -0.932  13.897  20.486  0.00  0.00    +0.000 A 
ATOM     31  C   UNL     1      -1.733  12.800  20.129  0.00  0.00    +0.000 A 
ATOM     32  C   UNL     1      -1.703  12.359  18.794  0.00  0.00    +0.000 A 
ATOM     33  C   UNL     1      -0.654  12.755  17.958  0.00  0.00    +0.000 A 
BRANCH  28  34
ATOM     34  O   UNL     1       1.546  13.605  17.805  0.00  0.00    +0.000 OA
BRANCH  34  36
ATOM     35  C   UNL     1       3.842  14.321  18.328  0.00  0.00    +0.000 C 
ATOM     36  C   UNL     1       2.657  13.451  18.712  0.00  0.00    +0.000 C 
ENDBRANCH  34  36
ENDBRANCH  28  34
ENDBRANCH   1  31
TORSDOF 4
ENDMDL
MODEL 9
REMARK VINA RESULT:      -7.0      3.391      7.733
REMARK  Name = 
REMARK  5 active torsions:
REMARK  status: ('A' for Active; 'I' for Inactive)
REMARK    1  A    between atoms: C_1  and  C_2
REMARK    2  A    between atoms: C_2  and  O_3
REMARK    3  A    between atoms: O_3  and  C_4
REMARK    4  A    between atoms: C_7  and  C_8
REMARK    5  A    between atoms: C_21  and  C_23
REMARK                            x       y       z     vdW  Elec       q    Type
REMARK                         _______ _______ _______ _____ _____    ______ ____
ROOT
ATOM      1  C   UNL     1       0.499  10.556  19.701  0.00  0.00    +0.000 C 
ATOM      2  C   UNL     1       1.386   9.380  19.425  0.00  0.00    +0.000 A 
ATOM      3  N   UNL     1       2.319   9.279  18.425  0.00  0.00    +0.000 N 
ATOM      4  C   UNL     1       2.758   7.971  18.332  0.00  0.00    +0.000 A 
ATOM      5  C   UNL     1       3.598   7.359  17.395  0.00  0.00    +0.000 A 
ATOM      6  C   UNL     1       3.804   5.978  17.517  0.00  0.00    +0.000 A 
ATOM      7  C   UNL     1       3.229   5.251  18.556  0.00  0.00    +0.000 A 
ATOM      8  C   UNL     1       2.426   5.884  19.508  0.00  0.00    +0.000 A 
ATOM      9  C   UNL     1       2.168   7.260  19.379  0.00  0.00    +0.000 A 
ATOM     10  C   UNL     1       1.351   8.171  20.081  0.00  0.00    +0.000 A 
ATOM     11  C   UNL     1       0.476   7.992  21.255  0.00  0.00    +0.000 C 
ATOM     12  C   UNL     1       0.355   9.344  21.966  0.00  0.00    +0.000 C 
ATOM     13  N   UNL     1      -0.033  10.498  21.112  0.00  0.00    +0.000 N 
ATOM     14  C   UNL     1      -0.431  11.625  21.885  0.00  0.00    +0.000 C 
ATOM     15  O   UNL     1      -0.416  11.538  23.119  0.00  0.00    +0.000 OA
ATOM     16  H   UNL     1       2.580  10.012  17.779  0.00  0.00    +0.000 HD
ENDROOT
BRANCH  14  17
ATOM     17  C   UNL     1      -0.879  12.880  21.291  0.00  0.00    +0.000 A 
ATOM     18  C   UNL     1      -0.097  13.761  20.543  0.00  0.00    +0.000 A 
ATOM     19  C   UNL     1      -0.845  14.938  20.258  0.00  0.00    +0.000 A 
ATOM     20  C   UNL     1      -0.584  16.150  19.590  0.00  0.00    +0.000 A 
ATOM     21  C   UNL     1      -1.586  17.128  19.542  0.00  0.00    +0.000 A 
ATOM     22 CL   UNL     1      -1.268  18.631  18.764  0.00  0.00    +0.000 Cl
ATOM     23  C   UNL     1      -2.832  16.913  20.120  0.00  0.00    +0.000 A 
ATOM     24  C   UNL     1      -3.115  15.705  20.761  0.00  0.00    +0.000 A 
ATOM     25  C   UNL     1      -2.091  14.757  20.838  0.00  0.00    +0.000 A 
ATOM     26  N   UNL     1      -2.051  13.557  21.501  0.00  0.00    +0.000 N 
ATOM     27  H   UNL     1      -2.763  13.279  22.147  0.00  0.00    +0.000 HD
ENDBRANCH  14  17
BRANCH   1  31
ATOM     28  C   UNL     1      -3.115  11.120  17.541  0.00  0.00    +0.000 A 
ATOM     29  C   UNL     1      -2.847   9.843  18.039  0.00  0.00    +0.000 A 
ATOM     30  C   UNL     1      -1.603   9.573  18.605  0.00  0.00    +0.000 A 
ATOM     31  C   UNL     1      -0.629  10.583  18.662  0.00  0.00    +0.000 A 
ATOM     32  C   UNL     1      -0.800  11.721  17.854  0.00  0.00    +0.000 A 
ATOM     33  C   UNL     1      -2.057  11.997  17.307  0.00  0.00    +0.000 A 
BRANCH  28  34
ATOM     34  O   UNL     1      -4.389  11.628  17.410  0.00  0.00    +0.000 OA
BRANCH  34  36
ATOM     35  C   UNL     1      -4.964  12.549  19.618  0.00  0.00    +0.000 C 
ATOM     36  C   UNL     1      -5.186  11.445  18.598  0.00  0.00    +0.000 C 
ENDBRANCH  34  36
ENDBRANCH  28  34
ENDBRANCH   1  31
TORSDOF 4
ENDMDL
