MODEL 1
REMARK VINA RESULT:      -6.2      0.000      0.000
REMARK  Name = 
REMARK  4 active torsions:
REMARK  status: ('A' for Active; 'I' for Inactive)
REMARK    1  A    between atoms: C_1  and  N_2
REMARK    2  A    between atoms: N_5  and  C_6
REMARK    3  A    between atoms: C_6  and  C_7
REMARK    4  A    between atoms: C_15  and  C_16
REMARK                            x       y       z     vdW  Elec       q    Type
REMARK                         _______ _______ _______ _____ _____    ______ ____
ROOT
ATOM      1  C   UNL     1       7.413   4.428  16.757  0.00  0.00    +0.000 C 
ATOM      2  N   UNL     1       6.069   4.976  16.534  0.00  0.00    +0.000 NA
ATOM      3  C   UNL     1       5.971   6.349  17.040  0.00  0.00    +0.000 C 
ATOM      4  C   UNL     1       4.541   6.921  16.864  0.00  0.00    +0.000 C 
ATOM      5  N   UNL     1       3.427   6.156  17.491  0.00  0.00    +0.000 NA
ATOM      6  C   UNL     1       3.610   4.689  17.145  0.00  0.00    +0.000 C 
ATOM      7  C   UNL     1       5.072   4.154  17.249  0.00  0.00    +0.000 C 
ENDROOT
BRANCH   6   8
ATOM      8  C   UNL     1       2.708   3.786  18.021  0.00  0.00    +0.000 C 
ATOM      9  N   UNL     1       1.407   3.763  17.855  0.00  0.00    +0.000 NA
ATOM     10  C   UNL     1       0.918   2.672  18.732  0.00  0.00    +0.000 C 
ATOM     11  C   UNL     1       2.160   1.933  19.238  0.00  0.00    +0.000 C 
ATOM     12  N   UNL     1       3.210   2.878  18.924  0.00  0.00    +0.000 N 
ATOM     13  H   UNL     1       4.150   2.529  18.761  0.00  0.00    +0.000 HD
ENDBRANCH   6   8
BRANCH   5  14
ATOM     14  C   UNL     1       3.368   6.342  18.951  0.00  0.00    +0.000 C 
BRANCH  14  15
ATOM     15  C   UNL     1       2.356   7.256  19.625  0.00  0.00    +0.000 A 
ATOM     16  C   UNL     1       1.919   8.514  19.167  0.00  0.00    +0.000 A 
ATOM     17 CL   UNL     1       2.530   9.299  17.753  0.00  0.00    +0.000 Cl
ATOM     18  C   UNL     1       0.876   9.198  19.822  0.00  0.00    +0.000 A 
ATOM     19  C   UNL     1       0.216   8.633  20.909  0.00  0.00    +0.000 A 
ATOM     20  C   UNL     1       0.594   7.377  21.351  0.00  0.00    +0.000 A 
ATOM     21  C   UNL     1       1.639   6.699  20.721  0.00  0.00    +0.000 A 
ATOM     22 CL   UNL     1       1.940   5.089  21.307  0.00  0.00    +0.000 Cl
ENDBRANCH  14  15
ENDBRANCH   5  14
TORSDOF 3
ENDMDL
MODEL 2
REMARK VINA RESULT:      -6.1      2.352      4.723
REMARK  Name = 
REMARK  4 active torsions:
REMARK  status: ('A' for Active; 'I' for Inactive)
REMARK    1  A    between atoms: C_1  and  N_2
REMARK    2  A    between atoms: N_5  and  C_6
REMARK    3  A    between atoms: C_6  and  C_7
REMARK    4  A    between atoms: C_15  and  C_16
REMARK                            x       y       z     vdW  Elec       q    Type
REMARK                         _______ _______ _______ _____ _____    ______ ____
ROOT
ATOM      1  C   UNL     1       7.291   5.060  12.766  0.00  0.00    +0.000 C 
ATOM      2  N   UNL     1       6.885   4.289  13.948  0.00  0.00    +0.000 NA
ATOM      3  C   UNL     1       5.433   4.087  13.971  0.00  0.00    +0.000 C 
ATOM      4  C   UNL     1       4.984   3.323  15.244  0.00  0.00    +0.000 C 
ATOM      5  N   UNL     1       5.350   3.926  16.556  0.00  0.00    +0.000 NA
ATOM      6  C   UNL     1       6.813   4.328  16.497  0.00  0.00    +0.000 C 
ATOM      7  C   UNL     1       7.264   5.021  15.174  0.00  0.00    +0.000 C 
ENDROOT
BRANCH   6   8
ATOM      8  C   UNL     1       7.190   5.258  17.675  0.00  0.00    +0.000 C 
ATOM      9  N   UNL     1       7.421   4.775  18.873  0.00  0.00    +0.000 NA
ATOM     10  C   UNL     1       7.916   5.923  19.671  0.00  0.00    +0.000 C 
ATOM     11  C   UNL     1       8.150   7.070  18.682  0.00  0.00    +0.000 C 
ATOM     12  N   UNL     1       7.424   6.605  17.520  0.00  0.00    +0.000 N 
ATOM     13  H   UNL     1       7.715   6.925  16.601  0.00  0.00    +0.000 HD
ENDBRANCH   6   8
BRANCH   5  14
ATOM     14  C   UNL     1       4.507   5.082  16.900  0.00  0.00    +0.000 C 
BRANCH  14  15
ATOM     15  C   UNL     1       3.578   5.097  18.105  0.00  0.00    +0.000 A 
ATOM     16  C   UNL     1       3.332   4.032  18.994  0.00  0.00    +0.000 A 
ATOM     17 CL   UNL     1       4.005   2.449  18.821  0.00  0.00    +0.000 Cl
ATOM     18  C   UNL     1       2.549   4.222  20.149  0.00  0.00    +0.000 A 
ATOM     19  C   UNL     1       2.035   5.473  20.472  0.00  0.00    +0.000 A 
ATOM     20  C   UNL     1       2.301   6.549  19.641  0.00  0.00    +0.000 A 
ATOM     21  C   UNL     1       3.059   6.367  18.483  0.00  0.00    +0.000 A 
ATOM     22 CL   UNL     1       3.407   7.817  17.588  0.00  0.00    +0.000 Cl
ENDBRANCH  14  15
ENDBRANCH   5  14
TORSDOF 3
ENDMDL
MODEL 3
REMARK VINA RESULT:      -5.6      0.250      2.020
REMARK  Name = 
REMARK  4 active torsions:
REMARK  status: ('A' for Active; 'I' for Inactive)
REMARK    1  A    between atoms: C_1  and  N_2
REMARK    2  A    between atoms: N_5  and  C_6
REMARK    3  A    between atoms: C_6  and  C_7
REMARK    4  A    between atoms: C_15  and  C_16
REMARK                            x       y       z     vdW  Elec       q    Type
REMARK                         _______ _______ _______ _____ _____    ______ ____
ROOT
ATOM      1  C   UNL     1       7.506   4.391  16.481  0.00  0.00    +0.000 C 
ATOM      2  N   UNL     1       6.162   4.953  16.295  0.00  0.00    +0.000 NA
ATOM      3  C   UNL     1       6.095   6.330  16.796  0.00  0.00    +0.000 C 
ATOM      4  C   UNL     1       4.666   6.916  16.660  0.00  0.00    +0.000 C 
ATOM      5  N   UNL     1       3.562   6.167  17.324  0.00  0.00    +0.000 NA
ATOM      6  C   UNL     1       3.720   4.696  16.980  0.00  0.00    +0.000 C 
ATOM      7  C   UNL     1       5.178   4.146  17.043  0.00  0.00    +0.000 C 
ENDROOT
BRANCH   6   8
ATOM      8  C   UNL     1       2.834   3.808  17.886  0.00  0.00    +0.000 C 
ATOM      9  N   UNL     1       1.528   3.792  17.753  0.00  0.00    +0.000 NA
ATOM     10  C   UNL     1       1.055   2.713  18.653  0.00  0.00    +0.000 C 
ATOM     11  C   UNL     1       2.305   1.970  19.135  0.00  0.00    +0.000 C 
ATOM     12  N   UNL     1       3.353   2.905  18.786  0.00  0.00    +0.000 N 
ATOM     13  H   UNL     1       4.286   2.549  18.603  0.00  0.00    +0.000 HD
ENDBRANCH   6   8
BRANCH   5  14
ATOM     14  C   UNL     1       3.549   6.361  18.783  0.00  0.00    +0.000 C 
BRANCH  14  15
ATOM     15  C   UNL     1       2.360   6.952  19.525  0.00  0.00    +0.000 A 
ATOM     16  C   UNL     1       1.709   6.405  20.648  0.00  0.00    +0.000 A 
ATOM     17 CL   UNL     1       2.111   4.880  21.356  0.00  0.00    +0.000 Cl
ATOM     18  C   UNL     1       0.702   7.124  21.321  0.00  0.00    +0.000 A 
ATOM     19  C   UNL     1       0.354   8.413  20.928  0.00  0.00    +0.000 A 
ATOM     20  C   UNL     1       1.011   8.994  19.856  0.00  0.00    +0.000 A 
ATOM     21  C   UNL     1       1.996   8.281  19.171  0.00  0.00    +0.000 A 
ATOM     22 CL   UNL     1       2.815   9.166  17.916  0.00  0.00    +0.000 Cl
ENDBRANCH  14  15
ENDBRANCH   5  14
TORSDOF 3
ENDMDL
MODEL 4
REMARK VINA RESULT:      -5.6      2.580      4.551
REMARK  Name = 
REMARK  4 active torsions:
REMARK  status: ('A' for Active; 'I' for Inactive)
REMARK    1  A    between atoms: C_1  and  N_2
REMARK    2  A    between atoms: N_5  and  C_6
REMARK    3  A    between atoms: C_6  and  C_7
REMARK    4  A    between atoms: C_15  and  C_16
REMARK                            x       y       z     vdW  Elec       q    Type
REMARK                         _______ _______ _______ _____ _____    ______ ____
ROOT
ATOM      1  C   UNL     1       7.583   5.227  12.480  0.00  0.00    +0.000 C 
ATOM      2  N   UNL     1       7.161   4.393  13.612  0.00  0.00    +0.000 NA
ATOM      3  C   UNL     1       5.727   4.094  13.539  0.00  0.00    +0.000 C 
ATOM      4  C   UNL     1       5.256   3.262  14.760  0.00  0.00    +0.000 C 
ATOM      5  N   UNL     1       5.501   3.846  16.109  0.00  0.00    +0.000 NA
ATOM      6  C   UNL     1       6.934   4.346  16.152  0.00  0.00    +0.000 C 
ATOM      7  C   UNL     1       7.415   5.109  14.879  0.00  0.00    +0.000 C 
ENDROOT
BRANCH   6   8
ATOM      8  C   UNL     1       7.176   5.261  17.376  0.00  0.00    +0.000 C 
ATOM      9  N   UNL     1       7.345   4.758  18.576  0.00  0.00    +0.000 NA
ATOM     10  C   UNL     1       7.720   5.907  19.435  0.00  0.00    +0.000 C 
ATOM     11  C   UNL     1       7.963   7.091  18.494  0.00  0.00    +0.000 C 
ATOM     12  N   UNL     1       7.348   6.622  17.271  0.00  0.00    +0.000 N 
ATOM     13  H   UNL     1       7.686   6.982  16.384  0.00  0.00    +0.000 HD
ENDBRANCH   6   8
BRANCH   5  14
ATOM     14  C   UNL     1       4.562   4.932  16.432  0.00  0.00    +0.000 C 
BRANCH  14  15
ATOM     15  C   UNL     1       3.907   5.078  17.798  0.00  0.00    +0.000 A 
ATOM     16  C   UNL     1       3.429   6.266  18.382  0.00  0.00    +0.000 A 
ATOM     17 CL   UNL     1       3.574   7.830  17.659  0.00  0.00    +0.000 Cl
ATOM     18  C   UNL     1       2.722   6.239  19.600  0.00  0.00    +0.000 A 
ATOM     19  C   UNL     1       2.435   5.037  20.238  0.00  0.00    +0.000 A 
ATOM     20  C   UNL     1       2.852   3.849  19.662  0.00  0.00    +0.000 A 
ATOM     21  C   UNL     1       3.570   3.867  18.465  0.00  0.00    +0.000 A 
ATOM     22 CL   UNL     1       3.940   2.304  17.797  0.00  0.00    +0.000 Cl
ENDBRANCH  14  15
ENDBRANCH   5  14
TORSDOF 3
ENDMDL
MODEL 5
REMARK VINA RESULT:      -5.5      6.217      8.437
REMARK  Name = 
REMARK  4 active torsions:
REMARK  status: ('A' for Active; 'I' for Inactive)
REMARK    1  A    between atoms: C_1  and  N_2
REMARK    2  A    between atoms: N_5  and  C_6
REMARK    3  A    between atoms: C_6  and  C_7
REMARK    4  A    between atoms: C_15  and  C_16
REMARK                            x       y       z     vdW  Elec       q    Type
REMARK                         _______ _______ _______ _____ _____    ______ ____
ROOT
ATOM      1  C   UNL     1       1.131  15.500  20.734  0.00  0.00    +0.000 C 
ATOM      2  N   UNL     1       1.021  14.307  19.885  0.00  0.00    +0.000 NA
ATOM      3  C   UNL     1      -0.162  14.382  19.023  0.00  0.00    +0.000 C 
ATOM      4  C   UNL     1      -0.323  13.102  18.163  0.00  0.00    +0.000 C 
ATOM      5  N   UNL     1      -0.411  11.806  18.892  0.00  0.00    +0.000 NA
ATOM      6  C   UNL     1       0.693  11.779  19.936  0.00  0.00    +0.000 C 
ATOM      7  C   UNL     1       0.892  13.104  20.733  0.00  0.00    +0.000 C 
ENDROOT
BRANCH   6   8
ATOM      8  C   UNL     1       0.474  10.636  20.957  0.00  0.00    +0.000 C 
ATOM      9  N   UNL     1       0.208  10.892  22.216  0.00  0.00    +0.000 NA
ATOM     10  C   UNL     1      -0.107   9.579  22.827  0.00  0.00    +0.000 C 
ATOM     11  C   UNL     1      -0.205   8.576  21.673  0.00  0.00    +0.000 C 
ATOM     12  N   UNL     1       0.423   9.309  20.595  0.00  0.00    +0.000 N 
ATOM     13  H   UNL     1       0.157   9.097  19.638  0.00  0.00    +0.000 HD
ENDBRANCH   6   8
BRANCH   5  14
ATOM     14  C   UNL     1      -1.726  11.601  19.521  0.00  0.00    +0.000 C 
BRANCH  14  15
ATOM     15  C   UNL     1      -3.034  11.718  18.753  0.00  0.00    +0.000 A 
ATOM     16  C   UNL     1      -3.342  11.121  17.516  0.00  0.00    +0.000 A 
ATOM     17 CL   UNL     1      -2.227  10.183  16.586  0.00  0.00    +0.000 Cl
ATOM     18  C   UNL     1      -4.641  11.203  16.978  0.00  0.00    +0.000 A 
ATOM     19  C   UNL     1      -5.669  11.833  17.673  0.00  0.00    +0.000 A 
ATOM     20  C   UNL     1      -5.406  12.388  18.914  0.00  0.00    +0.000 A 
ATOM     21  C   UNL     1      -4.117  12.329  19.446  0.00  0.00    +0.000 A 
ATOM     22 CL   UNL     1      -3.948  12.968  21.055  0.00  0.00    +0.000 Cl
ENDBRANCH  14  15
ENDBRANCH   5  14
TORSDOF 3
ENDMDL
MODEL 6
REMARK VINA RESULT:      -5.4      6.072      9.095
REMARK  Name = 
REMARK  4 active torsions:
REMARK  status: ('A' for Active; 'I' for Inactive)
REMARK    1  A    between atoms: C_1  and  N_2
REMARK    2  A    between atoms: N_5  and  C_6
REMARK    3  A    between atoms: C_6  and  C_7
REMARK    4  A    between atoms: C_15  and  C_16
REMARK                            x       y       z     vdW  Elec       q    Type
REMARK                         _______ _______ _______ _____ _____    ______ ____
ROOT
ATOM      1  C   UNL     1      -2.145  15.077  23.745  0.00  0.00    +0.000 C 
ATOM      2  N   UNL     1      -1.345  14.584  22.616  0.00  0.00    +0.000 NA
ATOM      3  C   UNL     1      -2.085  14.703  21.356  0.00  0.00    +0.000 C 
ATOM      4  C   UNL     1      -1.274  14.132  20.164  0.00  0.00    +0.000 C 
ATOM      5  N   UNL     1      -0.833  12.712  20.265  0.00  0.00    +0.000 NA
ATOM      6  C   UNL     1      -0.233  12.505  21.645  0.00  0.00    +0.000 C 
ATOM      7  C   UNL     1      -1.021  13.158  22.823  0.00  0.00    +0.000 C 
ENDROOT
BRANCH   6   8
ATOM      8  C   UNL     1      -0.060  11.000  21.963  0.00  0.00    +0.000 C 
ATOM      9  N   UNL     1      -0.765  10.420  22.906  0.00  0.00    +0.000 NA
ATOM     10  C   UNL     1      -0.458   8.974  22.794  0.00  0.00    +0.000 C 
ATOM     11  C   UNL     1       0.344   8.800  21.500  0.00  0.00    +0.000 C 
ATOM     12  N   UNL     1       0.735  10.163  21.213  0.00  0.00    +0.000 N 
ATOM     13  H   UNL     1       0.912  10.430  20.250  0.00  0.00    +0.000 HD
ENDBRANCH   6   8
BRANCH   5  14
ATOM     14  C   UNL     1      -1.933  11.763  20.028  0.00  0.00    +0.000 C 
BRANCH  14  15
ATOM     15  C   UNL     1      -2.387  11.359  18.634  0.00  0.00    +0.000 A 
ATOM     16  C   UNL     1      -1.675  10.570  17.710  0.00  0.00    +0.000 A 
ATOM     17 CL   UNL     1      -0.077   9.966  17.978  0.00  0.00    +0.000 Cl
ATOM     18  C   UNL     1      -2.269  10.159  16.501  0.00  0.00    +0.000 A 
ATOM     19  C   UNL     1      -3.590  10.479  16.204  0.00  0.00    +0.000 A 
ATOM     20  C   UNL     1      -4.330  11.214  17.116  0.00  0.00    +0.000 A 
ATOM     21  C   UNL     1      -3.743  11.642  18.308  0.00  0.00    +0.000 A 
ATOM     22 CL   UNL     1      -4.811  12.463  19.409  0.00  0.00    +0.000 Cl
ENDBRANCH  14  15
ENDBRANCH   5  14
TORSDOF 3
ENDMDL
MODEL 7
REMARK VINA RESULT:      -5.3     10.488     11.833
REMARK  Name = 
REMARK  4 active torsions:
REMARK  status: ('A' for Active; 'I' for Inactive)
REMARK    1  A    between atoms: C_1  and  N_2
REMARK    2  A    between atoms: N_5  and  C_6
REMARK    3  A    between atoms: C_6  and  C_7
REMARK    4  A    between atoms: C_15  and  C_16
REMARK                            x       y       z     vdW  Elec       q    Type
REMARK                         _______ _______ _______ _____ _____    ______ ____
ROOT
ATOM      1  C   UNL     1      -7.057  13.956  16.716  0.00  0.00    +0.000 C 
ATOM      2  N   UNL     1      -7.369  13.838  18.146  0.00  0.00    +0.000 NA
ATOM      3  C   UNL     1      -6.376  14.545  18.961  0.00  0.00    +0.000 C 
ATOM      4  C   UNL     1      -6.661  14.380  20.476  0.00  0.00    +0.000 C 
ATOM      5  N   UNL     1      -6.730  12.988  21.003  0.00  0.00    +0.000 NA
ATOM      6  C   UNL     1      -7.602  12.173  20.063  0.00  0.00    +0.000 C 
ATOM      7  C   UNL     1      -7.356  12.416  18.542  0.00  0.00    +0.000 C 
ENDROOT
BRANCH   6   8
ATOM      8  C   UNL     1      -7.459  10.657  20.335  0.00  0.00    +0.000 C 
ATOM      9  N   UNL     1      -7.916  10.119  21.441  0.00  0.00    +0.000 NA
ATOM     10  C   UNL     1      -7.759   8.656  21.262  0.00  0.00    +0.000 C 
ATOM     11  C   UNL     1      -7.360   8.439  19.798  0.00  0.00    +0.000 C 
ATOM     12  N   UNL     1      -6.965   9.773  19.402  0.00  0.00    +0.000 N 
ATOM     13  H   UNL     1      -7.042  10.037  18.425  0.00  0.00    +0.000 HD
ENDBRANCH   6   8
BRANCH   5  14
ATOM     14  C   UNL     1      -5.400  12.372  21.141  0.00  0.00    +0.000 C 
BRANCH  14  15
ATOM     15  C   UNL     1      -4.356  12.877  22.127  0.00  0.00    +0.000 A 
ATOM     16  C   UNL     1      -3.078  13.380  21.818  0.00  0.00    +0.000 A 
ATOM     17 CL   UNL     1      -2.419  13.443  20.220  0.00  0.00    +0.000 Cl
ATOM     18  C   UNL     1      -2.260  13.939  22.819  0.00  0.00    +0.000 A 
ATOM     19  C   UNL     1      -2.708  14.056  24.131  0.00  0.00    +0.000 A 
ATOM     20  C   UNL     1      -3.980  13.612  24.454  0.00  0.00    +0.000 A 
ATOM     21  C   UNL     1      -4.790  13.039  23.473  0.00  0.00    +0.000 A 
ATOM     22 CL   UNL     1      -6.399  12.624  23.987  0.00  0.00    +0.000 Cl
ENDBRANCH  14  15
ENDBRANCH   5  14
TORSDOF 3
ENDMDL
MODEL 8
REMARK VINA RESULT:      -5.3      5.560      8.306
REMARK  Name = 
REMARK  4 active torsions:
REMARK  status: ('A' for Active; 'I' for Inactive)
REMARK    1  A    between atoms: C_1  and  N_2
REMARK    2  A    between atoms: N_5  and  C_6
REMARK    3  A    between atoms: C_6  and  C_7
REMARK    4  A    between atoms: C_15  and  C_16
REMARK                            x       y       z     vdW  Elec       q    Type
REMARK                         _______ _______ _______ _____ _____    ______ ____
ROOT
ATOM      1  C   UNL     1      -3.399  10.206  14.534  0.00  0.00    +0.000 C 
ATOM      2  N   UNL     1      -3.517  10.201  15.997  0.00  0.00    +0.000 NA
ATOM      3  C   UNL     1      -4.087  11.462  16.483  0.00  0.00    +0.000 C 
ATOM      4  C   UNL     1      -4.163  11.494  18.031  0.00  0.00    +0.000 C 
ATOM      5  N   UNL     1      -2.887  11.291  18.774  0.00  0.00    +0.000 NA
ATOM      6  C   UNL     1      -2.172  10.098  18.161  0.00  0.00    +0.000 C 
ATOM      7  C   UNL     1      -2.179  10.042  16.603  0.00  0.00    +0.000 C 
ENDROOT
BRANCH   6   8
ATOM      8  C   UNL     1      -0.701  10.019  18.636  0.00  0.00    +0.000 C 
ATOM      9  N   UNL     1      -0.406   9.815  19.898  0.00  0.00    +0.000 NA
ATOM     10  C   UNL     1       1.065   9.626  19.932  0.00  0.00    +0.000 C 
ATOM     11  C   UNL     1       1.522   9.522  18.473  0.00  0.00    +0.000 C 
ATOM     12  N   UNL     1       0.367  10.033  17.768  0.00  0.00    +0.000 N 
ATOM     13  H   UNL     1       0.197   9.723  16.816  0.00  0.00    +0.000 HD
ENDBRANCH   6   8
BRANCH   5  14
ATOM     14  C   UNL     1      -2.024  12.483  18.748  0.00  0.00    +0.000 C 
BRANCH  14  15
ATOM     15  C   UNL     1      -1.522  13.164  20.012  0.00  0.00    +0.000 A 
ATOM     16  C   UNL     1      -2.210  13.289  21.234  0.00  0.00    +0.000 A 
ATOM     17 CL   UNL     1      -3.828  12.740  21.497  0.00  0.00    +0.000 Cl
ATOM     18  C   UNL     1      -1.575  13.829  22.369  0.00  0.00    +0.000 A 
ATOM     19  C   UNL     1      -0.237  14.210  22.332  0.00  0.00    +0.000 A 
ATOM     20  C   UNL     1       0.478  14.054  21.156  0.00  0.00    +0.000 A 
ATOM     21  C   UNL     1      -0.149  13.538  20.020  0.00  0.00    +0.000 A 
ATOM     22 CL   UNL     1       0.889  13.295  18.645  0.00  0.00    +0.000 Cl
ENDBRANCH  14  15
ENDBRANCH   5  14
TORSDOF 3
ENDMDL
MODEL 9
REMARK VINA RESULT:      -5.2      2.140      4.310
REMARK  Name = 
REMARK  4 active torsions:
REMARK  status: ('A' for Active; 'I' for Inactive)
REMARK    1  A    between atoms: C_1  and  N_2
REMARK    2  A    between atoms: N_5  and  C_6
REMARK    3  A    between atoms: C_6  and  C_7
REMARK    4  A    between atoms: C_15  and  C_16
REMARK                            x       y       z     vdW  Elec       q    Type
REMARK                         _______ _______ _______ _____ _____    ______ ____
ROOT
ATOM      1  C   UNL     1       6.339   3.990  13.324  0.00  0.00    +0.000 C 
ATOM      2  N   UNL     1       6.278   3.779  14.776  0.00  0.00    +0.000 NA
ATOM      3  C   UNL     1       4.895   3.565  15.218  0.00  0.00    +0.000 C 
ATOM      4  C   UNL     1       4.809   3.398  16.757  0.00  0.00    +0.000 C 
ATOM      5  N   UNL     1       5.354   4.508  17.588  0.00  0.00    +0.000 NA
ATOM      6  C   UNL     1       6.714   4.889  17.030  0.00  0.00    +0.000 C 
ATOM      7  C   UNL     1       6.801   4.971  15.475  0.00  0.00    +0.000 C 
ENDROOT
BRANCH   6   8
ATOM      8  C   UNL     1       7.202   6.240  17.607  0.00  0.00    +0.000 C 
ATOM      9  N   UNL     1       7.939   6.288  18.691  0.00  0.00    +0.000 NA
ATOM     10  C   UNL     1       8.349   7.706  18.826  0.00  0.00    +0.000 C 
ATOM     11  C   UNL     1       7.925   8.405  17.530  0.00  0.00    +0.000 C 
ATOM     12  N   UNL     1       7.003   7.442  16.967  0.00  0.00    +0.000 N 
ATOM     13  H   UNL     1       6.874   7.418  15.961  0.00  0.00    +0.000 HD
ENDBRANCH   6   8
BRANCH   5  14
ATOM     14  C   UNL     1       4.460   5.678  17.621  0.00  0.00    +0.000 C 
BRANCH  14  15
ATOM     15  C   UNL     1       3.533   5.974  18.790  0.00  0.00    +0.000 A 
ATOM     16  C   UNL     1       2.707   7.104  18.947  0.00  0.00    +0.000 A 
ATOM     17 CL   UNL     1       2.657   8.431  17.839  0.00  0.00    +0.000 Cl
ATOM     18  C   UNL     1       1.796   7.190  20.017  0.00  0.00    +0.000 A 
ATOM     19  C   UNL     1       1.650   6.145  20.924  0.00  0.00    +0.000 A 
ATOM     20  C   UNL     1       2.416   5.001  20.767  0.00  0.00    +0.000 A 
ATOM     21  C   UNL     1       3.336   4.915  19.720  0.00  0.00    +0.000 A 
ATOM     22 CL   UNL     1       4.154   3.386  19.574  0.00  0.00    +0.000 Cl
ENDBRANCH  14  15
ENDBRANCH   5  14
TORSDOF 3
ENDMDL
