MODEL 1
REMARK VINA RESULT:      -7.1      0.000      0.000
REMARK  Name = 
REMARK  8 active torsions:
REMARK  status: ('A' for Active; 'I' for Inactive)
REMARK    1  A    between atoms: C_1  and  C_2
REMARK    2  A    between atoms: C_2  and  C_3
REMARK    3  A    between atoms: C_3  and  C_4
REMARK    4  A    between atoms: C_3  and  C_11
REMARK    5  A    between atoms: C_7  and  O_8
REMARK    6  A    between atoms: C_11  and  C_12
REMARK    7  A    between atoms: C_11  and  C_13
REMARK    8  A    between atoms: C_16  and  O_17
REMARK                            x       y       z     vdW  Elec       q    Type
REMARK                         _______ _______ _______ _____ _____    ______ ____
ROOT
ATOM      1  C   UNL     1       2.697   4.342  18.926  0.00  0.00    +0.000 C 
ENDROOT
BRANCH   1   2
ATOM      2  C   UNL     1       2.433   5.847  19.105  0.00  0.00    +0.000 A 
ATOM      3  C   UNL     1       2.008   6.398  20.330  0.00  0.00    +0.000 A 
ATOM      4  C   UNL     1       1.631   7.737  20.435  0.00  0.00    +0.000 A 
ATOM      5  C   UNL     1       1.714   8.559  19.320  0.00  0.00    +0.000 A 
ATOM      6  C   UNL     1       2.210   8.065  18.119  0.00  0.00    +0.000 A 
ATOM      7  C   UNL     1       2.567   6.717  18.012  0.00  0.00    +0.000 A 
BRANCH   5   8
ATOM      8  O   UNL     1       1.303   9.857  19.365  0.00  0.00    +0.000 OA
ATOM      9  H   UNL     1       1.609  10.246  20.202  0.00  0.00    +0.000 HD
ENDBRANCH   5   8
ENDBRANCH   1   2
BRANCH   1  11
ATOM     10  C   UNL     1       0.837   2.546  18.793  0.00  0.00    +0.000 C 
ATOM     11  C   UNL     1       1.677   3.453  19.690  0.00  0.00    +0.000 C 
ENDBRANCH   1  11
BRANCH   1  12
ATOM     12  C   UNL     1       4.189   3.966  19.235  0.00  0.00    +0.000 C 
ATOM     13  C   UNL     1       4.355   2.543  19.799  0.00  0.00    +0.000 C 
BRANCH  12  14
ATOM     14  C   UNL     1       5.164   4.205  18.072  0.00  0.00    +0.000 A 
ATOM     15  C   UNL     1       4.768   3.929  16.750  0.00  0.00    +0.000 A 
ATOM     16  C   UNL     1       5.584   4.274  15.664  0.00  0.00    +0.000 A 
ATOM     17  C   UNL     1       6.809   4.890  15.894  0.00  0.00    +0.000 A 
ATOM     18  C   UNL     1       7.249   5.121  17.188  0.00  0.00    +0.000 A 
ATOM     19  C   UNL     1       6.434   4.775  18.269  0.00  0.00    +0.000 A 
BRANCH  17  20
ATOM     20  O   UNL     1       7.609   5.303  14.870  0.00  0.00    +0.000 OA
ATOM     21  H   UNL     1       8.496   5.481  15.222  0.00  0.00    +0.000 HD
ENDBRANCH  17  20
ENDBRANCH  12  14
ENDBRANCH   1  12
TORSDOF 6
ENDMDL
MODEL 2
REMARK VINA RESULT:      -7.1      2.698      4.765
REMARK  Name = 
REMARK  8 active torsions:
REMARK  status: ('A' for Active; 'I' for Inactive)
REMARK    1  A    between atoms: C_1  and  C_2
REMARK    2  A    between atoms: C_2  and  C_3
REMARK    3  A    between atoms: C_3  and  C_4
REMARK    4  A    between atoms: C_3  and  C_11
REMARK    5  A    between atoms: C_7  and  O_8
REMARK    6  A    between atoms: C_11  and  C_12
REMARK    7  A    between atoms: C_11  and  C_13
REMARK    8  A    between atoms: C_16  and  O_17
REMARK                            x       y       z     vdW  Elec       q    Type
REMARK                         _______ _______ _______ _____ _____    ______ ____
ROOT
ATOM      1  C   UNL     1       3.855   6.217  17.994  0.00  0.00    +0.000 C 
ENDROOT
BRANCH   1   2
ATOM      2  C   UNL     1       2.818   7.256  18.455  0.00  0.00    +0.000 A 
ATOM      3  C   UNL     1       2.337   8.270  17.602  0.00  0.00    +0.000 A 
ATOM      4  C   UNL     1       1.513   9.291  18.078  0.00  0.00    +0.000 A 
ATOM      5  C   UNL     1       1.121   9.288  19.410  0.00  0.00    +0.000 A 
ATOM      6  C   UNL     1       1.510   8.254  20.254  0.00  0.00    +0.000 A 
ATOM      7  C   UNL     1       2.354   7.245  19.779  0.00  0.00    +0.000 A 
BRANCH   5   8
ATOM      8  O   UNL     1       0.364  10.295  19.927  0.00  0.00    +0.000 OA
ATOM      9  H   UNL     1      -0.325  10.524  19.280  0.00  0.00    +0.000 HD
ENDBRANCH   5   8
ENDBRANCH   1   2
BRANCH   1  11
ATOM     10  C   UNL     1       6.256   6.892  17.299  0.00  0.00    +0.000 C 
ATOM     11  C   UNL     1       4.794   6.752  16.878  0.00  0.00    +0.000 C 
ENDBRANCH   1  11
BRANCH   1  12
ATOM     12  C   UNL     1       3.189   4.844  17.628  0.00  0.00    +0.000 C 
ATOM     13  C   UNL     1       4.071   3.959  16.729  0.00  0.00    +0.000 C 
BRANCH  12  14
ATOM     14  C   UNL     1       2.667   4.045  18.832  0.00  0.00    +0.000 A 
ATOM     15  C   UNL     1       3.570   3.493  19.760  0.00  0.00    +0.000 A 
ATOM     16  C   UNL     1       3.116   2.887  20.938  0.00  0.00    +0.000 A 
ATOM     17  C   UNL     1       1.751   2.818  21.194  0.00  0.00    +0.000 A 
ATOM     18  C   UNL     1       0.837   3.302  20.270  0.00  0.00    +0.000 A 
ATOM     19  C   UNL     1       1.293   3.905  19.095  0.00  0.00    +0.000 A 
BRANCH  17  20
ATOM     20  O   UNL     1       1.262   2.297  22.355  0.00  0.00    +0.000 OA
ATOM     21  H   UNL     1       0.635   2.930  22.739  0.00  0.00    +0.000 HD
ENDBRANCH  17  20
ENDBRANCH  12  14
ENDBRANCH   1  12
TORSDOF 6
ENDMDL
MODEL 3
REMARK VINA RESULT:      -7.0      2.673      4.647
REMARK  Name = 
REMARK  8 active torsions:
REMARK  status: ('A' for Active; 'I' for Inactive)
REMARK    1  A    between atoms: C_1  and  C_2
REMARK    2  A    between atoms: C_2  and  C_3
REMARK    3  A    between atoms: C_3  and  C_4
REMARK    4  A    between atoms: C_3  and  C_11
REMARK    5  A    between atoms: C_7  and  O_8
REMARK    6  A    between atoms: C_11  and  C_12
REMARK    7  A    between atoms: C_11  and  C_13
REMARK    8  A    between atoms: C_16  and  O_17
REMARK                            x       y       z     vdW  Elec       q    Type
REMARK                         _______ _______ _______ _____ _____    ______ ____
ROOT
ATOM      1  C   UNL     1       3.977   6.141  17.997  0.00  0.00    +0.000 C 
ENDROOT
BRANCH   1   2
ATOM      2  C   UNL     1       3.017   7.231  18.504  0.00  0.00    +0.000 A 
ATOM      3  C   UNL     1       2.488   7.221  19.810  0.00  0.00    +0.000 A 
ATOM      4  C   UNL     1       1.506   8.130  20.204  0.00  0.00    +0.000 A 
ATOM      5  C   UNL     1       1.068   9.095  19.307  0.00  0.00    +0.000 A 
ATOM      6  C   UNL     1       1.633   9.183  18.040  0.00  0.00    +0.000 A 
ATOM      7  C   UNL     1       2.602   8.256  17.641  0.00  0.00    +0.000 A 
BRANCH   5   8
ATOM      8  O   UNL     1       0.072   9.966  19.633  0.00  0.00    +0.000 OA
ATOM      9  H   UNL     1       0.197  10.780  19.116  0.00  0.00    +0.000 HD
ENDBRANCH   5   8
ENDBRANCH   1   2
BRANCH   1  11
ATOM     10  C   UNL     1       6.375   6.799  17.276  0.00  0.00    +0.000 C 
ATOM     11  C   UNL     1       4.914   6.639  16.862  0.00  0.00    +0.000 C 
ENDBRANCH   1  11
BRANCH   1  12
ATOM     12  C   UNL     1       3.221   4.816  17.630  0.00  0.00    +0.000 C 
ATOM     13  C   UNL     1       4.026   3.892  16.697  0.00  0.00    +0.000 C 
BRANCH  12  14
ATOM     14  C   UNL     1       2.681   4.032  18.835  0.00  0.00    +0.000 A 
ATOM     15  C   UNL     1       3.572   3.446  19.754  0.00  0.00    +0.000 A 
ATOM     16  C   UNL     1       3.106   2.852  20.934  0.00  0.00    +0.000 A 
ATOM     17  C   UNL     1       1.742   2.831  21.201  0.00  0.00    +0.000 A 
ATOM     18  C   UNL     1       0.838   3.349  20.287  0.00  0.00    +0.000 A 
ATOM     19  C   UNL     1       1.305   3.940  19.110  0.00  0.00    +0.000 A 
BRANCH  17  20
ATOM     20  O   UNL     1       1.245   2.323  22.365  0.00  0.00    +0.000 OA
ATOM     21  H   UNL     1       0.474   2.851  22.629  0.00  0.00    +0.000 HD
ENDBRANCH  17  20
ENDBRANCH  12  14
ENDBRANCH   1  12
TORSDOF 6
ENDMDL
MODEL 4
REMARK VINA RESULT:      -6.9      0.911      5.754
REMARK  Name = 
REMARK  8 active torsions:
REMARK  status: ('A' for Active; 'I' for Inactive)
REMARK    1  A    between atoms: C_1  and  C_2
REMARK    2  A    between atoms: C_2  and  C_3
REMARK    3  A    between atoms: C_3  and  C_4
REMARK    4  A    between atoms: C_3  and  C_11
REMARK    5  A    between atoms: C_7  and  O_8
REMARK    6  A    between atoms: C_11  and  C_12
REMARK    7  A    between atoms: C_11  and  C_13
REMARK    8  A    between atoms: C_16  and  O_17
REMARK                            x       y       z     vdW  Elec       q    Type
REMARK                         _______ _______ _______ _____ _____    ______ ____
ROOT
ATOM      1  C   UNL     1       4.031   4.141  18.328  0.00  0.00    +0.000 C 
ENDROOT
BRANCH   1   2
ATOM      2  C   UNL     1       5.116   4.356  17.257  0.00  0.00    +0.000 A 
ATOM      3  C   UNL     1       6.457   4.636  17.589  0.00  0.00    +0.000 A 
ATOM      4  C   UNL     1       7.392   4.975  16.611  0.00  0.00    +0.000 A 
ATOM      5  C   UNL     1       7.009   4.997  15.276  0.00  0.00    +0.000 A 
ATOM      6  C   UNL     1       5.715   4.642  14.912  0.00  0.00    +0.000 A 
ATOM      7  C   UNL     1       4.774   4.324  15.897  0.00  0.00    +0.000 A 
BRANCH   5   8
ATOM      8  O   UNL     1       7.876   5.376  14.296  0.00  0.00    +0.000 OA
ATOM      9  H   UNL     1       8.377   4.593  14.012  0.00  0.00    +0.000 HD
ENDBRANCH   5   8
ENDBRANCH   1   2
BRANCH   1  11
ATOM     10  C   UNL     1       4.091   2.363  20.208  0.00  0.00    +0.000 C 
ATOM     11  C   UNL     1       3.861   2.649  18.726  0.00  0.00    +0.000 C 
ENDBRANCH   1  11
BRANCH   1  12
ATOM     12  C   UNL     1       2.677   4.831  17.939  0.00  0.00    +0.000 C 
ATOM     13  C   UNL     1       1.469   3.878  17.998  0.00  0.00    +0.000 C 
BRANCH  12  14
ATOM     14  C   UNL     1       2.379   6.132  18.698  0.00  0.00    +0.000 A 
ATOM     15  C   UNL     1       2.343   7.360  18.010  0.00  0.00    +0.000 A 
ATOM     16  C   UNL     1       1.934   8.536  18.652  0.00  0.00    +0.000 A 
ATOM     17  C   UNL     1       1.565   8.496  19.992  0.00  0.00    +0.000 A 
ATOM     18  C   UNL     1       1.646   7.312  20.708  0.00  0.00    +0.000 A 
ATOM     19  C   UNL     1       2.056   6.140  20.067  0.00  0.00    +0.000 A 
BRANCH  17  20
ATOM     20  O   UNL     1       1.098   9.599  20.643  0.00  0.00    +0.000 OA
ATOM     21  H   UNL     1       0.128   9.586  20.618  0.00  0.00    +0.000 HD
ENDBRANCH  17  20
ENDBRANCH  12  14
ENDBRANCH   1  12
TORSDOF 6
ENDMDL
MODEL 5
REMARK VINA RESULT:      -6.9      0.387      1.164
REMARK  Name = 
REMARK  8 active torsions:
REMARK  status: ('A' for Active; 'I' for Inactive)
REMARK    1  A    between atoms: C_1  and  C_2
REMARK    2  A    between atoms: C_2  and  C_3
REMARK    3  A    between atoms: C_3  and  C_4
REMARK    4  A    between atoms: C_3  and  C_11
REMARK    5  A    between atoms: C_7  and  O_8
REMARK    6  A    between atoms: C_11  and  C_12
REMARK    7  A    between atoms: C_11  and  C_13
REMARK    8  A    between atoms: C_16  and  O_17
REMARK                            x       y       z     vdW  Elec       q    Type
REMARK                         _______ _______ _______ _____ _____    ______ ____
ROOT
ATOM      1  C   UNL     1       2.733   4.062  18.964  0.00  0.00    +0.000 C 
ENDROOT
BRANCH   1   2
ATOM      2  C   UNL     1       2.294   5.515  19.217  0.00  0.00    +0.000 A 
ATOM      3  C   UNL     1       2.462   6.531  18.256  0.00  0.00    +0.000 A 
ATOM      4  C   UNL     1       2.197   7.868  18.556  0.00  0.00    +0.000 A 
ATOM      5  C   UNL     1       1.717   8.204  19.814  0.00  0.00    +0.000 A 
ATOM      6  C   UNL     1       1.460   7.213  20.754  0.00  0.00    +0.000 A 
ATOM      7  C   UNL     1       1.747   5.877  20.458  0.00  0.00    +0.000 A 
BRANCH   5   8
ATOM      8  O   UNL     1       1.498   9.502  20.165  0.00  0.00    +0.000 OA
ATOM      9  H   UNL     1       0.837   9.876  19.559  0.00  0.00    +0.000 HD
ENDBRANCH   5   8
ENDBRANCH   1   2
BRANCH   1  11
ATOM     10  C   UNL     1       0.739   2.425  18.755  0.00  0.00    +0.000 C 
ATOM     11  C   UNL     1       1.813   3.022  19.661  0.00  0.00    +0.000 C 
ENDBRANCH   1  11
BRANCH   1  12
ATOM     12  C   UNL     1       4.254   3.844  19.281  0.00  0.00    +0.000 C 
ATOM     13  C   UNL     1       4.556   2.471  19.908  0.00  0.00    +0.000 C 
BRANCH  12  14
ATOM     14  C   UNL     1       5.199   4.122  18.102  0.00  0.00    +0.000 A 
ATOM     15  C   UNL     1       4.764   3.909  16.781  0.00  0.00    +0.000 A 
ATOM     16  C   UNL     1       5.554   4.291  15.689  0.00  0.00    +0.000 A 
ATOM     17  C   UNL     1       6.794   4.880  15.910  0.00  0.00    +0.000 A 
ATOM     18  C   UNL     1       7.272   5.049  17.200  0.00  0.00    +0.000 A 
ATOM     19  C   UNL     1       6.483   4.666  18.288  0.00  0.00    +0.000 A 
BRANCH  17  20
ATOM     20  O   UNL     1       7.571   5.328  14.883  0.00  0.00    +0.000 OA
ATOM     21  H   UNL     1       7.030   5.896  14.311  0.00  0.00    +0.000 HD
ENDBRANCH  17  20
ENDBRANCH  12  14
ENDBRANCH   1  12
TORSDOF 6
ENDMDL
MODEL 6
REMARK VINA RESULT:      -6.9      0.289      1.141
REMARK  Name = 
REMARK  8 active torsions:
REMARK  status: ('A' for Active; 'I' for Inactive)
REMARK    1  A    between atoms: C_1  and  C_2
REMARK    2  A    between atoms: C_2  and  C_3
REMARK    3  A    between atoms: C_3  and  C_4
REMARK    4  A    between atoms: C_3  and  C_11
REMARK    5  A    between atoms: C_7  and  O_8
REMARK    6  A    between atoms: C_11  and  C_12
REMARK    7  A    between atoms: C_11  and  C_13
REMARK    8  A    between atoms: C_16  and  O_17
REMARK                            x       y       z     vdW  Elec       q    Type
REMARK                         _______ _______ _______ _____ _____    ______ ____
ROOT
ATOM      1  C   UNL     1       2.657   4.519  19.049  0.00  0.00    +0.000 C 
ENDROOT
BRANCH   1   2
ATOM      2  C   UNL     1       2.363   6.016  19.252  0.00  0.00    +0.000 A 
ATOM      3  C   UNL     1       1.908   6.535  20.480  0.00  0.00    +0.000 A 
ATOM      4  C   UNL     1       1.505   7.865  20.604  0.00  0.00    +0.000 A 
ATOM      5  C   UNL     1       1.592   8.710  19.506  0.00  0.00    +0.000 A 
ATOM      6  C   UNL     1       2.117   8.248  18.305  0.00  0.00    +0.000 A 
ATOM      7  C   UNL     1       2.499   6.909  18.178  0.00  0.00    +0.000 A 
BRANCH   5   8
ATOM      8  O   UNL     1       1.157   9.999  19.569  0.00  0.00    +0.000 OA
ATOM      9  H   UNL     1       0.223   9.995  19.840  0.00  0.00    +0.000 HD
ENDBRANCH   5   8
ENDBRANCH   1   2
BRANCH   1  11
ATOM     10  C   UNL     1       0.770   2.747  19.075  0.00  0.00    +0.000 C 
ATOM     11  C   UNL     1       1.734   3.600  19.896  0.00  0.00    +0.000 C 
ENDBRANCH   1  11
BRANCH   1  12
ATOM     12  C   UNL     1       4.181   4.190  19.228  0.00  0.00    +0.000 C 
ATOM     13  C   UNL     1       4.445   2.729  19.635  0.00  0.00    +0.000 C 
BRANCH  12  14
ATOM     14  C   UNL     1       5.066   4.589  18.038  0.00  0.00    +0.000 A 
ATOM     15  C   UNL     1       6.285   5.259  18.256  0.00  0.00    +0.000 A 
ATOM     16  C   UNL     1       7.174   5.504  17.202  0.00  0.00    +0.000 A 
ATOM     17  C   UNL     1       6.847   5.090  15.916  0.00  0.00    +0.000 A 
ATOM     18  C   UNL     1       5.628   4.480  15.663  0.00  0.00    +0.000 A 
ATOM     19  C   UNL     1       4.742   4.237  16.716  0.00  0.00    +0.000 A 
BRANCH  17  20
ATOM     20  O   UNL     1       7.706   5.247  14.869  0.00  0.00    +0.000 OA
ATOM     21  H   UNL     1       7.195   5.234  14.045  0.00  0.00    +0.000 HD
ENDBRANCH  17  20
ENDBRANCH  12  14
ENDBRANCH   1  12
TORSDOF 6
ENDMDL
MODEL 7
REMARK VINA RESULT:      -6.8      0.915      5.780
REMARK  Name = 
REMARK  8 active torsions:
REMARK  status: ('A' for Active; 'I' for Inactive)
REMARK    1  A    between atoms: C_1  and  C_2
REMARK    2  A    between atoms: C_2  and  C_3
REMARK    3  A    between atoms: C_3  and  C_4
REMARK    4  A    between atoms: C_3  and  C_11
REMARK    5  A    between atoms: C_7  and  O_8
REMARK    6  A    between atoms: C_11  and  C_12
REMARK    7  A    between atoms: C_11  and  C_13
REMARK    8  A    between atoms: C_16  and  O_17
REMARK                            x       y       z     vdW  Elec       q    Type
REMARK                         _______ _______ _______ _____ _____    ______ ____
ROOT
ATOM      1  C   UNL     1       3.958   4.244  18.319  0.00  0.00    +0.000 C 
ENDROOT
BRANCH   1   2
ATOM      2  C   UNL     1       4.953   4.625  17.208  0.00  0.00    +0.000 A 
ATOM      3  C   UNL     1       5.000   3.949  15.974  0.00  0.00    +0.000 A 
ATOM      4  C   UNL     1       6.003   4.208  15.039  0.00  0.00    +0.000 A 
ATOM      5  C   UNL     1       6.953   5.183  15.309  0.00  0.00    +0.000 A 
ATOM      6  C   UNL     1       6.882   5.927  16.482  0.00  0.00    +0.000 A 
ATOM      7  C   UNL     1       5.888   5.649  17.426  0.00  0.00    +0.000 A 
BRANCH   5   8
ATOM      8  O   UNL     1       7.980   5.429  14.450  0.00  0.00    +0.000 OA
ATOM      9  H   UNL     1       8.795   5.062  14.833  0.00  0.00    +0.000 HD
ENDBRANCH   5   8
ENDBRANCH   1   2
BRANCH   1  11
ATOM     10  C   UNL     1       4.370   2.326  20.008  0.00  0.00    +0.000 C 
ATOM     11  C   UNL     1       3.922   2.717  18.601  0.00  0.00    +0.000 C 
ENDBRANCH   1  11
BRANCH   1  12
ATOM     12  C   UNL     1       2.534   4.854  18.068  0.00  0.00    +0.000 C 
ATOM     13  C   UNL     1       1.389   3.863  18.342  0.00  0.00    +0.000 C 
BRANCH  12  14
ATOM     14  C   UNL     1       2.276   6.190  18.780  0.00  0.00    +0.000 A 
ATOM     15  C   UNL     1       2.297   7.395  18.053  0.00  0.00    +0.000 A 
ATOM     16  C   UNL     1       1.923   8.607  18.650  0.00  0.00    +0.000 A 
ATOM     17  C   UNL     1       1.535   8.625  19.985  0.00  0.00    +0.000 A 
ATOM     18  C   UNL     1       1.561   7.463  20.740  0.00  0.00    +0.000 A 
ATOM     19  C   UNL     1       1.935   6.256  20.143  0.00  0.00    +0.000 A 
BRANCH  17  20
ATOM     20  O   UNL     1       1.102   9.766  20.592  0.00  0.00    +0.000 OA
ATOM     21  H   UNL     1       0.277   9.570  21.066  0.00  0.00    +0.000 HD
ENDBRANCH  17  20
ENDBRANCH  12  14
ENDBRANCH   1  12
TORSDOF 6
ENDMDL
MODEL 8
REMARK VINA RESULT:      -6.7      0.374      1.602
REMARK  Name = 
REMARK  8 active torsions:
REMARK  status: ('A' for Active; 'I' for Inactive)
REMARK    1  A    between atoms: C_1  and  C_2
REMARK    2  A    between atoms: C_2  and  C_3
REMARK    3  A    between atoms: C_3  and  C_4
REMARK    4  A    between atoms: C_3  and  C_11
REMARK    5  A    between atoms: C_7  and  O_8
REMARK    6  A    between atoms: C_11  and  C_12
REMARK    7  A    between atoms: C_11  and  C_13
REMARK    8  A    between atoms: C_16  and  O_17
REMARK                            x       y       z     vdW  Elec       q    Type
REMARK                         _______ _______ _______ _____ _____    ______ ____
ROOT
ATOM      1  C   UNL     1       2.649   4.253  18.973  0.00  0.00    +0.000 C 
ENDROOT
BRANCH   1   2
ATOM      2  C   UNL     1       2.217   5.706  19.239  0.00  0.00    +0.000 A 
ATOM      3  C   UNL     1       2.368   6.725  18.279  0.00  0.00    +0.000 A 
ATOM      4  C   UNL     1       2.110   8.061  18.589  0.00  0.00    +0.000 A 
ATOM      5  C   UNL     1       1.654   8.393  19.858  0.00  0.00    +0.000 A 
ATOM      6  C   UNL     1       1.414   7.398  20.799  0.00  0.00    +0.000 A 
ATOM      7  C   UNL     1       1.695   6.063  20.492  0.00  0.00    +0.000 A 
BRANCH   5   8
ATOM      8  O   UNL     1       1.444   9.689  20.218  0.00  0.00    +0.000 OA
ATOM      9  H   UNL     1       0.541   9.937  19.956  0.00  0.00    +0.000 HD
ENDBRANCH   5   8
ENDBRANCH   1   2
BRANCH   1  11
ATOM     10  C   UNL     1       0.825   2.421  18.829  0.00  0.00    +0.000 C 
ATOM     11  C   UNL     1       1.774   3.213  19.726  0.00  0.00    +0.000 C 
ENDBRANCH   1  11
BRANCH   1  12
ATOM     12  C   UNL     1       4.187   4.045  19.206  0.00  0.00    +0.000 C 
ATOM     13  C   UNL     1       4.547   2.618  19.660  0.00  0.00    +0.000 C 
BRANCH  12  14
ATOM     14  C   UNL     1       5.078   4.482  18.034  0.00  0.00    +0.000 A 
ATOM     15  C   UNL     1       6.334   5.068  18.281  0.00  0.00    +0.000 A 
ATOM     16  C   UNL     1       7.222   5.341  17.232  0.00  0.00    +0.000 A 
ATOM     17  C   UNL     1       6.856   5.041  15.925  0.00  0.00    +0.000 A 
ATOM     18  C   UNL     1       5.603   4.517  15.648  0.00  0.00    +0.000 A 
ATOM     19  C   UNL     1       4.718   4.246  16.696  0.00  0.00    +0.000 A 
BRANCH  17  20
ATOM     20  O   UNL     1       7.709   5.228  14.878  0.00  0.00    +0.000 OA
ATOM     21  H   UNL     1       8.486   5.715  15.196  0.00  0.00    +0.000 HD
ENDBRANCH  17  20
ENDBRANCH  12  14
ENDBRANCH   1  12
TORSDOF 6
ENDMDL
MODEL 9
REMARK VINA RESULT:      -6.7      1.545      1.934
REMARK  Name = 
REMARK  8 active torsions:
REMARK  status: ('A' for Active; 'I' for Inactive)
REMARK    1  A    between atoms: C_1  and  C_2
REMARK    2  A    between atoms: C_2  and  C_3
REMARK    3  A    between atoms: C_3  and  C_4
REMARK    4  A    between atoms: C_3  and  C_11
REMARK    5  A    between atoms: C_7  and  O_8
REMARK    6  A    between atoms: C_11  and  C_12
REMARK    7  A    between atoms: C_11  and  C_13
REMARK    8  A    between atoms: C_16  and  O_17
REMARK                            x       y       z     vdW  Elec       q    Type
REMARK                         _______ _______ _______ _____ _____    ______ ____
ROOT
ATOM      1  C   UNL     1       2.871   5.978  18.116  0.00  0.00    +0.000 C 
ENDROOT
BRANCH   1   2
ATOM      2  C   UNL     1       2.319   7.301  18.676  0.00  0.00    +0.000 A 
ATOM      3  C   UNL     1       1.958   7.454  20.029  0.00  0.00    +0.000 A 
ATOM      4  C   UNL     1       1.321   8.608  20.486  0.00  0.00    +0.000 A 
ATOM      5  C   UNL     1       1.074   9.649  19.601  0.00  0.00    +0.000 A 
ATOM      6  C   UNL     1       1.497   9.561  18.279  0.00  0.00    +0.000 A 
ATOM      7  C   UNL     1       2.115   8.393  17.820  0.00  0.00    +0.000 A 
BRANCH   5   8
ATOM      8  O   UNL     1       0.407  10.769  19.993  0.00  0.00    +0.000 OA
ATOM      9  H   UNL     1       0.167  10.670  20.931  0.00  0.00    +0.000 HD
ENDBRANCH   5   8
ENDBRANCH   1   2
BRANCH   1  11
ATOM     10  C   UNL     1       1.618   3.735  17.802  0.00  0.00    +0.000 C 
ATOM     11  C   UNL     1       2.238   4.727  18.783  0.00  0.00    +0.000 C 
ENDBRANCH   1  11
BRANCH   1  12
ATOM     12  C   UNL     1       4.440   5.947  18.120  0.00  0.00    +0.000 C 
ATOM     13  C   UNL     1       5.034   5.297  19.383  0.00  0.00    +0.000 C 
BRANCH  12  14
ATOM     14  C   UNL     1       5.072   5.349  16.854  0.00  0.00    +0.000 A 
ATOM     15  C   UNL     1       5.464   3.997  16.830  0.00  0.00    +0.000 A 
ATOM     16  C   UNL     1       5.907   3.394  15.645  0.00  0.00    +0.000 A 
ATOM     17  C   UNL     1       5.972   4.143  14.475  0.00  0.00    +0.000 A 
ATOM     18  C   UNL     1       5.647   5.490  14.483  0.00  0.00    +0.000 A 
ATOM     19  C   UNL     1       5.207   6.090  15.666  0.00  0.00    +0.000 A 
BRANCH  17  20
ATOM     20  O   UNL     1       6.334   3.586  13.285  0.00  0.00    +0.000 OA
ATOM     21  H   UNL     1       6.359   2.621  13.389  0.00  0.00    +0.000 HD
ENDBRANCH  17  20
ENDBRANCH  12  14
ENDBRANCH   1  12
TORSDOF 6
ENDMDL
