MODEL 1
REMARK VINA RESULT:      -8.0      0.000      0.000
REMARK  Name = 
REMARK  10 active torsions:
REMARK  status: ('A' for Active; 'I' for Inactive)
REMARK    1  A    between atoms: C_1  and  C_2
REMARK    2  A    between atoms: C_2  and  N_3
REMARK    3  A    between atoms: N_3  and  C_4
REMARK    4  A    between atoms: N_7  and  C_8
REMARK    5  A    between atoms: N_10  and  C_11
REMARK    6  A    between atoms: C_11  and  C_12
REMARK    7  A    between atoms: C_11  and  C_13
REMARK    8  A    between atoms: C_11  and  C_14
REMARK    9  A    between atoms: N_18  and  C_19
REMARK   10  A    between atoms: C_25  and  C_26
REMARK                            x       y       z     vdW  Elec       q    Type
REMARK                         _______ _______ _______ _____ _____    ______ ____
ROOT
ATOM      1  C   UNL     1      -0.015  10.470  18.573  0.00  0.00    +0.000 A 
ATOM      2  N   UNL     1       0.574   9.473  17.876  0.00  0.00    +0.000 NA
ATOM      3  C   UNL     1       1.427   8.666  18.511  0.00  0.00    +0.000 A 
ATOM      4  N   UNL     1       2.063   7.669  17.761  0.00  0.00    +0.000 N 
ATOM      5  N   UNL     1       1.686   8.749  19.823  0.00  0.00    +0.000 NA
ATOM      6  C   UNL     1       1.068   9.719  20.503  0.00  0.00    +0.000 A 
ATOM      7  C   UNL     1       0.216  10.632  19.924  0.00  0.00    +0.000 A 
ATOM      8  H   UNL     1       1.587   7.538  16.880  0.00  0.00    +0.000 HD
ENDROOT
BRANCH   4   9
ATOM      9  C   UNL     1       3.195   7.009  18.087  0.00  0.00    +0.000 A 
ATOM     10  C   UNL     1       4.410   7.168  17.473  0.00  0.00    +0.000 A 
ATOM     11  N   UNL     1       5.275   6.294  18.077  0.00  0.00    +0.000 N 
ATOM     12  N   UNL     1       4.673   5.559  19.047  0.00  0.00    +0.000 NA
ATOM     13  C   UNL     1       3.415   6.016  19.059  0.00  0.00    +0.000 A 
ATOM     14 CL   UNL     1       2.291   5.417  20.178  0.00  0.00    +0.000 Cl
BRANCH  11  15
ATOM     15  C   UNL     1       6.692   6.088  17.717  0.00  0.00    +0.000 C 
ATOM     16  C   UNL     1       7.396   7.470  17.633  0.00  0.00    +0.000 C 
ATOM     17  C   UNL     1       7.442   5.279  18.792  0.00  0.00    +0.000 C 
BRANCH  15  18
ATOM     18  C   UNL     1       6.770   5.417  16.354  0.00  0.00    +0.000 A 
ATOM     19  N   UNL     1       7.602   5.783  15.389  0.00  0.00    +0.000 NA
ATOM     20  N   UNL     1       7.350   5.035  14.273  0.00  0.00    +0.000 NA
ATOM     21  C   UNL     1       6.374   4.212  14.564  0.00  0.00    +0.000 A 
ATOM     22  N   UNL     1       5.996   4.388  15.864  0.00  0.00    +0.000 N 
ATOM     23  C   UNL     1       4.976   3.609  16.515  0.00  0.00    +0.000 C 
ENDBRANCH  15  18
ENDBRANCH  11  15
ENDBRANCH   4   9
BRANCH   7  24
ATOM     24  C   UNL     1      -0.428  11.637  20.802  0.00  0.00    +0.000 C 
ATOM     25  F   UNL     1      -0.195  12.934  20.461  0.00  0.00    +0.000 F 
ATOM     26  F   UNL     1      -1.785  11.508  20.799  0.00  0.00    +0.000 F 
ATOM     27  F   UNL     1      -0.055  11.517  22.105  0.00  0.00    +0.000 F 
ENDBRANCH   7  24
BRANCH   1  28
ATOM     28  N   UNL     1      -0.773  11.411  17.857  0.00  0.00    +0.000 N 
ATOM     29  H   UNL     1      -0.654  12.361  18.203  0.00  0.00    +0.000 HD
BRANCH  28  31
ATOM     30  C   UNL     1      -2.391  10.356  16.373  0.00  0.00    +0.000 C 
ATOM     31  C   UNL     1      -2.185  11.067  17.700  0.00  0.00    +0.000 C 
ENDBRANCH  28  31
ENDBRANCH   1  28
TORSDOF 6
ENDMDL
MODEL 2
REMARK VINA RESULT:      -7.8      1.039      1.361
REMARK  Name = 
REMARK  10 active torsions:
REMARK  status: ('A' for Active; 'I' for Inactive)
REMARK    1  A    between atoms: C_1  and  C_2
REMARK    2  A    between atoms: C_2  and  N_3
REMARK    3  A    between atoms: N_3  and  C_4
REMARK    4  A    between atoms: N_7  and  C_8
REMARK    5  A    between atoms: N_10  and  C_11
REMARK    6  A    between atoms: C_11  and  C_12
REMARK    7  A    between atoms: C_11  and  C_13
REMARK    8  A    between atoms: C_11  and  C_14
REMARK    9  A    between atoms: N_18  and  C_19
REMARK   10  A    between atoms: C_25  and  C_26
REMARK                            x       y       z     vdW  Elec       q    Type
REMARK                         _______ _______ _______ _____ _____    ______ ____
ROOT
ATOM      1  C   UNL     1       0.218  10.613  19.195  0.00  0.00    +0.000 A 
ATOM      2  N   UNL     1       0.809   9.777  18.313  0.00  0.00    +0.000 NA
ATOM      3  C   UNL     1       1.547   8.768  18.783  0.00  0.00    +0.000 A 
ATOM      4  N   UNL     1       2.190   7.941  17.854  0.00  0.00    +0.000 N 
ATOM      5  N   UNL     1       1.683   8.498  20.089  0.00  0.00    +0.000 NA
ATOM      6  C   UNL     1       1.063   9.315  20.945  0.00  0.00    +0.000 A 
ATOM      7  C   UNL     1       0.328  10.411  20.556  0.00  0.00    +0.000 A 
ATOM      8  H   UNL     1       1.794   8.075  16.935  0.00  0.00    +0.000 HD
ENDROOT
BRANCH   4   9
ATOM      9  C   UNL     1       3.244   7.130  18.086  0.00  0.00    +0.000 A 
ATOM     10  C   UNL     1       4.479   7.248  17.506  0.00  0.00    +0.000 A 
ATOM     11  N   UNL     1       5.240   6.214  17.981  0.00  0.00    +0.000 N 
ATOM     12  N   UNL     1       4.549   5.414  18.833  0.00  0.00    +0.000 NA
ATOM     13  C   UNL     1       3.344   5.990  18.906  0.00  0.00    +0.000 A 
ATOM     14 CL   UNL     1       2.144   5.356  19.923  0.00  0.00    +0.000 Cl
BRANCH  11  15
ATOM     15  C   UNL     1       6.636   5.917  17.601  0.00  0.00    +0.000 C 
ATOM     16  C   UNL     1       7.446   7.242  17.584  0.00  0.00    +0.000 C 
ATOM     17  C   UNL     1       7.323   4.997  18.627  0.00  0.00    +0.000 C 
BRANCH  15  18
ATOM     18  C   UNL     1       6.657   5.314  16.204  0.00  0.00    +0.000 A 
ATOM     19  N   UNL     1       7.470   5.709  15.234  0.00  0.00    +0.000 NA
ATOM     20  N   UNL     1       7.166   5.025  14.090  0.00  0.00    +0.000 NA
ATOM     21  C   UNL     1       6.178   4.212  14.369  0.00  0.00    +0.000 A 
ATOM     22  N   UNL     1       5.843   4.331  15.687  0.00  0.00    +0.000 N 
ATOM     23  C   UNL     1       4.823   3.544  16.329  0.00  0.00    +0.000 C 
ENDBRANCH  15  18
ENDBRANCH  11  15
ENDBRANCH   4   9
BRANCH   7  24
ATOM     24  C   UNL     1      -0.336  11.214  21.611  0.00  0.00    +0.000 C 
ATOM     25  F   UNL     1      -1.655  11.473  21.392  0.00  0.00    +0.000 F 
ATOM     26  F   UNL     1      -0.294  10.585  22.820  0.00  0.00    +0.000 F 
ATOM     27  F   UNL     1       0.258  12.422  21.809  0.00  0.00    +0.000 F 
ENDBRANCH   7  24
BRANCH   1  28
ATOM     28  N   UNL     1      -0.410  11.762  18.689  0.00  0.00    +0.000 N 
ATOM     29  H   UNL     1      -0.946  11.579  17.842  0.00  0.00    +0.000 HD
BRANCH  28  31
ATOM     30  C   UNL     1      -0.330  14.196  18.758  0.00  0.00    +0.000 C 
ATOM     31  C   UNL     1       0.466  12.921  18.532  0.00  0.00    +0.000 C 
ENDBRANCH  28  31
ENDBRANCH   1  28
TORSDOF 6
ENDMDL
MODEL 3
REMARK VINA RESULT:      -7.5      1.285      1.599
REMARK  Name = 
REMARK  10 active torsions:
REMARK  status: ('A' for Active; 'I' for Inactive)
REMARK    1  A    between atoms: C_1  and  C_2
REMARK    2  A    between atoms: C_2  and  N_3
REMARK    3  A    between atoms: N_3  and  C_4
REMARK    4  A    between atoms: N_7  and  C_8
REMARK    5  A    between atoms: N_10  and  C_11
REMARK    6  A    between atoms: C_11  and  C_12
REMARK    7  A    between atoms: C_11  and  C_13
REMARK    8  A    between atoms: C_11  and  C_14
REMARK    9  A    between atoms: N_18  and  C_19
REMARK   10  A    between atoms: C_25  and  C_26
REMARK                            x       y       z     vdW  Elec       q    Type
REMARK                         _______ _______ _______ _____ _____    ______ ____
ROOT
ATOM      1  C   UNL     1       0.233  10.020  19.934  0.00  0.00    +0.000 A 
ATOM      2  N   UNL     1       0.827   9.301  18.955  0.00  0.00    +0.000 NA
ATOM      3  C   UNL     1       1.658   8.314  19.299  0.00  0.00    +0.000 A 
ATOM      4  N   UNL     1       2.300   7.613  18.271  0.00  0.00    +0.000 N 
ATOM      5  N   UNL     1       1.889   7.952  20.569  0.00  0.00    +0.000 NA
ATOM      6  C   UNL     1       1.266   8.651  21.522  0.00  0.00    +0.000 A 
ATOM      7  C   UNL     1       0.437   9.719  21.265  0.00  0.00    +0.000 A 
ATOM      8  H   UNL     1       1.841   7.790  17.389  0.00  0.00    +0.000 HD
ENDROOT
BRANCH   4   9
ATOM      9  C   UNL     1       3.417   6.863  18.379  0.00  0.00    +0.000 A 
ATOM     10  C   UNL     1       4.589   7.085  17.703  0.00  0.00    +0.000 A 
ATOM     11  N   UNL     1       5.450   6.085  18.067  0.00  0.00    +0.000 N 
ATOM     12  N   UNL     1       4.886   5.209  18.937  0.00  0.00    +0.000 NA
ATOM     13  C   UNL     1       3.658   5.702  19.137  0.00  0.00    +0.000 A 
ATOM     14 CL   UNL     1       2.593   4.952  20.221  0.00  0.00    +0.000 Cl
BRANCH  11  15
ATOM     15  C   UNL     1       6.824   5.896  17.558  0.00  0.00    +0.000 C 
ATOM     16  C   UNL     1       7.526   7.279  17.476  0.00  0.00    +0.000 C 
ATOM     17  C   UNL     1       7.670   5.030  18.511  0.00  0.00    +0.000 C 
BRANCH  15  18
ATOM     18  C   UNL     1       6.762   5.296  16.162  0.00  0.00    +0.000 A 
ATOM     19  N   UNL     1       7.527   5.683  15.150  0.00  0.00    +0.000 NA
ATOM     20  N   UNL     1       7.153   5.005  14.023  0.00  0.00    +0.000 NA
ATOM     21  C   UNL     1       6.172   4.204  14.353  0.00  0.00    +0.000 A 
ATOM     22  N   UNL     1       5.909   4.324  15.687  0.00  0.00    +0.000 N 
ATOM     23  C   UNL     1       4.915   3.549  16.381  0.00  0.00    +0.000 C 
ENDBRANCH  15  18
ENDBRANCH  11  15
ENDBRANCH   4   9
BRANCH   7  24
ATOM     24  C   UNL     1      -0.216  10.385  22.417  0.00  0.00    +0.000 C 
ATOM     25  F   UNL     1       0.137   9.899  23.639  0.00  0.00    +0.000 F 
ATOM     26  F   UNL     1       0.084  11.714  22.464  0.00  0.00    +0.000 F 
ATOM     27  F   UNL     1      -1.575  10.321  22.364  0.00  0.00    +0.000 F 
ENDBRANCH   7  24
BRANCH   1  28
ATOM     28  N   UNL     1      -0.500  11.157  19.559  0.00  0.00    +0.000 N 
ATOM     29  H   UNL     1      -1.212  10.956  18.859  0.00  0.00    +0.000 HD
BRANCH  28  31
ATOM     30  C   UNL     1      -0.462  13.182  18.206  0.00  0.00    +0.000 C 
ATOM     31  C   UNL     1       0.311  12.313  19.185  0.00  0.00    +0.000 C 
ENDBRANCH  28  31
ENDBRANCH   1  28
TORSDOF 6
ENDMDL
MODEL 4
REMARK VINA RESULT:      -7.4      4.352      8.524
REMARK  Name = 
REMARK  10 active torsions:
REMARK  status: ('A' for Active; 'I' for Inactive)
REMARK    1  A    between atoms: C_1  and  C_2
REMARK    2  A    between atoms: C_2  and  N_3
REMARK    3  A    between atoms: N_3  and  C_4
REMARK    4  A    between atoms: N_7  and  C_8
REMARK    5  A    between atoms: N_10  and  C_11
REMARK    6  A    between atoms: C_11  and  C_12
REMARK    7  A    between atoms: C_11  and  C_13
REMARK    8  A    between atoms: C_11  and  C_14
REMARK    9  A    between atoms: N_18  and  C_19
REMARK   10  A    between atoms: C_25  and  C_26
REMARK                            x       y       z     vdW  Elec       q    Type
REMARK                         _______ _______ _______ _____ _____    ______ ____
ROOT
ATOM      1  C   UNL     1       2.682   6.528  19.626  0.00  0.00    +0.000 A 
ATOM      2  N   UNL     1       1.810   7.337  20.268  0.00  0.00    +0.000 NA
ATOM      3  C   UNL     1       1.452   8.483  19.684  0.00  0.00    +0.000 A 
ATOM      4  N   UNL     1       0.584   9.329  20.386  0.00  0.00    +0.000 N 
ATOM      5  N   UNL     1       1.861   8.849  18.462  0.00  0.00    +0.000 NA
ATOM      6  C   UNL     1       2.695   8.020  17.827  0.00  0.00    +0.000 A 
ATOM      7  C   UNL     1       3.163   6.846  18.372  0.00  0.00    +0.000 A 
ATOM      8  H   UNL     1       0.144   8.827  21.143  0.00  0.00    +0.000 HD
ENDROOT
BRANCH   4   9
ATOM      9  C   UNL     1       0.393  10.649  20.172  0.00  0.00    +0.000 A 
ATOM     10  C   UNL     1       0.935  11.660  20.922  0.00  0.00    +0.000 A 
ATOM     11  N   UNL     1       0.467  12.835  20.398  0.00  0.00    +0.000 N 
ATOM     12  N   UNL     1      -0.372  12.635  19.350  0.00  0.00    +0.000 NA
ATOM     13  C   UNL     1      -0.394  11.304  19.207  0.00  0.00    +0.000 A 
ATOM     14 CL   UNL     1      -1.282  10.585  17.956  0.00  0.00    +0.000 Cl
BRANCH  11  15
ATOM     15  C   UNL     1       0.758  14.190  20.909  0.00  0.00    +0.000 C 
ATOM     16  C   UNL     1       0.265  15.236  19.872  0.00  0.00    +0.000 C 
ATOM     17  C   UNL     1      -0.000  14.480  22.219  0.00  0.00    +0.000 C 
BRANCH  15  18
ATOM     18  C   UNL     1       2.261  14.346  21.084  0.00  0.00    +0.000 A 
ATOM     19  N   UNL     1       2.853  14.605  22.242  0.00  0.00    +0.000 NA
ATOM     20  N   UNL     1       4.194  14.771  22.031  0.00  0.00    +0.000 NA
ATOM     21  C   UNL     1       4.413  14.605  20.751  0.00  0.00    +0.000 A 
ATOM     22  N   UNL     1       3.242  14.305  20.118  0.00  0.00    +0.000 N 
ATOM     23  C   UNL     1       3.140  14.019  18.711  0.00  0.00    +0.000 C 
ENDBRANCH  15  18
ENDBRANCH  11  15
ENDBRANCH   4   9
BRANCH   7  24
ATOM     24  C   UNL     1       4.059   6.004  17.544  0.00  0.00    +0.000 C 
ATOM     25  F   UNL     1       4.423   6.551  16.352  0.00  0.00    +0.000 F 
ATOM     26  F   UNL     1       5.232   5.739  18.186  0.00  0.00    +0.000 F 
ATOM     27  F   UNL     1       3.521   4.789  17.252  0.00  0.00    +0.000 F 
ENDBRANCH   7  24
BRANCH   1  28
ATOM     28  N   UNL     1       3.178   5.415  20.323  0.00  0.00    +0.000 N 
ATOM     29  H   UNL     1       3.828   4.859  19.770  0.00  0.00    +0.000 HD
BRANCH  28  31
ATOM     30  C   UNL     1       1.364   3.850  19.881  0.00  0.00    +0.000 C 
ATOM     31  C   UNL     1       2.156   4.580  20.952  0.00  0.00    +0.000 C 
ENDBRANCH  28  31
ENDBRANCH   1  28
TORSDOF 6
ENDMDL
MODEL 5
REMARK VINA RESULT:      -7.2      4.257      9.257
REMARK  Name = 
REMARK  10 active torsions:
REMARK  status: ('A' for Active; 'I' for Inactive)
REMARK    1  A    between atoms: C_1  and  C_2
REMARK    2  A    between atoms: C_2  and  N_3
REMARK    3  A    between atoms: N_3  and  C_4
REMARK    4  A    between atoms: N_7  and  C_8
REMARK    5  A    between atoms: N_10  and  C_11
REMARK    6  A    between atoms: C_11  and  C_12
REMARK    7  A    between atoms: C_11  and  C_13
REMARK    8  A    between atoms: C_11  and  C_14
REMARK    9  A    between atoms: N_18  and  C_19
REMARK   10  A    between atoms: C_25  and  C_26
REMARK                            x       y       z     vdW  Elec       q    Type
REMARK                         _______ _______ _______ _____ _____    ______ ____
ROOT
ATOM      1  C   UNL     1       2.617   6.809  19.500  0.00  0.00    +0.000 A 
ATOM      2  N   UNL     1       1.709   7.643  20.053  0.00  0.00    +0.000 NA
ATOM      3  C   UNL     1       1.361   8.745  19.384  0.00  0.00    +0.000 A 
ATOM      4  N   UNL     1       0.454   9.621  19.995  0.00  0.00    +0.000 N 
ATOM      5  N   UNL     1       1.817   9.041  18.159  0.00  0.00    +0.000 NA
ATOM      6  C   UNL     1       2.688   8.187  17.613  0.00  0.00    +0.000 A 
ATOM      7  C   UNL     1       3.147   7.056  18.249  0.00  0.00    +0.000 A 
ATOM      8  H   UNL     1      -0.011   9.160  20.764  0.00  0.00    +0.000 HD
ENDROOT
BRANCH   4   9
ATOM      9  C   UNL     1       0.256  10.921  19.691  0.00  0.00    +0.000 A 
ATOM     10  C   UNL     1       0.855  11.982  20.318  0.00  0.00    +0.000 A 
ATOM     11  N   UNL     1       0.357  13.117  19.736  0.00  0.00    +0.000 N 
ATOM     12  N   UNL     1      -0.555  12.844  18.768  0.00  0.00    +0.000 NA
ATOM     13  C   UNL     1      -0.594  11.506  18.734  0.00  0.00    +0.000 A 
ATOM     14 CL   UNL     1      -1.572  10.700  17.609  0.00  0.00    +0.000 Cl
BRANCH  11  15
ATOM     15  C   UNL     1       0.690  14.505  20.116  0.00  0.00    +0.000 C 
ATOM     16  C   UNL     1       2.233  14.636  20.241  0.00  0.00    +0.000 C 
ATOM     17  C   UNL     1       0.250  15.513  19.037  0.00  0.00    +0.000 C 
BRANCH  15  18
ATOM     18  C   UNL     1       0.062  14.818  21.466  0.00  0.00    +0.000 A 
ATOM     19  N   UNL     1       0.754  15.058  22.571  0.00  0.00    +0.000 NA
ATOM     20  N   UNL     1      -0.114  15.213  23.617  0.00  0.00    +0.000 NA
ATOM     21  C   UNL     1      -1.327  15.075  23.144  0.00  0.00    +0.000 A 
ATOM     22  N   UNL     1      -1.275  14.858  21.798  0.00  0.00    +0.000 N 
ATOM     23  C   UNL     1      -2.437  14.708  20.963  0.00  0.00    +0.000 C 
ENDBRANCH  15  18
ENDBRANCH  11  15
ENDBRANCH   4   9
BRANCH   7  24
ATOM     24  C   UNL     1       4.087   6.178  17.514  0.00  0.00    +0.000 C 
ATOM     25  F   UNL     1       3.591   4.955  17.180  0.00  0.00    +0.000 F 
ATOM     26  F   UNL     1       4.476   6.737  16.333  0.00  0.00    +0.000 F 
ATOM     27  F   UNL     1       5.238   5.942  18.201  0.00  0.00    +0.000 F 
ENDBRANCH   7  24
BRANCH   1  28
ATOM     28  N   UNL     1       3.098   5.750  20.286  0.00  0.00    +0.000 N 
ATOM     29  H   UNL     1       3.825   5.210  19.820  0.00  0.00    +0.000 HD
BRANCH  28  31
ATOM     30  C   UNL     1       1.431   4.058  19.741  0.00  0.00    +0.000 C 
ATOM     31  C   UNL     1       2.062   4.886  20.849  0.00  0.00    +0.000 C 
ENDBRANCH  28  31
ENDBRANCH   1  28
TORSDOF 6
ENDMDL
MODEL 6
REMARK VINA RESULT:      -7.2      4.524      8.676
REMARK  Name = 
REMARK  10 active torsions:
REMARK  status: ('A' for Active; 'I' for Inactive)
REMARK    1  A    between atoms: C_1  and  C_2
REMARK    2  A    between atoms: C_2  and  N_3
REMARK    3  A    between atoms: N_3  and  C_4
REMARK    4  A    between atoms: N_7  and  C_8
REMARK    5  A    between atoms: N_10  and  C_11
REMARK    6  A    between atoms: C_11  and  C_12
REMARK    7  A    between atoms: C_11  and  C_13
REMARK    8  A    between atoms: C_11  and  C_14
REMARK    9  A    between atoms: N_18  and  C_19
REMARK   10  A    between atoms: C_25  and  C_26
REMARK                            x       y       z     vdW  Elec       q    Type
REMARK                         _______ _______ _______ _____ _____    ______ ____
ROOT
ATOM      1  C   UNL     1       2.188   7.282  19.755  0.00  0.00    +0.000 A 
ATOM      2  N   UNL     1       1.394   8.233  20.293  0.00  0.00    +0.000 NA
ATOM      3  C   UNL     1       1.223   9.377  19.626  0.00  0.00    +0.000 A 
ATOM      4  N   UNL     1       0.435  10.369  20.222  0.00  0.00    +0.000 N 
ATOM      5  N   UNL     1       1.747   9.612  18.415  0.00  0.00    +0.000 NA
ATOM      6  C   UNL     1       2.501   8.645  17.883  0.00  0.00    +0.000 A 
ATOM      7  C   UNL     1       2.779   7.457  18.519  0.00  0.00    +0.000 A 
ATOM      8  H   UNL     1      -0.111   9.976  20.975  0.00  0.00    +0.000 HD
ENDROOT
BRANCH   4   9
ATOM      9  C   UNL     1       0.431  11.686  19.925  0.00  0.00    +0.000 A 
ATOM     10  C   UNL     1       1.173  12.645  20.563  0.00  0.00    +0.000 A 
ATOM     11  N   UNL     1       0.851  13.844  19.986  0.00  0.00    +0.000 N 
ATOM     12  N   UNL     1      -0.083  13.712  19.009  0.00  0.00    +0.000 NA
ATOM     13  C   UNL     1      -0.316  12.395  18.966  0.00  0.00    +0.000 A 
ATOM     14 CL   UNL     1      -1.393  11.746  17.828  0.00  0.00    +0.000 Cl
BRANCH  11  15
ATOM     15  C   UNL     1       1.380  15.166  20.377  0.00  0.00    +0.000 C 
ATOM     16  C   UNL     1       0.206  16.052  20.874  0.00  0.00    +0.000 C 
ATOM     17  C   UNL     1       2.375  15.058  21.549  0.00  0.00    +0.000 C 
BRANCH  15  18
ATOM     18  C   UNL     1       2.013  15.830  19.163  0.00  0.00    +0.000 A 
ATOM     19  N   UNL     1       1.652  17.015  18.690  0.00  0.00    +0.000 NA
ATOM     20  N   UNL     1       2.356  17.273  17.546  0.00  0.00    +0.000 NA
ATOM     21  C   UNL     1       3.145  16.251  17.332  0.00  0.00    +0.000 A 
ATOM     22  N   UNL     1       2.993  15.334  18.332  0.00  0.00    +0.000 N 
ATOM     23  C   UNL     1       3.749  14.113  18.422  0.00  0.00    +0.000 C 
ENDBRANCH  15  18
ENDBRANCH  11  15
ENDBRANCH   4   9
BRANCH   7  24
ATOM     24  C   UNL     1       3.603   6.458  17.799  0.00  0.00    +0.000 C 
ATOM     25  F   UNL     1       2.947   5.319  17.445  0.00  0.00    +0.000 F 
ATOM     26  F   UNL     1       4.094   6.962  16.631  0.00  0.00    +0.000 F 
ATOM     27  F   UNL     1       4.692   6.060  18.510  0.00  0.00    +0.000 F 
ENDBRANCH   7  24
BRANCH   1  28
ATOM     28  N   UNL     1       2.493   6.160  20.542  0.00  0.00    +0.000 N 
ATOM     29  H   UNL     1       3.411   5.771  20.337  0.00  0.00    +0.000 HD
BRANCH  28  31
ATOM     30  C   UNL     1       2.115   3.754  20.556  0.00  0.00    +0.000 C 
ATOM     31  C   UNL     1       1.461   5.126  20.561  0.00  0.00    +0.000 C 
ENDBRANCH  28  31
ENDBRANCH   1  28
TORSDOF 6
ENDMDL
MODEL 7
REMARK VINA RESULT:      -7.2      2.010      3.215
REMARK  Name = 
REMARK  10 active torsions:
REMARK  status: ('A' for Active; 'I' for Inactive)
REMARK    1  A    between atoms: C_1  and  C_2
REMARK    2  A    between atoms: C_2  and  N_3
REMARK    3  A    between atoms: N_3  and  C_4
REMARK    4  A    between atoms: N_7  and  C_8
REMARK    5  A    between atoms: N_10  and  C_11
REMARK    6  A    between atoms: C_11  and  C_12
REMARK    7  A    between atoms: C_11  and  C_13
REMARK    8  A    between atoms: C_11  and  C_14
REMARK    9  A    between atoms: N_18  and  C_19
REMARK   10  A    between atoms: C_25  and  C_26
REMARK                            x       y       z     vdW  Elec       q    Type
REMARK                         _______ _______ _______ _____ _____    ______ ____
ROOT
ATOM      1  C   UNL     1      -0.165  10.338  20.501  0.00  0.00    +0.000 A 
ATOM      2  N   UNL     1       0.396   9.169  20.883  0.00  0.00    +0.000 NA
ATOM      3  C   UNL     1       1.307   8.606  20.086  0.00  0.00    +0.000 A 
ATOM      4  N   UNL     1       1.842   7.371  20.475  0.00  0.00    +0.000 N 
ATOM      5  N   UNL     1       1.746   9.169  18.951  0.00  0.00    +0.000 NA
ATOM      6  C   UNL     1       1.206  10.342  18.608  0.00  0.00    +0.000 A 
ATOM      7  C   UNL     1       0.221  10.970  19.336  0.00  0.00    +0.000 A 
ATOM      8  H   UNL     1       1.645   7.198  21.451  0.00  0.00    +0.000 HD
ENDROOT
BRANCH   4   9
ATOM      9  C   UNL     1       2.466   6.474  19.683  0.00  0.00    +0.000 A 
ATOM     10  C   UNL     1       3.555   6.735  18.894  0.00  0.00    +0.000 A 
ATOM     11  N   UNL     1       3.850   5.574  18.230  0.00  0.00    +0.000 N 
ATOM     12  N   UNL     1       2.989   4.571  18.538  0.00  0.00    +0.000 NA
ATOM     13  C   UNL     1       2.164   5.121  19.437  0.00  0.00    +0.000 A 
ATOM     14 CL   UNL     1       0.939   4.201  20.161  0.00  0.00    +0.000 Cl
BRANCH  11  15
ATOM     15  C   UNL     1       4.928   5.391  17.238  0.00  0.00    +0.000 C 
ATOM     16  C   UNL     1       4.801   3.976  16.611  0.00  0.00    +0.000 C 
ATOM     17  C   UNL     1       4.812   6.397  16.077  0.00  0.00    +0.000 C 
BRANCH  15  18
ATOM     18  C   UNL     1       6.275   5.497  17.938  0.00  0.00    +0.000 A 
ATOM     19  N   UNL     1       6.836   4.511  18.625  0.00  0.00    +0.000 NA
ATOM     20  N   UNL     1       7.992   4.966  19.196  0.00  0.00    +0.000 NA
ATOM     21  C   UNL     1       8.134   6.220  18.849  0.00  0.00    +0.000 A 
ATOM     22  N   UNL     1       7.103   6.593  18.036  0.00  0.00    +0.000 N 
ATOM     23  C   UNL     1       6.981   7.898  17.441  0.00  0.00    +0.000 C 
ENDBRANCH  15  18
ENDBRANCH  11  15
ENDBRANCH   4   9
BRANCH   7  24
ATOM     24  C   UNL     1      -0.266  12.285  18.857  0.00  0.00    +0.000 C 
ATOM     25  F   UNL     1       0.605  12.968  18.065  0.00  0.00    +0.000 F 
ATOM     26  F   UNL     1      -1.400  12.157  18.110  0.00  0.00    +0.000 F 
ATOM     27  F   UNL     1      -0.593  13.129  19.873  0.00  0.00    +0.000 F 
ENDBRANCH   7  24
BRANCH   1  28
ATOM     28  N   UNL     1      -1.238  10.828  21.261  0.00  0.00    +0.000 N 
ATOM     29  H   UNL     1      -1.765  11.554  20.779  0.00  0.00    +0.000 HD
BRANCH  28  31
ATOM     30  C   UNL     1      -1.832  12.330  23.085  0.00  0.00    +0.000 C 
ATOM     31  C   UNL     1      -0.892  11.228  22.624  0.00  0.00    +0.000 C 
ENDBRANCH  28  31
ENDBRANCH   1  28
TORSDOF 6
ENDMDL
MODEL 8
REMARK VINA RESULT:      -7.1      3.680      9.058
REMARK  Name = 
REMARK  10 active torsions:
REMARK  status: ('A' for Active; 'I' for Inactive)
REMARK    1  A    between atoms: C_1  and  C_2
REMARK    2  A    between atoms: C_2  and  N_3
REMARK    3  A    between atoms: N_3  and  C_4
REMARK    4  A    between atoms: N_7  and  C_8
REMARK    5  A    between atoms: N_10  and  C_11
REMARK    6  A    between atoms: C_11  and  C_12
REMARK    7  A    between atoms: C_11  and  C_13
REMARK    8  A    between atoms: C_11  and  C_14
REMARK    9  A    between atoms: N_18  and  C_19
REMARK   10  A    between atoms: C_25  and  C_26
REMARK                            x       y       z     vdW  Elec       q    Type
REMARK                         _______ _______ _______ _____ _____    ______ ____
ROOT
ATOM      1  C   UNL     1       2.816   6.522  18.405  0.00  0.00    +0.000 A 
ATOM      2  N   UNL     1       2.573   7.775  17.962  0.00  0.00    +0.000 NA
ATOM      3  C   UNL     1       1.904   8.616  18.754  0.00  0.00    +0.000 A 
ATOM      4  N   UNL     1       1.621   9.895  18.258  0.00  0.00    +0.000 N 
ATOM      5  N   UNL     1       1.511   8.305  19.998  0.00  0.00    +0.000 NA
ATOM      6  C   UNL     1       1.791   7.073  20.432  0.00  0.00    +0.000 A 
ATOM      7  C   UNL     1       2.426   6.121  19.667  0.00  0.00    +0.000 A 
ATOM      8  H   UNL     1       2.194  10.091  17.450  0.00  0.00    +0.000 HD
ENDROOT
BRANCH   4   9
ATOM      9  C   UNL     1       0.673  10.745  18.708  0.00  0.00    +0.000 A 
ATOM     10  C   UNL     1       0.878  11.753  19.614  0.00  0.00    +0.000 A 
ATOM     11  N   UNL     1      -0.336  12.348  19.824  0.00  0.00    +0.000 N 
ATOM     12  N   UNL     1      -1.330  11.761  19.109  0.00  0.00    +0.000 NA
ATOM     13  C   UNL     1      -0.703  10.802  18.418  0.00  0.00    +0.000 A 
ATOM     14 CL   UNL     1      -1.555   9.830  17.322  0.00  0.00    +0.000 Cl
BRANCH  11  15
ATOM     15  C   UNL     1      -0.607  13.463  20.754  0.00  0.00    +0.000 C 
ATOM     16  C   UNL     1       0.675  13.750  21.583  0.00  0.00    +0.000 C 
ATOM     17  C   UNL     1      -0.943  14.765  20.001  0.00  0.00    +0.000 C 
BRANCH  15  18
ATOM     18  C   UNL     1      -1.724  13.061  21.705  0.00  0.00    +0.000 A 
ATOM     19  N   UNL     1      -2.865  13.723  21.837  0.00  0.00    +0.000 NA
ATOM     20  N   UNL     1      -3.603  13.148  22.834  0.00  0.00    +0.000 NA
ATOM     21  C   UNL     1      -2.915  12.136  23.299  0.00  0.00    +0.000 A 
ATOM     22  N   UNL     1      -1.745  12.019  22.606  0.00  0.00    +0.000 N 
ATOM     23  C   UNL     1      -0.777  10.979  22.837  0.00  0.00    +0.000 C 
ENDBRANCH  15  18
ENDBRANCH  11  15
ENDBRANCH   4   9
BRANCH   7  24
ATOM     24  C   UNL     1       2.704   4.803  20.286  0.00  0.00    +0.000 C 
ATOM     25  F   UNL     1       2.446   4.729  21.621  0.00  0.00    +0.000 F 
ATOM     26  F   UNL     1       1.949   3.817  19.724  0.00  0.00    +0.000 F 
ATOM     27  F   UNL     1       3.996   4.407  20.128  0.00  0.00    +0.000 F 
ENDBRANCH   7  24
BRANCH   1  28
ATOM     28  N   UNL     1       3.368   5.602  17.499  0.00  0.00    +0.000 N 
ATOM     29  H   UNL     1       3.250   4.635  17.796  0.00  0.00    +0.000 HD
BRANCH  28  31
ATOM     30  C   UNL     1       5.304   4.700  16.328  0.00  0.00    +0.000 C 
ATOM     31  C   UNL     1       4.747   5.881  17.106  0.00  0.00    +0.000 C 
ENDBRANCH  28  31
ENDBRANCH   1  28
TORSDOF 6
ENDMDL
MODEL 9
REMARK VINA RESULT:      -7.1      4.411      8.640
REMARK  Name = 
REMARK  10 active torsions:
REMARK  status: ('A' for Active; 'I' for Inactive)
REMARK    1  A    between atoms: C_1  and  C_2
REMARK    2  A    between atoms: C_2  and  N_3
REMARK    3  A    between atoms: N_3  and  C_4
REMARK    4  A    between atoms: N_7  and  C_8
REMARK    5  A    between atoms: N_10  and  C_11
REMARK    6  A    between atoms: C_11  and  C_12
REMARK    7  A    between atoms: C_11  and  C_13
REMARK    8  A    between atoms: C_11  and  C_14
REMARK    9  A    between atoms: N_18  and  C_19
REMARK   10  A    between atoms: C_25  and  C_26
REMARK                            x       y       z     vdW  Elec       q    Type
REMARK                         _______ _______ _______ _____ _____    ______ ____
ROOT
ATOM      1  C   UNL     1       2.662   6.801  19.492  0.00  0.00    +0.000 A 
ATOM      2  N   UNL     1       1.784   7.656  20.061  0.00  0.00    +0.000 NA
ATOM      3  C   UNL     1       1.461   8.773  19.404  0.00  0.00    +0.000 A 
ATOM      4  N   UNL     1       0.586   9.669  20.030  0.00  0.00    +0.000 N 
ATOM      5  N   UNL     1       1.913   9.065  18.176  0.00  0.00    +0.000 NA
ATOM      6  C   UNL     1       2.753   8.190  17.615  0.00  0.00    +0.000 A 
ATOM      7  C   UNL     1       3.186   7.042  18.238  0.00  0.00    +0.000 A 
ATOM      8  H   UNL     1       0.115   9.217  20.800  0.00  0.00    +0.000 HD
ENDROOT
BRANCH   4   9
ATOM      9  C   UNL     1       0.422  10.977  19.738  0.00  0.00    +0.000 A 
ATOM     10  C   UNL     1       1.089  12.013  20.337  0.00  0.00    +0.000 A 
ATOM     11  N   UNL     1       0.607  13.168  19.781  0.00  0.00    +0.000 N 
ATOM     12  N   UNL     1      -0.360  12.932  18.858  0.00  0.00    +0.000 NA
ATOM     13  C   UNL     1      -0.451  11.597  18.824  0.00  0.00    +0.000 A 
ATOM     14 CL   UNL     1      -1.511  10.831  17.746  0.00  0.00    +0.000 Cl
BRANCH  11  15
ATOM     15  C   UNL     1       1.009  14.541  20.146  0.00  0.00    +0.000 C 
ATOM     16  C   UNL     1      -0.252  15.447  20.165  0.00  0.00    +0.000 C 
ATOM     17  C   UNL     1       1.613  14.601  21.562  0.00  0.00    +0.000 C 
BRANCH  15  18
ATOM     18  C   UNL     1       1.978  15.073  19.101  0.00  0.00    +0.000 A 
ATOM     19  N   UNL     1       2.612  14.313  18.218  0.00  0.00    +0.000 NA
ATOM     20  N   UNL     1       3.467  15.093  17.490  0.00  0.00    +0.000 NA
ATOM     21  C   UNL     1       3.345  16.322  17.925  0.00  0.00    +0.000 A 
ATOM     22  N   UNL     1       2.403  16.369  18.911  0.00  0.00    +0.000 N 
ATOM     23  C   UNL     1       1.994  17.580  19.573  0.00  0.00    +0.000 C 
ENDBRANCH  15  18
ENDBRANCH  11  15
ENDBRANCH   4   9
BRANCH   7  24
ATOM     24  C   UNL     1       4.093   6.143  17.487  0.00  0.00    +0.000 C 
ATOM     25  F   UNL     1       3.575   4.919  17.190  0.00  0.00    +0.000 F 
ATOM     26  F   UNL     1       4.447   6.679  16.284  0.00  0.00    +0.000 F 
ATOM     27  F   UNL     1       5.264   5.908  18.138  0.00  0.00    +0.000 F 
ENDBRANCH   7  24
BRANCH   1  28
ATOM     28  N   UNL     1       3.120   5.722  20.265  0.00  0.00    +0.000 N 
ATOM     29  H   UNL     1       3.775   5.125  19.763  0.00  0.00    +0.000 HD
BRANCH  28  31
ATOM     30  C   UNL     1       1.417   4.020  19.894  0.00  0.00    +0.000 C 
ATOM     31  C   UNL     1       2.068   4.942  20.913  0.00  0.00    +0.000 C 
ENDBRANCH  28  31
ENDBRANCH   1  28
TORSDOF 6
ENDMDL
