MODEL 1
REMARK VINA RESULT:      -8.5      0.000      0.000
REMARK  Name = 
REMARK  3 active torsions:
REMARK  status: ('A' for Active; 'I' for Inactive)
REMARK    1  A    between atoms: C_9  and  N_10
REMARK    2  A    between atoms: C_11  and  C_13
REMARK    3  A    between atoms: C_27  and  C_28
REMARK                            x       y       z     vdW  Elec       q    Type
REMARK                         _______ _______ _______ _____ _____    ______ ____
ROOT
ATOM      1  N   UNL     1       2.450  12.167  17.531  0.00  0.00    +0.000 N 
ATOM      2  C   UNL     1       1.814  11.171  18.174  0.00  0.00    +0.000 C 
ATOM      3  N   UNL     1       2.158  10.647  19.296  0.00  0.00    +0.000 NA
ATOM      4  C   UNL     1       1.123   9.617  19.572  0.00  0.00    +0.000 C 
ATOM      5  C   UNL     1       0.148   9.736  18.377  0.00  0.00    +0.000 C 
ATOM      6  O   UNL     1       0.723  10.721  17.520  0.00  0.00    +0.000 OA
ATOM      7  C   UNL     1       1.749   8.240  19.614  0.00  0.00    +0.000 A 
ATOM      8  C   UNL     1       2.508   7.783  18.524  0.00  0.00    +0.000 A 
ATOM      9  C   UNL     1       3.065   6.507  18.480  0.00  0.00    +0.000 A 
ATOM     10  C   UNL     1       2.875   5.668  19.580  0.00  0.00    +0.000 A 
ATOM     11  C   UNL     1       2.132   6.110  20.688  0.00  0.00    +0.000 A 
ATOM     12  C   UNL     1       1.568   7.391  20.705  0.00  0.00    +0.000 A 
ATOM     13  O   UNL     1       0.849   7.744  21.820  0.00  0.00    +0.000 OA
ATOM     14  C   UNL     1       0.333   9.012  21.887  0.00  0.00    +0.000 A 
ATOM     15  C   UNL     1      -0.328   9.382  23.050  0.00  0.00    +0.000 A 
ATOM     16  N   UNL     1      -0.897  10.597  23.255  0.00  0.00    +0.000 NA
ATOM     17  C   UNL     1      -0.788  11.511  22.264  0.00  0.00    +0.000 A 
ATOM     18  C   UNL     1      -0.137  11.225  21.072  0.00  0.00    +0.000 A 
ATOM     19  C   UNL     1       0.425   9.952  20.869  0.00  0.00    +0.000 A 
ATOM     20  H   UNL     1       3.409  12.285  17.835  0.00  0.00    +0.000 HD
ATOM     21  H   UNL     1       2.330  12.153  16.527  0.00  0.00    +0.000 HD
ENDROOT
BRANCH  17  22
ATOM     22  C   UNL     1      -1.417  12.875  22.464  0.00  0.00    +0.000 C 
ATOM     23  C   UNL     1      -2.662  12.796  23.352  0.00  0.00    +0.000 C 
ATOM     24  C   UNL     1      -3.348  14.151  23.431  0.00  0.00    +0.000 C 
ATOM     25  O   UNL     1      -3.652  14.648  22.128  0.00  0.00    +0.000 OA
ATOM     26  C   UNL     1      -2.483  14.846  21.336  0.00  0.00    +0.000 C 
ATOM     27  C   UNL     1      -1.747  13.532  21.119  0.00  0.00    +0.000 C 
ENDBRANCH  17  22
BRANCH   9  28
ATOM     28  N   UNL     1       3.805   6.051  17.367  0.00  0.00    +0.000 N 
ATOM     29  C   UNL     1       5.180   5.857  17.320  0.00  0.00    +0.000 C 
ATOM     30  O   UNL     1       5.991   6.077  18.216  0.00  0.00    +0.000 OA
ATOM     31  H   UNL     1       3.305   5.833  16.509  0.00  0.00    +0.000 HD
BRANCH  29  32
ATOM     32  C   UNL     1       5.703   5.318  16.030  0.00  0.00    +0.000 A 
ATOM     33  C   UNL     1       4.892   4.467  15.281  0.00  0.00    +0.000 A 
ATOM     34  C   UNL     1       5.361   4.002  14.056  0.00  0.00    +0.000 A 
ATOM     35  C   UNL     1       6.621   4.401  13.627  0.00  0.00    +0.000 A 
ATOM     36 CL   UNL     1       7.229   3.872  12.114  0.00  0.00    +0.000 Cl
ATOM     37  C   UNL     1       7.367   5.244  14.445  0.00  0.00    +0.000 A 
ATOM     38  N   UNL     1       6.946   5.718  15.647  0.00  0.00    +0.000 NA
ENDBRANCH  29  32
ENDBRANCH   9  28
TORSDOF 3
ENDMDL
MODEL 2
REMARK VINA RESULT:      -8.3      2.593      4.252
REMARK  Name = 
REMARK  3 active torsions:
REMARK  status: ('A' for Active; 'I' for Inactive)
REMARK    1  A    between atoms: C_9  and  N_10
REMARK    2  A    between atoms: C_11  and  C_13
REMARK    3  A    between atoms: C_27  and  C_28
REMARK                            x       y       z     vdW  Elec       q    Type
REMARK                         _______ _______ _______ _____ _____    ______ ____
ROOT
ATOM      1  N   UNL     1      -0.472  13.408  17.460  0.00  0.00    +0.000 N 
ATOM      2  C   UNL     1      -0.985  12.707  18.487  0.00  0.00    +0.000 C 
ATOM      3  N   UNL     1      -0.673  12.836  19.728  0.00  0.00    +0.000 NA
ATOM      4  C   UNL     1      -1.531  11.856  20.443  0.00  0.00    +0.000 C 
ATOM      5  C   UNL     1      -2.380  11.213  19.323  0.00  0.00    +0.000 C 
ATOM      6  O   UNL     1      -1.904  11.795  18.110  0.00  0.00    +0.000 OA
ATOM      7  C   UNL     1      -0.678  10.812  21.130  0.00  0.00    +0.000 A 
ATOM      8  C   UNL     1       0.260  10.076  20.388  0.00  0.00    +0.000 A 
ATOM      9  C   UNL     1       1.037   9.066  20.951  0.00  0.00    +0.000 A 
ATOM     10  C   UNL     1       0.885   8.801  22.314  0.00  0.00    +0.000 A 
ATOM     11  C   UNL     1      -0.036   9.536  23.079  0.00  0.00    +0.000 A 
ATOM     12  C   UNL     1      -0.818  10.537  22.490  0.00  0.00    +0.000 A 
ATOM     13  O   UNL     1      -1.701  11.202  23.303  0.00  0.00    +0.000 OA
ATOM     14  C   UNL     1      -2.439  12.224  22.765  0.00  0.00    +0.000 A 
ATOM     15  C   UNL     1      -3.274  12.938  23.613  0.00  0.00    +0.000 A 
ATOM     16  N   UNL     1      -4.068  13.966  23.221  0.00  0.00    +0.000 NA
ATOM     17  C   UNL     1      -4.021  14.328  21.919  0.00  0.00    +0.000 A 
ATOM     18  C   UNL     1      -3.207  13.672  21.005  0.00  0.00    +0.000 A 
ATOM     19  C   UNL     1      -2.410  12.593  21.426  0.00  0.00    +0.000 A 
ATOM     20  H   UNL     1       0.413  13.846  17.682  0.00  0.00    +0.000 HD
ATOM     21  H   UNL     1      -0.482  12.913  16.578  0.00  0.00    +0.000 HD
ENDROOT
BRANCH  17  22
ATOM     22  C   UNL     1      -4.899  15.471  21.452  0.00  0.00    +0.000 C 
ATOM     23  C   UNL     1      -5.867  15.921  22.550  0.00  0.00    +0.000 C 
ATOM     24  C   UNL     1      -6.824  16.977  22.017  0.00  0.00    +0.000 C 
ATOM     25  O   UNL     1      -7.512  16.507  20.860  0.00  0.00    +0.000 OA
ATOM     26  C   UNL     1      -6.625  16.205  19.786  0.00  0.00    +0.000 C 
ATOM     27  C   UNL     1      -5.660  15.095  20.175  0.00  0.00    +0.000 C 
ENDBRANCH  17  22
BRANCH   9  28
ATOM     28  N   UNL     1       1.960   8.317  20.188  0.00  0.00    +0.000 N 
ATOM     29  C   UNL     1       2.046   6.932  20.133  0.00  0.00    +0.000 C 
ATOM     30  O   UNL     1       1.366   6.122  20.756  0.00  0.00    +0.000 OA
ATOM     31  H   UNL     1       2.632   8.818  19.612  0.00  0.00    +0.000 HD
BRANCH  29  32
ATOM     32  C   UNL     1       3.083   6.395  19.204  0.00  0.00    +0.000 A 
ATOM     33  C   UNL     1       3.275   7.026  17.975  0.00  0.00    +0.000 A 
ATOM     34  C   UNL     1       4.274   6.554  17.129  0.00  0.00    +0.000 A 
ATOM     35  C   UNL     1       5.042   5.471  17.540  0.00  0.00    +0.000 A 
ATOM     36 CL   UNL     1       6.298   4.872  16.540  0.00  0.00    +0.000 Cl
ATOM     37  C   UNL     1       4.774   4.895  18.778  0.00  0.00    +0.000 A 
ATOM     38  N   UNL     1       3.807   5.325  19.631  0.00  0.00    +0.000 NA
ENDBRANCH  29  32
ENDBRANCH   9  28
TORSDOF 3
ENDMDL
MODEL 3
REMARK VINA RESULT:      -8.3      2.394      3.787
REMARK  Name = 
REMARK  3 active torsions:
REMARK  status: ('A' for Active; 'I' for Inactive)
REMARK    1  A    between atoms: C_9  and  N_10
REMARK    2  A    between atoms: C_11  and  C_13
REMARK    3  A    between atoms: C_27  and  C_28
REMARK                            x       y       z     vdW  Elec       q    Type
REMARK                         _______ _______ _______ _____ _____    ______ ____
ROOT
ATOM      1  N   UNL     1      -0.447  13.446  17.352  0.00  0.00    +0.000 N 
ATOM      2  C   UNL     1      -0.911  12.697  18.369  0.00  0.00    +0.000 C 
ATOM      3  N   UNL     1      -0.515  12.745  19.591  0.00  0.00    +0.000 NA
ATOM      4  C   UNL     1      -1.351  11.744  20.303  0.00  0.00    +0.000 C 
ATOM      5  C   UNL     1      -2.288  11.188  19.206  0.00  0.00    +0.000 C 
ATOM      6  O   UNL     1      -1.876  11.830  18.001  0.00  0.00    +0.000 OA
ATOM      7  C   UNL     1      -0.483  10.641  20.871  0.00  0.00    +0.000 A 
ATOM      8  C   UNL     1       0.385   9.931  20.026  0.00  0.00    +0.000 A 
ATOM      9  C   UNL     1       1.170   8.871  20.477  0.00  0.00    +0.000 A 
ATOM     10  C   UNL     1       1.100   8.529  21.829  0.00  0.00    +0.000 A 
ATOM     11  C   UNL     1       0.250   9.237  22.696  0.00  0.00    +0.000 A 
ATOM     12  C   UNL     1      -0.542  10.289  22.218  0.00  0.00    +0.000 A 
ATOM     13  O   UNL     1      -1.353  10.924  23.126  0.00  0.00    +0.000 OA
ATOM     14  C   UNL     1      -2.097  11.993  22.698  0.00  0.00    +0.000 A 
ATOM     15  C   UNL     1      -2.855  12.674  23.640  0.00  0.00    +0.000 A 
ATOM     16  N   UNL     1      -3.645  13.742  23.362  0.00  0.00    +0.000 NA
ATOM     17  C   UNL     1      -3.673  14.180  22.083  0.00  0.00    +0.000 A 
ATOM     18  C   UNL     1      -2.938  13.560  21.080  0.00  0.00    +0.000 A 
ATOM     19  C   UNL     1      -2.144  12.441  21.384  0.00  0.00    +0.000 A 
ATOM     20  H   UNL     1       0.462  13.851  17.540  0.00  0.00    +0.000 HD
ATOM     21  H   UNL     1      -0.527  13.006  16.445  0.00  0.00    +0.000 HD
ENDROOT
BRANCH  17  22
ATOM     22  C   UNL     1      -4.549  15.368  21.742  0.00  0.00    +0.000 C 
ATOM     23  C   UNL     1      -5.879  14.926  21.125  0.00  0.00    +0.000 C 
ATOM     24  C   UNL     1      -6.684  16.135  20.672  0.00  0.00    +0.000 C 
ATOM     25  O   UNL     1      -5.927  16.949  19.779  0.00  0.00    +0.000 OA
ATOM     26  C   UNL     1      -4.747  17.470  20.387  0.00  0.00    +0.000 C 
ATOM     27  C   UNL     1      -3.816  16.345  20.816  0.00  0.00    +0.000 C 
ENDBRANCH  17  22
BRANCH   9  28
ATOM     28  N   UNL     1       2.020   8.148  19.613  0.00  0.00    +0.000 N 
ATOM     29  C   UNL     1       2.245   6.777  19.639  0.00  0.00    +0.000 C 
ATOM     30  O   UNL     1       1.776   5.965  20.431  0.00  0.00    +0.000 OA
ATOM     31  H   UNL     1       2.523   8.658  18.890  0.00  0.00    +0.000 HD
BRANCH  29  32
ATOM     32  C   UNL     1       3.157   6.261  18.576  0.00  0.00    +0.000 A 
ATOM     33  C   UNL     1       3.249   4.883  18.382  0.00  0.00    +0.000 A 
ATOM     34  C   UNL     1       4.064   4.404  17.360  0.00  0.00    +0.000 A 
ATOM     35  C   UNL     1       4.756   5.317  16.573  0.00  0.00    +0.000 A 
ATOM     36 CL   UNL     1       5.752   4.772  15.289  0.00  0.00    +0.000 Cl
ATOM     37  C   UNL     1       4.614   6.674  16.845  0.00  0.00    +0.000 A 
ATOM     38  N   UNL     1       3.831   7.181  17.834  0.00  0.00    +0.000 NA
ENDBRANCH  29  32
ENDBRANCH   9  28
TORSDOF 3
ENDMDL
MODEL 4
REMARK VINA RESULT:      -8.2      2.418      3.990
REMARK  Name = 
REMARK  3 active torsions:
REMARK  status: ('A' for Active; 'I' for Inactive)
REMARK    1  A    between atoms: C_9  and  N_10
REMARK    2  A    between atoms: C_11  and  C_13
REMARK    3  A    between atoms: C_27  and  C_28
REMARK                            x       y       z     vdW  Elec       q    Type
REMARK                         _______ _______ _______ _____ _____    ______ ____
ROOT
ATOM      1  N   UNL     1      -0.819  13.183  17.251  0.00  0.00    +0.000 N 
ATOM      2  C   UNL     1      -1.181  12.508  18.358  0.00  0.00    +0.000 C 
ATOM      3  N   UNL     1      -0.688  12.659  19.536  0.00  0.00    +0.000 NA
ATOM      4  C   UNL     1      -1.439  11.703  20.390  0.00  0.00    +0.000 C 
ATOM      5  C   UNL     1      -2.449  11.046  19.420  0.00  0.00    +0.000 C 
ATOM      6  O   UNL     1      -2.152  11.599  18.139  0.00  0.00    +0.000 OA
ATOM      7  C   UNL     1      -0.502  10.663  20.966  0.00  0.00    +0.000 A 
ATOM      8  C   UNL     1       0.311   9.903  20.110  0.00  0.00    +0.000 A 
ATOM      9  C   UNL     1       1.155   8.896  20.574  0.00  0.00    +0.000 A 
ATOM     10  C   UNL     1       1.203   8.660  21.949  0.00  0.00    +0.000 A 
ATOM     11  C   UNL     1       0.410   9.419  22.826  0.00  0.00    +0.000 A 
ATOM     12  C   UNL     1      -0.442  10.416  22.337  0.00  0.00    +0.000 A 
ATOM     13  O   UNL     1      -1.191  11.107  23.257  0.00  0.00    +0.000 OA
ATOM     14  C   UNL     1      -1.993  12.126  22.812  0.00  0.00    +0.000 A 
ATOM     15  C   UNL     1      -2.687  12.866  23.759  0.00  0.00    +0.000 A 
ATOM     16  N   UNL     1      -3.523  13.894  23.466  0.00  0.00    +0.000 NA
ATOM     17  C   UNL     1      -3.665  14.230  22.164  0.00  0.00    +0.000 A 
ATOM     18  C   UNL     1      -3.000  13.546  21.154  0.00  0.00    +0.000 A 
ATOM     19  C   UNL     1      -2.158  12.469  21.476  0.00  0.00    +0.000 A 
ATOM     20  H   UNL     1       0.092  13.617  17.332  0.00  0.00    +0.000 HD
ATOM     21  H   UNL     1      -0.963  12.671  16.391  0.00  0.00    +0.000 HD
ENDROOT
BRANCH  17  22
ATOM     22  C   UNL     1      -4.594  15.372  21.806  0.00  0.00    +0.000 C 
ATOM     23  C   UNL     1      -3.878  16.439  20.972  0.00  0.00    +0.000 C 
ATOM     24  C   UNL     1      -4.790  17.633  20.737  0.00  0.00    +0.000 C 
ATOM     25  O   UNL     1      -5.275  18.158  21.972  0.00  0.00    +0.000 OA
ATOM     26  C   UNL     1      -6.052  17.208  22.698  0.00  0.00    +0.000 C 
ATOM     27  C   UNL     1      -5.217  15.990  23.063  0.00  0.00    +0.000 C 
ENDBRANCH  17  22
BRANCH   9  28
ATOM     28  N   UNL     1       1.949   8.122  19.699  0.00  0.00    +0.000 N 
ATOM     29  C   UNL     1       2.162   6.752  19.780  0.00  0.00    +0.000 C 
ATOM     30  O   UNL     1       1.729   5.984  20.634  0.00  0.00    +0.000 OA
ATOM     31  H   UNL     1       2.416   8.591  18.927  0.00  0.00    +0.000 HD
BRANCH  29  32
ATOM     32  C   UNL     1       3.008   6.174  18.694  0.00  0.00    +0.000 A 
ATOM     33  C   UNL     1       3.645   7.042  17.807  0.00  0.00    +0.000 A 
ATOM     34  C   UNL     1       4.471   6.505  16.824  0.00  0.00    +0.000 A 
ATOM     35  C   UNL     1       4.628   5.126  16.761  0.00  0.00    +0.000 A 
ATOM     36 CL   UNL     1       5.654   4.423  15.581  0.00  0.00    +0.000 Cl
ATOM     37  C   UNL     1       3.944   4.335  17.680  0.00  0.00    +0.000 A 
ATOM     38  N   UNL     1       3.128   4.820  18.653  0.00  0.00    +0.000 NA
ENDBRANCH  29  32
ENDBRANCH   9  28
TORSDOF 3
ENDMDL
MODEL 5
REMARK VINA RESULT:      -8.2      1.194      1.386
REMARK  Name = 
REMARK  3 active torsions:
REMARK  status: ('A' for Active; 'I' for Inactive)
REMARK    1  A    between atoms: C_9  and  N_10
REMARK    2  A    between atoms: C_11  and  C_13
REMARK    3  A    between atoms: C_27  and  C_28
REMARK                            x       y       z     vdW  Elec       q    Type
REMARK                         _______ _______ _______ _____ _____    ______ ____
ROOT
ATOM      1  N   UNL     1       2.294  12.702  17.778  0.00  0.00    +0.000 N 
ATOM      2  C   UNL     1       1.562  11.777  18.426  0.00  0.00    +0.000 C 
ATOM      3  N   UNL     1       1.820  11.274  19.581  0.00  0.00    +0.000 NA
ATOM      4  C   UNL     1       0.705  10.328  19.844  0.00  0.00    +0.000 C 
ATOM      5  C   UNL     1      -0.206  10.466  18.603  0.00  0.00    +0.000 C 
ATOM      6  O   UNL     1       0.473  11.377  17.739  0.00  0.00    +0.000 OA
ATOM      7  C   UNL     1       1.232   8.914  19.964  0.00  0.00    +0.000 A 
ATOM      8  C   UNL     1       2.004   8.366  18.927  0.00  0.00    +0.000 A 
ATOM      9  C   UNL     1       2.473   7.054  18.954  0.00  0.00    +0.000 A 
ATOM     10  C   UNL     1       2.177   6.272  20.073  0.00  0.00    +0.000 A 
ATOM     11  C   UNL     1       1.419   6.806  21.129  0.00  0.00    +0.000 A 
ATOM     12  C   UNL     1       0.945   8.121  21.075  0.00  0.00    +0.000 A 
ATOM     13  O   UNL     1       0.204   8.565  22.142  0.00  0.00    +0.000 OA
ATOM     14  C   UNL     1      -0.226   9.867  22.140  0.00  0.00    +0.000 A 
ATOM     15  C   UNL     1      -0.909  10.325  23.258  0.00  0.00    +0.000 A 
ATOM     16  N   UNL     1      -1.401  11.582  23.393  0.00  0.00    +0.000 NA
ATOM     17  C   UNL     1      -1.187  12.448  22.377  0.00  0.00    +0.000 A 
ATOM     18  C   UNL     1      -0.505  12.073  21.227  0.00  0.00    +0.000 A 
ATOM     19  C   UNL     1      -0.024  10.759  21.095  0.00  0.00    +0.000 A 
ATOM     20  H   UNL     1       3.244  12.767  18.122  0.00  0.00    +0.000 HD
ATOM     21  H   UNL     1       2.217  12.657  16.771  0.00  0.00    +0.000 HD
ENDROOT
BRANCH  17  22
ATOM     22  C   UNL     1      -1.727  13.858  22.499  0.00  0.00    +0.000 C 
ATOM     23  C   UNL     1      -0.814  14.738  23.358  0.00  0.00    +0.000 C 
ATOM     24  C   UNL     1      -1.440  16.107  23.574  0.00  0.00    +0.000 C 
ATOM     25  O   UNL     1      -2.747  15.989  24.133  0.00  0.00    +0.000 OA
ATOM     26  C   UNL     1      -3.641  15.279  23.280  0.00  0.00    +0.000 C 
ATOM     27  C   UNL     1      -3.157  13.855  23.051  0.00  0.00    +0.000 C 
ENDBRANCH  17  22
BRANCH   9  28
ATOM     28  N   UNL     1       3.228   6.506  17.894  0.00  0.00    +0.000 N 
ATOM     29  C   UNL     1       4.475   5.903  18.000  0.00  0.00    +0.000 C 
ATOM     30  O   UNL     1       5.149   5.770  19.017  0.00  0.00    +0.000 OA
ATOM     31  H   UNL     1       2.840   6.542  16.954  0.00  0.00    +0.000 HD
BRANCH  29  32
ATOM     32  C   UNL     1       5.031   5.363  16.725  0.00  0.00    +0.000 A 
ATOM     33  C   UNL     1       5.271   3.992  16.625  0.00  0.00    +0.000 A 
ATOM     34  C   UNL     1       5.746   3.482  15.420  0.00  0.00    +0.000 A 
ATOM     35  C   UNL     1       5.965   4.358  14.363  0.00  0.00    +0.000 A 
ATOM     36 CL   UNL     1       6.527   3.769  12.854  0.00  0.00    +0.000 Cl
ATOM     37  C   UNL     1       5.710   5.712  14.555  0.00  0.00    +0.000 A 
ATOM     38  N   UNL     1       5.248   6.249  15.716  0.00  0.00    +0.000 NA
ENDBRANCH  29  32
ENDBRANCH   9  28
TORSDOF 3
ENDMDL
MODEL 6
REMARK VINA RESULT:      -8.0      3.445      4.679
REMARK  Name = 
REMARK  3 active torsions:
REMARK  status: ('A' for Active; 'I' for Inactive)
REMARK    1  A    between atoms: C_9  and  N_10
REMARK    2  A    between atoms: C_11  and  C_13
REMARK    3  A    between atoms: C_27  and  C_28
REMARK                            x       y       z     vdW  Elec       q    Type
REMARK                         _______ _______ _______ _____ _____    ______ ____
ROOT
ATOM      1  N   UNL     1      -2.696  10.885  15.027  0.00  0.00    +0.000 N 
ATOM      2  C   UNL     1      -2.638  10.743  16.363  0.00  0.00    +0.000 C 
ATOM      3  N   UNL     1      -2.067  11.545  17.190  0.00  0.00    +0.000 NA
ATOM      4  C   UNL     1      -2.308  10.949  18.530  0.00  0.00    +0.000 C 
ATOM      5  C   UNL     1      -3.152   9.688  18.234  0.00  0.00    +0.000 C 
ATOM      6  O   UNL     1      -3.252   9.629  16.812  0.00  0.00    +0.000 OA
ATOM      7  C   UNL     1      -0.995  10.569  19.181  0.00  0.00    +0.000 A 
ATOM      8  C   UNL     1      -0.099   9.724  18.507  0.00  0.00    +0.000 A 
ATOM      9  C   UNL     1       1.100   9.297  19.075  0.00  0.00    +0.000 A 
ATOM     10  C   UNL     1       1.422   9.754  20.354  0.00  0.00    +0.000 A 
ATOM     11  C   UNL     1       0.547  10.613  21.041  0.00  0.00    +0.000 A 
ATOM     12  C   UNL     1      -0.659  11.018  20.458  0.00  0.00    +0.000 A 
ATOM     13  O   UNL     1      -1.464  11.850  21.197  0.00  0.00    +0.000 OA
ATOM     14  C   UNL     1      -2.625  12.307  20.629  0.00  0.00    +0.000 A 
ATOM     15  C   UNL     1      -3.392  13.207  21.356  0.00  0.00    +0.000 A 
ATOM     16  N   UNL     1      -4.566  13.735  20.928  0.00  0.00    +0.000 NA
ATOM     17  C   UNL     1      -5.000  13.373  19.699  0.00  0.00    +0.000 A 
ATOM     18  C   UNL     1      -4.289  12.485  18.903  0.00  0.00    +0.000 A 
ATOM     19  C   UNL     1      -3.087  11.930  19.375  0.00  0.00    +0.000 A 
ATOM     20  H   UNL     1      -1.991  11.516  14.665  0.00  0.00    +0.000 HD
ATOM     21  H   UNL     1      -2.772  10.012  14.522  0.00  0.00    +0.000 HD
ENDROOT
BRANCH  17  22
ATOM     22  C   UNL     1      -6.310  13.944  19.195  0.00  0.00    +0.000 C 
ATOM     23  C   UNL     1      -6.669  13.391  17.813  0.00  0.00    +0.000 C 
ATOM     24  C   UNL     1      -7.916  14.075  17.272  0.00  0.00    +0.000 C 
ATOM     25  O   UNL     1      -7.755  15.492  17.254  0.00  0.00    +0.000 OA
ATOM     26  C   UNL     1      -7.546  16.032  18.557  0.00  0.00    +0.000 C 
ATOM     27  C   UNL     1      -6.271  15.477  19.176  0.00  0.00    +0.000 C 
ENDBRANCH  17  22
BRANCH   9  28
ATOM     28  N   UNL     1       1.981   8.427  18.396  0.00  0.00    +0.000 N 
ATOM     29  C   UNL     1       2.486   7.227  18.882  0.00  0.00    +0.000 C 
ATOM     30  O   UNL     1       2.285   6.732  19.987  0.00  0.00    +0.000 OA
ATOM     31  H   UNL     1       2.285   8.680  17.459  0.00  0.00    +0.000 HD
BRANCH  29  32
ATOM     32  C   UNL     1       3.362   6.476  17.935  0.00  0.00    +0.000 A 
ATOM     33  C   UNL     1       4.318   7.180  17.203  0.00  0.00    +0.000 A 
ATOM     34  C   UNL     1       5.166   6.473  16.356  0.00  0.00    +0.000 A 
ATOM     35  C   UNL     1       5.027   5.093  16.269  0.00  0.00    +0.000 A 
ATOM     36 CL   UNL     1       6.065   4.181  15.255  0.00  0.00    +0.000 Cl
ATOM     37  C   UNL     1       4.037   4.474  17.027  0.00  0.00    +0.000 A 
ATOM     38  N   UNL     1       3.190   5.129  17.864  0.00  0.00    +0.000 NA
ENDBRANCH  29  32
ENDBRANCH   9  28
TORSDOF 3
ENDMDL
MODEL 7
REMARK VINA RESULT:      -8.0      1.300      1.644
REMARK  Name = 
REMARK  3 active torsions:
REMARK  status: ('A' for Active; 'I' for Inactive)
REMARK    1  A    between atoms: C_9  and  N_10
REMARK    2  A    between atoms: C_11  and  C_13
REMARK    3  A    between atoms: C_27  and  C_28
REMARK                            x       y       z     vdW  Elec       q    Type
REMARK                         _______ _______ _______ _____ _____    ______ ____
ROOT
ATOM      1  N   UNL     1       2.238  12.697  17.741  0.00  0.00    +0.000 N 
ATOM      2  C   UNL     1       1.510  11.783  18.411  0.00  0.00    +0.000 C 
ATOM      3  N   UNL     1       1.776  11.303  19.573  0.00  0.00    +0.000 NA
ATOM      4  C   UNL     1       0.663  10.362  19.862  0.00  0.00    +0.000 C 
ATOM      5  C   UNL     1      -0.256  10.476  18.624  0.00  0.00    +0.000 C 
ATOM      6  O   UNL     1       0.417  11.371  17.739  0.00  0.00    +0.000 OA
ATOM      7  C   UNL     1       1.191   8.950  20.005  0.00  0.00    +0.000 A 
ATOM      8  C   UNL     1       1.957   8.383  18.973  0.00  0.00    +0.000 A 
ATOM      9  C   UNL     1       2.426   7.071  19.022  0.00  0.00    +0.000 A 
ATOM     10  C   UNL     1       2.138   6.311  20.157  0.00  0.00    +0.000 A 
ATOM     11  C   UNL     1       1.387   6.864  21.208  0.00  0.00    +0.000 A 
ATOM     12  C   UNL     1       0.912   8.179  21.132  0.00  0.00    +0.000 A 
ATOM     13  O   UNL     1       0.178   8.642  22.196  0.00  0.00    +0.000 OA
ATOM     14  C   UNL     1      -0.252   9.943  22.172  0.00  0.00    +0.000 A 
ATOM     15  C   UNL     1      -0.928  10.423  23.286  0.00  0.00    +0.000 A 
ATOM     16  N   UNL     1      -1.420  11.682  23.401  0.00  0.00    +0.000 NA
ATOM     17  C   UNL     1      -1.212  12.529  22.367  0.00  0.00    +0.000 A 
ATOM     18  C   UNL     1      -0.538  12.132  21.220  0.00  0.00    +0.000 A 
ATOM     19  C   UNL     1      -0.058  10.816  21.110  0.00  0.00    +0.000 A 
ATOM     20  H   UNL     1       3.190  12.768  18.077  0.00  0.00    +0.000 HD
ATOM     21  H   UNL     1       2.154  12.633  16.735  0.00  0.00    +0.000 HD
ENDROOT
BRANCH  17  22
ATOM     22  C   UNL     1      -1.752  13.941  22.466  0.00  0.00    +0.000 C 
ATOM     23  C   UNL     1      -1.675  14.668  21.121  0.00  0.00    +0.000 C 
ATOM     24  C   UNL     1      -2.099  16.121  21.274  0.00  0.00    +0.000 C 
ATOM     25  O   UNL     1      -1.327  16.776  22.279  0.00  0.00    +0.000 OA
ATOM     26  C   UNL     1      -1.492  16.182  23.564  0.00  0.00    +0.000 C 
ATOM     27  C   UNL     1      -1.023  14.734  23.557  0.00  0.00    +0.000 C 
ENDBRANCH  17  22
BRANCH   9  28
ATOM     28  N   UNL     1       3.174   6.504  17.967  0.00  0.00    +0.000 N 
ATOM     29  C   UNL     1       4.377   5.820  18.089  0.00  0.00    +0.000 C 
ATOM     30  O   UNL     1       5.012   5.617  19.120  0.00  0.00    +0.000 OA
ATOM     31  H   UNL     1       2.816   6.589  17.019  0.00  0.00    +0.000 HD
BRANCH  29  32
ATOM     32  C   UNL     1       4.933   5.278  16.815  0.00  0.00    +0.000 A 
ATOM     33  C   UNL     1       5.188   6.160  15.765  0.00  0.00    +0.000 A 
ATOM     34  C   UNL     1       5.750   5.662  14.593  0.00  0.00    +0.000 A 
ATOM     35  C   UNL     1       6.033   4.304  14.512  0.00  0.00    +0.000 A 
ATOM     36 CL   UNL     1       6.748   3.651  13.097  0.00  0.00    +0.000 Cl
ATOM     37  C   UNL     1       5.735   3.495  15.604  0.00  0.00    +0.000 A 
ATOM     38  N   UNL     1       5.185   3.942  16.764  0.00  0.00    +0.000 NA
ENDBRANCH  29  32
ENDBRANCH   9  28
TORSDOF 3
ENDMDL
MODEL 8
REMARK VINA RESULT:      -8.0      1.252      1.578
REMARK  Name = 
REMARK  3 active torsions:
REMARK  status: ('A' for Active; 'I' for Inactive)
REMARK    1  A    between atoms: C_9  and  N_10
REMARK    2  A    between atoms: C_11  and  C_13
REMARK    3  A    between atoms: C_27  and  C_28
REMARK                            x       y       z     vdW  Elec       q    Type
REMARK                         _______ _______ _______ _____ _____    ______ ____
ROOT
ATOM      1  N   UNL     1       2.257  12.962  17.861  0.00  0.00    +0.000 N 
ATOM      2  C   UNL     1       1.487  12.069  18.509  0.00  0.00    +0.000 C 
ATOM      3  N   UNL     1       1.706  11.583  19.679  0.00  0.00    +0.000 NA
ATOM      4  C   UNL     1       0.561  10.671  19.935  0.00  0.00    +0.000 C 
ATOM      5  C   UNL     1      -0.317  10.808  18.670  0.00  0.00    +0.000 C 
ATOM      6  O   UNL     1       0.404  11.684  17.805  0.00  0.00    +0.000 OA
ATOM      7  C   UNL     1       1.048   9.247  20.093  0.00  0.00    +0.000 A 
ATOM      8  C   UNL     1       1.829   8.659  19.085  0.00  0.00    +0.000 A 
ATOM      9  C   UNL     1       2.263   7.336  19.148  0.00  0.00    +0.000 A 
ATOM     10  C   UNL     1       1.922   6.584  20.275  0.00  0.00    +0.000 A 
ATOM     11  C   UNL     1       1.154   7.158  21.303  0.00  0.00    +0.000 A 
ATOM     12  C   UNL     1       0.716   8.484  21.212  0.00  0.00    +0.000 A 
ATOM     13  O   UNL     1      -0.037   8.967  22.253  0.00  0.00    +0.000 OA
ATOM     14  C   UNL     1      -0.433  10.279  22.217  0.00  0.00    +0.000 A 
ATOM     15  C   UNL     1      -1.129  10.777  23.310  0.00  0.00    +0.000 A 
ATOM     16  N   UNL     1      -1.591  12.049  23.410  0.00  0.00    +0.000 NA
ATOM     17  C   UNL     1      -1.331  12.889  22.382  0.00  0.00    +0.000 A 
ATOM     18  C   UNL     1      -0.633  12.474  21.256  0.00  0.00    +0.000 A 
ATOM     19  C   UNL     1      -0.184  11.145  21.160  0.00  0.00    +0.000 A 
ATOM     20  H   UNL     1       3.201  13.010  18.225  0.00  0.00    +0.000 HD
ATOM     21  H   UNL     1       2.202  12.900  16.853  0.00  0.00    +0.000 HD
ENDROOT
BRANCH  17  22
ATOM     22  C   UNL     1      -1.837  14.314  22.465  0.00  0.00    +0.000 C 
ATOM     23  C   UNL     1      -2.633  14.555  23.751  0.00  0.00    +0.000 C 
ATOM     24  C   UNL     1      -3.239  15.950  23.750  0.00  0.00    +0.000 C 
ATOM     25  O   UNL     1      -4.033  16.163  22.584  0.00  0.00    +0.000 OA
ATOM     26  C   UNL     1      -3.270  16.066  21.383  0.00  0.00    +0.000 C 
ATOM     27  C   UNL     1      -2.672  14.675  21.231  0.00  0.00    +0.000 C 
ENDBRANCH  17  22
BRANCH   9  28
ATOM     28  N   UNL     1       3.027   6.749  18.116  0.00  0.00    +0.000 N 
ATOM     29  C   UNL     1       4.126   5.915  18.281  0.00  0.00    +0.000 C 
ATOM     30  O   UNL     1       4.643   5.572  19.340  0.00  0.00    +0.000 OA
ATOM     31  H   UNL     1       2.763   6.936  17.152  0.00  0.00    +0.000 HD
BRANCH  29  32
ATOM     32  C   UNL     1       4.722   5.390  17.018  0.00  0.00    +0.000 A 
ATOM     33  C   UNL     1       5.008   6.286  15.987  0.00  0.00    +0.000 A 
ATOM     34  C   UNL     1       5.606   5.803  14.827  0.00  0.00    +0.000 A 
ATOM     35  C   UNL     1       5.895   4.447  14.738  0.00  0.00    +0.000 A 
ATOM     36 CL   UNL     1       6.653   3.813  13.338  0.00  0.00    +0.000 Cl
ATOM     37  C   UNL     1       5.565   3.623  15.810  0.00  0.00    +0.000 A 
ATOM     38  N   UNL     1       4.978   4.056  16.958  0.00  0.00    +0.000 NA
ENDBRANCH  29  32
ENDBRANCH   9  28
TORSDOF 3
ENDMDL
MODEL 9
REMARK VINA RESULT:      -7.8      4.748     11.063
REMARK  Name = 
REMARK  3 active torsions:
REMARK  status: ('A' for Active; 'I' for Inactive)
REMARK    1  A    between atoms: C_9  and  N_10
REMARK    2  A    between atoms: C_11  and  C_13
REMARK    3  A    between atoms: C_27  and  C_28
REMARK                            x       y       z     vdW  Elec       q    Type
REMARK                         _______ _______ _______ _____ _____    ______ ____
ROOT
ATOM      1  N   UNL     1       0.549   9.231  24.319  0.00  0.00    +0.000 N 
ATOM      2  C   UNL     1       0.297   9.422  23.011  0.00  0.00    +0.000 C 
ATOM      3  N   UNL     1       1.066  10.013  22.167  0.00  0.00    +0.000 NA
ATOM      4  C   UNL     1       0.341   9.936  20.872  0.00  0.00    +0.000 C 
ATOM      5  C   UNL     1      -0.949   9.153  21.208  0.00  0.00    +0.000 C 
ATOM      6  O   UNL     1      -0.893   8.927  22.616  0.00  0.00    +0.000 OA
ATOM      7  C   UNL     1       0.005  11.326  20.373  0.00  0.00    +0.000 A 
ATOM      8  C   UNL     1      -0.710  12.209  21.197  0.00  0.00    +0.000 A 
ATOM      9  C   UNL     1      -1.095  13.481  20.776  0.00  0.00    +0.000 A 
ATOM     10  C   UNL     1      -0.727  13.890  19.493  0.00  0.00    +0.000 A 
ATOM     11  C   UNL     1       0.003  13.027  18.658  0.00  0.00    +0.000 A 
ATOM     12  C   UNL     1       0.367  11.748  19.094  0.00  0.00    +0.000 A 
ATOM     13  O   UNL     1       1.071  10.962  18.216  0.00  0.00    +0.000 OA
ATOM     14  C   UNL     1       1.488   9.726  18.637  0.00  0.00    +0.000 A 
ATOM     15  C   UNL     1       2.263   8.972  17.767  0.00  0.00    +0.000 A 
ATOM     16  N   UNL     1       2.737   7.731  18.042  0.00  0.00    +0.000 NA
ATOM     17  C   UNL     1       2.451   7.210  19.257  0.00  0.00    +0.000 A 
ATOM     18  C   UNL     1       1.689   7.902  20.190  0.00  0.00    +0.000 A 
ATOM     19  C   UNL     1       1.186   9.176  19.876  0.00  0.00    +0.000 A 
ATOM     20  H   UNL     1       1.259   9.857  24.681  0.00  0.00    +0.000 HD
ATOM     21  H   UNL     1      -0.281   9.166  24.894  0.00  0.00    +0.000 HD
ENDROOT
BRANCH  17  22
ATOM     22  C   UNL     1       2.965   5.825  19.592  0.00  0.00    +0.000 C 
ATOM     23  C   UNL     1       3.212   4.996  18.328  0.00  0.00    +0.000 C 
ATOM     24  C   UNL     1       3.601   3.571  18.692  0.00  0.00    +0.000 C 
ATOM     25  O   UNL     1       2.622   2.973  19.539  0.00  0.00    +0.000 OA
ATOM     26  C   UNL     1       2.476   3.668  20.775  0.00  0.00    +0.000 C 
ATOM     27  C   UNL     1       2.009   5.097  20.543  0.00  0.00    +0.000 C 
ENDBRANCH  17  22
BRANCH   9  28
ATOM     28  N   UNL     1      -1.836  14.351  21.605  0.00  0.00    +0.000 N 
ATOM     29  C   UNL     1      -3.105  14.114  22.119  0.00  0.00    +0.000 C 
ATOM     30  O   UNL     1      -3.813  13.131  21.918  0.00  0.00    +0.000 OA
ATOM     31  H   UNL     1      -1.420  15.241  21.869  0.00  0.00    +0.000 HD
BRANCH  29  32
ATOM     32  C   UNL     1      -3.641  15.183  23.012  0.00  0.00    +0.000 A 
ATOM     33  C   UNL     1      -5.013  15.222  23.263  0.00  0.00    +0.000 A 
ATOM     34  C   UNL     1      -5.506  16.191  24.132  0.00  0.00    +0.000 A 
ATOM     35  C   UNL     1      -4.614  17.083  24.716  0.00  0.00    +0.000 A 
ATOM     36 CL   UNL     1      -5.175  18.276  25.811  0.00  0.00    +0.000 Cl
ATOM     37  C   UNL     1      -3.263  16.977  24.399  0.00  0.00    +0.000 A 
ATOM     38  N   UNL     1      -2.743  16.048  23.554  0.00  0.00    +0.000 NA
ENDBRANCH  29  32
ENDBRANCH   9  28
TORSDOF 3
ENDMDL
