MODEL 1
REMARK VINA RESULT:      -7.5      0.000      0.000
REMARK  Name = 
REMARK  7 active torsions:
REMARK  status: ('A' for Active; 'I' for Inactive)
REMARK    1  A    between atoms: C_1  and  N_2
REMARK    2  A    between atoms: N_2  and  C_3
REMARK    3  A    between atoms: N_2  and  C_16
REMARK    4  A    between atoms: C_3  and  C_4
REMARK    5  A    between atoms: N_6  and  C_7
REMARK    6  A    between atoms: C_12  and  N_13
REMARK    7  A    between atoms: C_16  and  C_17
REMARK                            x       y       z     vdW  Elec       q    Type
REMARK                         _______ _______ _______ _____ _____    ______ ____
ROOT
ATOM      1  C   UNL     1       6.354   4.774  18.534  0.00  0.00    +0.000 C 
ATOM      2  O   UNL     1       6.677   5.080  19.675  0.00  0.00    +0.000 OA
ATOM      3  N   UNL     1       5.058   4.456  18.152  0.00  0.00    +0.000 N 
ATOM      4  H   UNL     1       4.993   3.746  17.423  0.00  0.00    +0.000 HD
ENDROOT
BRANCH   3   5
ATOM      5  C   UNL     1       3.962   4.552  19.042  0.00  0.00    +0.000 A 
ATOM      6  C   UNL     1       3.308   5.787  19.190  0.00  0.00    +0.000 A 
ATOM      7  C   UNL     1       2.195   5.916  20.023  0.00  0.00    +0.000 A 
ATOM      8  C   UNL     1       1.723   4.819  20.733  0.00  0.00    +0.000 A 
ATOM      9  C   UNL     1       2.360   3.580  20.603  0.00  0.00    +0.000 A 
ATOM     10  C   UNL     1       3.470   3.442  19.749  0.00  0.00    +0.000 A 
BRANCH  10  11
ATOM     11  N   UNL     1       4.140   2.137  19.683  0.00  0.00    +0.000 N 
ATOM     12  O   UNL     1       4.995   1.864  20.544  0.00  0.00    +0.000 OA
ATOM     13  O   UNL     1       3.831   1.375  18.758  0.00  0.00    +0.000 OA
ENDBRANCH  10  11
ENDBRANCH   3   5
BRANCH   1  14
ATOM     14  C   UNL     1       7.354   4.749  17.374  0.00  0.00    +0.000 C 
BRANCH  14  16
ATOM     15  C   UNL     1       7.442   7.172  17.473  0.00  0.00    +0.000 C 
ATOM     16  N   UNL     1       7.335   6.003  16.590  0.00  0.00    +0.000 NA
BRANCH  16  17
ATOM     17  C   UNL     1       6.157   6.075  15.707  0.00  0.00    +0.000 C 
BRANCH  17  18
ATOM     18  C   UNL     1       6.286   5.189  14.486  0.00  0.00    +0.000 A 
ATOM     19  C   UNL     1       5.328   4.198  14.224  0.00  0.00    +0.000 A 
ATOM     20  C   UNL     1       5.511   3.304  13.169  0.00  0.00    +0.000 A 
ATOM     21  C   UNL     1       6.646   3.404  12.368  0.00  0.00    +0.000 A 
ATOM     22 BR   UNL     1       6.928   2.152  10.980  0.00  0.00    +0.000 Br
ATOM     23  C   UNL     1       7.590   4.402  12.596  0.00  0.00    +0.000 A 
ATOM     24  C   UNL     1       7.408   5.295  13.652  0.00  0.00    +0.000 A 
ENDBRANCH  17  18
ENDBRANCH  16  17
ENDBRANCH  14  16
ENDBRANCH   1  14
TORSDOF 6
ENDMDL
MODEL 2
REMARK VINA RESULT:      -7.4      1.327      1.753
REMARK  Name = 
REMARK  7 active torsions:
REMARK  status: ('A' for Active; 'I' for Inactive)
REMARK    1  A    between atoms: C_1  and  N_2
REMARK    2  A    between atoms: N_2  and  C_3
REMARK    3  A    between atoms: N_2  and  C_16
REMARK    4  A    between atoms: C_3  and  C_4
REMARK    5  A    between atoms: N_6  and  C_7
REMARK    6  A    between atoms: C_12  and  N_13
REMARK    7  A    between atoms: C_16  and  C_17
REMARK                            x       y       z     vdW  Elec       q    Type
REMARK                         _______ _______ _______ _____ _____    ______ ____
ROOT
ATOM      1  C   UNL     1       5.815   4.658  18.695  0.00  0.00    +0.000 C 
ATOM      2  O   UNL     1       5.368   5.530  19.431  0.00  0.00    +0.000 OA
ATOM      3  N   UNL     1       5.076   3.577  18.233  0.00  0.00    +0.000 N 
ATOM      4  H   UNL     1       5.609   2.715  18.124  0.00  0.00    +0.000 HD
ENDROOT
BRANCH   3   5
ATOM      5  C   UNL     1       3.693   3.438  18.499  0.00  0.00    +0.000 A 
ATOM      6  C   UNL     1       2.767   4.034  17.626  0.00  0.00    +0.000 A 
ATOM      7  C   UNL     1       1.393   3.884  17.824  0.00  0.00    +0.000 A 
ATOM      8  C   UNL     1       0.919   3.148  18.904  0.00  0.00    +0.000 A 
ATOM      9  C   UNL     1       1.823   2.548  19.787  0.00  0.00    +0.000 A 
ATOM     10  C   UNL     1       3.208   2.681  19.578  0.00  0.00    +0.000 A 
BRANCH  10  11
ATOM     11  N   UNL     1       4.122   2.078  20.559  0.00  0.00    +0.000 N 
ATOM     12  O   UNL     1       5.162   1.539  20.146  0.00  0.00    +0.000 OA
ATOM     13  O   UNL     1       3.800   2.125  21.753  0.00  0.00    +0.000 OA
ENDBRANCH  10  11
ENDBRANCH   3   5
BRANCH   1  14
ATOM     14  C   UNL     1       7.250   4.686  18.161  0.00  0.00    +0.000 C 
BRANCH  14  16
ATOM     15  C   UNL     1       7.860   7.035  18.151  0.00  0.00    +0.000 C 
ATOM     16  N   UNL     1       7.512   5.874  17.321  0.00  0.00    +0.000 NA
BRANCH  16  17
ATOM     17  C   UNL     1       6.389   6.155  16.409  0.00  0.00    +0.000 C 
BRANCH  17  18
ATOM     18  C   UNL     1       6.331   5.196  15.240  0.00  0.00    +0.000 A 
ATOM     19  C   UNL     1       7.381   5.144  14.312  0.00  0.00    +0.000 A 
ATOM     20  C   UNL     1       7.273   4.349  13.170  0.00  0.00    +0.000 A 
ATOM     21  C   UNL     1       6.120   3.597  12.959  0.00  0.00    +0.000 A 
ATOM     22 BR   UNL     1       5.944   2.571  11.381  0.00  0.00    +0.000 Br
ATOM     23  C   UNL     1       5.082   3.613  13.888  0.00  0.00    +0.000 A 
ATOM     24  C   UNL     1       5.189   4.410  15.028  0.00  0.00    +0.000 A 
ENDBRANCH  17  18
ENDBRANCH  16  17
ENDBRANCH  14  16
ENDBRANCH   1  14
TORSDOF 6
ENDMDL
MODEL 3
REMARK VINA RESULT:      -7.4      0.368      1.069
REMARK  Name = 
REMARK  7 active torsions:
REMARK  status: ('A' for Active; 'I' for Inactive)
REMARK    1  A    between atoms: C_1  and  N_2
REMARK    2  A    between atoms: N_2  and  C_3
REMARK    3  A    between atoms: N_2  and  C_16
REMARK    4  A    between atoms: C_3  and  C_4
REMARK    5  A    between atoms: N_6  and  C_7
REMARK    6  A    between atoms: C_12  and  N_13
REMARK    7  A    between atoms: C_16  and  C_17
REMARK                            x       y       z     vdW  Elec       q    Type
REMARK                         _______ _______ _______ _____ _____    ______ ____
ROOT
ATOM      1  C   UNL     1       6.420   4.882  18.704  0.00  0.00    +0.000 C 
ATOM      2  O   UNL     1       6.706   5.165  19.861  0.00  0.00    +0.000 OA
ATOM      3  N   UNL     1       5.139   4.561  18.277  0.00  0.00    +0.000 N 
ATOM      4  H   UNL     1       5.102   3.867  17.530  0.00  0.00    +0.000 HD
ENDROOT
BRANCH   3   5
ATOM      5  C   UNL     1       4.016   4.627  19.135  0.00  0.00    +0.000 A 
ATOM      6  C   UNL     1       3.359   5.858  19.307  0.00  0.00    +0.000 A 
ATOM      7  C   UNL     1       2.221   5.959  20.109  0.00  0.00    +0.000 A 
ATOM      8  C   UNL     1       1.726   4.838  20.764  0.00  0.00    +0.000 A 
ATOM      9  C   UNL     1       2.366   3.603  20.610  0.00  0.00    +0.000 A 
ATOM     10  C   UNL     1       3.501   3.494  19.787  0.00  0.00    +0.000 A 
BRANCH  10  11
ATOM     11  N   UNL     1       4.172   2.190  19.694  0.00  0.00    +0.000 N 
ATOM     12  O   UNL     1       5.004   1.889  20.567  0.00  0.00    +0.000 OA
ATOM     13  O   UNL     1       3.886   1.460  18.737  0.00  0.00    +0.000 OA
ENDBRANCH  10  11
ENDBRANCH   3   5
BRANCH   1  14
ATOM     14  C   UNL     1       7.454   4.892  17.574  0.00  0.00    +0.000 C 
BRANCH  14  16
ATOM     15  C   UNL     1       7.562   7.310  17.734  0.00  0.00    +0.000 C 
ATOM     16  N   UNL     1       7.451   6.165  16.822  0.00  0.00    +0.000 NA
BRANCH  16  17
ATOM     17  C   UNL     1       6.280   6.269  15.933  0.00  0.00    +0.000 C 
BRANCH  17  18
ATOM     18  C   UNL     1       6.267   5.206  14.855  0.00  0.00    +0.000 A 
ATOM     19  C   UNL     1       7.300   5.144  13.908  0.00  0.00    +0.000 A 
ATOM     20  C   UNL     1       7.227   4.244  12.845  0.00  0.00    +0.000 A 
ATOM     21  C   UNL     1       6.126   3.397  12.732  0.00  0.00    +0.000 A 
ATOM     22 BR   UNL     1       5.993   2.224  11.256  0.00  0.00    +0.000 Br
ATOM     23  C   UNL     1       5.109   3.425  13.682  0.00  0.00    +0.000 A 
ATOM     24  C   UNL     1       5.181   4.326  14.744  0.00  0.00    +0.000 A 
ENDBRANCH  17  18
ENDBRANCH  16  17
ENDBRANCH  14  16
ENDBRANCH   1  14
TORSDOF 6
ENDMDL
MODEL 4
REMARK VINA RESULT:      -6.9      4.203      6.217
REMARK  Name = 
REMARK  7 active torsions:
REMARK  status: ('A' for Active; 'I' for Inactive)
REMARK    1  A    between atoms: C_1  and  N_2
REMARK    2  A    between atoms: N_2  and  C_3
REMARK    3  A    between atoms: N_2  and  C_16
REMARK    4  A    between atoms: C_3  and  C_4
REMARK    5  A    between atoms: N_6  and  C_7
REMARK    6  A    between atoms: C_12  and  N_13
REMARK    7  A    between atoms: C_16  and  C_17
REMARK                            x       y       z     vdW  Elec       q    Type
REMARK                         _______ _______ _______ _____ _____    ______ ____
ROOT
ATOM      1  C   UNL     1       2.043   5.953  20.199  0.00  0.00    +0.000 C 
ATOM      2  O   UNL     1       1.998   5.810  18.983  0.00  0.00    +0.000 OA
ATOM      3  N   UNL     1       1.850   7.165  20.846  0.00  0.00    +0.000 N 
ATOM      4  H   UNL     1       2.407   7.289  21.691  0.00  0.00    +0.000 HD
ENDROOT
BRANCH   3   5
ATOM      5  C   UNL     1       1.481   8.343  20.153  0.00  0.00    +0.000 A 
ATOM      6  C   UNL     1       1.951   8.539  18.843  0.00  0.00    +0.000 A 
ATOM      7  C   UNL     1       1.576   9.664  18.106  0.00  0.00    +0.000 A 
ATOM      8  C   UNL     1       0.738  10.620  18.668  0.00  0.00    +0.000 A 
ATOM      9  C   UNL     1       0.261  10.447  19.972  0.00  0.00    +0.000 A 
ATOM     10  C   UNL     1       0.621   9.304  20.709  0.00  0.00    +0.000 A 
BRANCH  10  11
ATOM     11  N   UNL     1       0.140   9.187  22.092  0.00  0.00    +0.000 N 
ATOM     12  O   UNL     1      -0.714   8.322  22.352  0.00  0.00    +0.000 OA
ATOM     13  O   UNL     1       0.600   9.971  22.932  0.00  0.00    +0.000 OA
ENDBRANCH  10  11
ENDBRANCH   3   5
BRANCH   1  14
ATOM     14  C   UNL     1       2.283   4.783  21.158  0.00  0.00    +0.000 C 
BRANCH  14  16
ATOM     15  C   UNL     1       1.318   2.556  21.166  0.00  0.00    +0.000 C 
ATOM     16  N   UNL     1       2.229   3.475  20.470  0.00  0.00    +0.000 NA
BRANCH  16  17
ATOM     17  C   UNL     1       3.573   2.899  20.288  0.00  0.00    +0.000 C 
BRANCH  17  18
ATOM     18  C   UNL     1       4.232   3.347  19.001  0.00  0.00    +0.000 A 
ATOM     19  C   UNL     1       5.348   4.196  19.033  0.00  0.00    +0.000 A 
ATOM     20  C   UNL     1       5.879   4.706  17.848  0.00  0.00    +0.000 A 
ATOM     21  C   UNL     1       5.303   4.359  16.628  0.00  0.00    +0.000 A 
ATOM     22 BR   UNL     1       5.981   5.100  15.026  0.00  0.00    +0.000 Br
ATOM     23  C   UNL     1       4.215   3.491  16.578  0.00  0.00    +0.000 A 
ATOM     24  C   UNL     1       3.682   2.984  17.763  0.00  0.00    +0.000 A 
ENDBRANCH  17  18
ENDBRANCH  16  17
ENDBRANCH  14  16
ENDBRANCH   1  14
TORSDOF 6
ENDMDL
MODEL 5
REMARK VINA RESULT:      -6.8      3.764      7.430
REMARK  Name = 
REMARK  7 active torsions:
REMARK  status: ('A' for Active; 'I' for Inactive)
REMARK    1  A    between atoms: C_1  and  N_2
REMARK    2  A    between atoms: N_2  and  C_3
REMARK    3  A    between atoms: N_2  and  C_16
REMARK    4  A    between atoms: C_3  and  C_4
REMARK    5  A    between atoms: N_6  and  C_7
REMARK    6  A    between atoms: C_12  and  N_13
REMARK    7  A    between atoms: C_16  and  C_17
REMARK                            x       y       z     vdW  Elec       q    Type
REMARK                         _______ _______ _______ _____ _____    ______ ____
ROOT
ATOM      1  C   UNL     1       4.421   5.046  16.485  0.00  0.00    +0.000 C 
ATOM      2  O   UNL     1       4.488   6.199  16.077  0.00  0.00    +0.000 OA
ATOM      3  N   UNL     1       4.984   3.958  15.833  0.00  0.00    +0.000 N 
ATOM      4  H   UNL     1       4.455   3.090  15.920  0.00  0.00    +0.000 HD
ENDROOT
BRANCH   3   5
ATOM      5  C   UNL     1       5.779   4.100  14.671  0.00  0.00    +0.000 A 
ATOM      6  C   UNL     1       5.289   3.620  13.445  0.00  0.00    +0.000 A 
ATOM      7  C   UNL     1       6.020   3.778  12.266  0.00  0.00    +0.000 A 
ATOM      8  C   UNL     1       7.259   4.407  12.292  0.00  0.00    +0.000 A 
ATOM      9  C   UNL     1       7.768   4.892  13.502  0.00  0.00    +0.000 A 
ATOM     10  C   UNL     1       7.024   4.750  14.688  0.00  0.00    +0.000 A 
BRANCH  10  11
ATOM     11  N   UNL     1       7.619   5.226  15.945  0.00  0.00    +0.000 N 
ATOM     12  O   UNL     1       7.960   4.385  16.794  0.00  0.00    +0.000 OA
ATOM     13  O   UNL     1       7.738   6.448  16.102  0.00  0.00    +0.000 OA
ENDBRANCH  10  11
ENDBRANCH   3   5
BRANCH   1  14
ATOM     14  C   UNL     1       3.733   4.677  17.803  0.00  0.00    +0.000 C 
BRANCH  14  16
ATOM     15  C   UNL     1       5.350   5.122  19.557  0.00  0.00    +0.000 C 
ATOM     16  N   UNL     1       4.116   5.583  18.907  0.00  0.00    +0.000 NA
BRANCH  16  17
ATOM     17  C   UNL     1       3.013   5.766  19.868  0.00  0.00    +0.000 C 
BRANCH  17  18
ATOM     18  C   UNL     1       2.266   7.066  19.660  0.00  0.00    +0.000 A 
ATOM     19  C   UNL     1       2.337   7.737  18.431  0.00  0.00    +0.000 A 
ATOM     20  C   UNL     1       1.749   8.993  18.279  0.00  0.00    +0.000 A 
ATOM     21  C   UNL     1       1.080   9.576  19.353  0.00  0.00    +0.000 A 
ATOM     22 BR   UNL     1       0.340  11.305  19.169  0.00  0.00    +0.000 Br
ATOM     23  C   UNL     1       0.973   8.907  20.570  0.00  0.00    +0.000 A 
ATOM     24  C   UNL     1       1.563   7.653  20.722  0.00  0.00    +0.000 A 
ENDBRANCH  17  18
ENDBRANCH  16  17
ENDBRANCH  14  16
ENDBRANCH   1  14
TORSDOF 6
ENDMDL
MODEL 6
REMARK VINA RESULT:      -6.8      1.488      1.926
REMARK  Name = 
REMARK  7 active torsions:
REMARK  status: ('A' for Active; 'I' for Inactive)
REMARK    1  A    between atoms: C_1  and  N_2
REMARK    2  A    between atoms: N_2  and  C_3
REMARK    3  A    between atoms: N_2  and  C_16
REMARK    4  A    between atoms: C_3  and  C_4
REMARK    5  A    between atoms: N_6  and  C_7
REMARK    6  A    between atoms: C_12  and  N_13
REMARK    7  A    between atoms: C_16  and  C_17
REMARK                            x       y       z     vdW  Elec       q    Type
REMARK                         _______ _______ _______ _____ _____    ______ ____
ROOT
ATOM      1  C   UNL     1       4.955   5.412  18.860  0.00  0.00    +0.000 C 
ATOM      2  O   UNL     1       5.584   4.924  19.792  0.00  0.00    +0.000 OA
ATOM      3  N   UNL     1       3.626   5.123  18.584  0.00  0.00    +0.000 N 
ATOM      4  H   UNL     1       3.390   5.119  17.592  0.00  0.00    +0.000 HD
ENDROOT
BRANCH   3   5
ATOM      5  C   UNL     1       2.840   4.301  19.426  0.00  0.00    +0.000 A 
ATOM      6  C   UNL     1       2.435   4.794  20.678  0.00  0.00    +0.000 A 
ATOM      7  C   UNL     1       1.622   4.034  21.521  0.00  0.00    +0.000 A 
ATOM      8  C   UNL     1       1.210   2.764  21.136  0.00  0.00    +0.000 A 
ATOM      9  C   UNL     1       1.603   2.252  19.895  0.00  0.00    +0.000 A 
ATOM     10  C   UNL     1       2.406   3.023  19.035  0.00  0.00    +0.000 A 
BRANCH  10  11
ATOM     11  N   UNL     1       2.840   2.427  17.764  0.00  0.00    +0.000 N 
ATOM     12  O   UNL     1       3.614   1.455  17.799  0.00  0.00    +0.000 OA
ATOM     13  O   UNL     1       2.422   2.935  16.716  0.00  0.00    +0.000 OA
ENDBRANCH  10  11
ENDBRANCH   3   5
BRANCH   1  14
ATOM     14  C   UNL     1       5.565   6.442  17.905  0.00  0.00    +0.000 C 
BRANCH  14  16
ATOM     15  C   UNL     1       7.580   7.655  17.306  0.00  0.00    +0.000 C 
ATOM     16  N   UNL     1       7.043   6.458  17.966  0.00  0.00    +0.000 NA
BRANCH  16  17
ATOM     17  C   UNL     1       7.623   5.214  17.428  0.00  0.00    +0.000 C 
BRANCH  17  18
ATOM     18  C   UNL     1       7.013   4.810  16.103  0.00  0.00    +0.000 A 
ATOM     19  C   UNL     1       5.962   3.882  16.059  0.00  0.00    +0.000 A 
ATOM     20  C   UNL     1       5.483   3.419  14.834  0.00  0.00    +0.000 A 
ATOM     21  C   UNL     1       6.046   3.890  13.650  0.00  0.00    +0.000 A 
ATOM     22 BR   UNL     1       5.443   3.215  11.990  0.00  0.00    +0.000 Br
ATOM     23  C   UNL     1       7.068   4.836  13.677  0.00  0.00    +0.000 A 
ATOM     24  C   UNL     1       7.549   5.297  14.902  0.00  0.00    +0.000 A 
ENDBRANCH  17  18
ENDBRANCH  16  17
ENDBRANCH  14  16
ENDBRANCH   1  14
TORSDOF 6
ENDMDL
MODEL 7
REMARK VINA RESULT:      -6.8      1.995      2.487
REMARK  Name = 
REMARK  7 active torsions:
REMARK  status: ('A' for Active; 'I' for Inactive)
REMARK    1  A    between atoms: C_1  and  N_2
REMARK    2  A    between atoms: N_2  and  C_3
REMARK    3  A    between atoms: N_2  and  C_16
REMARK    4  A    between atoms: C_3  and  C_4
REMARK    5  A    between atoms: N_6  and  C_7
REMARK    6  A    between atoms: C_12  and  N_13
REMARK    7  A    between atoms: C_16  and  C_17
REMARK                            x       y       z     vdW  Elec       q    Type
REMARK                         _______ _______ _______ _____ _____    ______ ____
ROOT
ATOM      1  C   UNL     1       3.976   6.113  18.482  0.00  0.00    +0.000 C 
ATOM      2  O   UNL     1       3.111   6.877  18.894  0.00  0.00    +0.000 OA
ATOM      3  N   UNL     1       4.042   4.766  18.807  0.00  0.00    +0.000 N 
ATOM      4  H   UNL     1       4.988   4.393  18.884  0.00  0.00    +0.000 HD
ENDROOT
BRANCH   3   5
ATOM      5  C   UNL     1       3.044   4.124  19.580  0.00  0.00    +0.000 A 
ATOM      6  C   UNL     1       3.189   4.076  20.977  0.00  0.00    +0.000 A 
ATOM      7  C   UNL     1       2.208   3.492  21.781  0.00  0.00    +0.000 A 
ATOM      8  C   UNL     1       1.072   2.936  21.205  0.00  0.00    +0.000 A 
ATOM      9  C   UNL     1       0.908   2.971  19.815  0.00  0.00    +0.000 A 
ATOM     10  C   UNL     1       1.886   3.576  19.005  0.00  0.00    +0.000 A 
BRANCH  10  11
ATOM     11  N   UNL     1       1.699   3.545  17.547  0.00  0.00    +0.000 N 
ATOM     12  O   UNL     1       2.395   2.762  16.877  0.00  0.00    +0.000 OA
ATOM     13  O   UNL     1       0.865   4.315  17.055  0.00  0.00    +0.000 OA
ENDBRANCH  10  11
ENDBRANCH   3   5
BRANCH   1  14
ATOM     14  C   UNL     1       5.074   6.560  17.512  0.00  0.00    +0.000 C 
BRANCH  14  16
ATOM     15  C   UNL     1       7.299   7.502  17.739  0.00  0.00    +0.000 C 
ATOM     16  N   UNL     1       6.429   6.366  18.073  0.00  0.00    +0.000 NA
BRANCH  16  17
ATOM     17  C   UNL     1       7.010   5.076  17.661  0.00  0.00    +0.000 C 
BRANCH  17  18
ATOM     18  C   UNL     1       6.645   4.696  16.242  0.00  0.00    +0.000 A 
ATOM     19  C   UNL     1       5.631   3.758  15.997  0.00  0.00    +0.000 A 
ATOM     20  C   UNL     1       5.378   3.319  14.697  0.00  0.00    +0.000 A 
ATOM     21  C   UNL     1       6.130   3.825  13.639  0.00  0.00    +0.000 A 
ATOM     22 BR   UNL     1       5.833   3.182  11.886  0.00  0.00    +0.000 Br
ATOM     23  C   UNL     1       7.118   4.780  13.863  0.00  0.00    +0.000 A 
ATOM     24  C   UNL     1       7.372   5.218  15.163  0.00  0.00    +0.000 A 
ENDBRANCH  17  18
ENDBRANCH  16  17
ENDBRANCH  14  16
ENDBRANCH   1  14
TORSDOF 6
ENDMDL
MODEL 8
REMARK VINA RESULT:      -6.7      1.496      2.428
REMARK  Name = 
REMARK  7 active torsions:
REMARK  status: ('A' for Active; 'I' for Inactive)
REMARK    1  A    between atoms: C_1  and  N_2
REMARK    2  A    between atoms: N_2  and  C_3
REMARK    3  A    between atoms: N_2  and  C_16
REMARK    4  A    between atoms: C_3  and  C_4
REMARK    5  A    between atoms: N_6  and  C_7
REMARK    6  A    between atoms: C_12  and  N_13
REMARK    7  A    between atoms: C_16  and  C_17
REMARK                            x       y       z     vdW  Elec       q    Type
REMARK                         _______ _______ _______ _____ _____    ______ ____
ROOT
ATOM      1  C   UNL     1       6.429   4.606  18.866  0.00  0.00    +0.000 C 
ATOM      2  O   UNL     1       6.549   5.283  19.880  0.00  0.00    +0.000 OA
ATOM      3  N   UNL     1       5.347   3.776  18.610  0.00  0.00    +0.000 N 
ATOM      4  H   UNL     1       5.575   2.926  18.094  0.00  0.00    +0.000 HD
ENDROOT
BRANCH   3   5
ATOM      5  C   UNL     1       4.223   3.712  19.468  0.00  0.00    +0.000 A 
ATOM      6  C   UNL     1       4.084   2.611  20.331  0.00  0.00    +0.000 A 
ATOM      7  C   UNL     1       3.015   2.528  21.225  0.00  0.00    +0.000 A 
ATOM      8  C   UNL     1       2.059   3.536  21.265  0.00  0.00    +0.000 A 
ATOM      9  C   UNL     1       2.176   4.641  20.414  0.00  0.00    +0.000 A 
ATOM     10  C   UNL     1       3.263   4.735  19.526  0.00  0.00    +0.000 A 
BRANCH  10  11
ATOM     11  N   UNL     1       3.318   5.886  18.613  0.00  0.00    +0.000 N 
ATOM     12  O   UNL     1       3.455   5.671  17.397  0.00  0.00    +0.000 OA
ATOM     13  O   UNL     1       3.242   7.018  19.106  0.00  0.00    +0.000 OA
ENDBRANCH  10  11
ENDBRANCH   3   5
BRANCH   1  14
ATOM     14  C   UNL     1       7.457   4.632  17.731  0.00  0.00    +0.000 C 
BRANCH  14  16
ATOM     15  C   UNL     1       7.688   7.018  18.106  0.00  0.00    +0.000 C 
ATOM     16  N   UNL     1       7.555   5.962  17.093  0.00  0.00    +0.000 NA
BRANCH  16  17
ATOM     17  C   UNL     1       6.431   6.208  16.172  0.00  0.00    +0.000 C 
BRANCH  17  18
ATOM     18  C   UNL     1       6.363   5.196  15.049  0.00  0.00    +0.000 A 
ATOM     19  C   UNL     1       7.320   5.210  14.023  0.00  0.00    +0.000 A 
ATOM     20  C   UNL     1       7.187   4.357  12.926  0.00  0.00    +0.000 A 
ATOM     21  C   UNL     1       6.105   3.482  12.859  0.00  0.00    +0.000 A 
ATOM     22 BR   UNL     1       5.889   2.373  11.343  0.00  0.00    +0.000 Br
ATOM     23  C   UNL     1       5.166   3.434  13.885  0.00  0.00    +0.000 A 
ATOM     24  C   UNL     1       5.297   4.289  14.981  0.00  0.00    +0.000 A 
ENDBRANCH  17  18
ENDBRANCH  16  17
ENDBRANCH  14  16
ENDBRANCH   1  14
TORSDOF 6
ENDMDL
MODEL 9
REMARK VINA RESULT:      -6.7      3.910      5.756
REMARK  Name = 
REMARK  7 active torsions:
REMARK  status: ('A' for Active; 'I' for Inactive)
REMARK    1  A    between atoms: C_1  and  N_2
REMARK    2  A    between atoms: N_2  and  C_3
REMARK    3  A    between atoms: N_2  and  C_16
REMARK    4  A    between atoms: C_3  and  C_4
REMARK    5  A    between atoms: N_6  and  C_7
REMARK    6  A    between atoms: C_12  and  N_13
REMARK    7  A    between atoms: C_16  and  C_17
REMARK                            x       y       z     vdW  Elec       q    Type
REMARK                         _______ _______ _______ _____ _____    ______ ____
ROOT
ATOM      1  C   UNL     1       2.102   5.354  20.204  0.00  0.00    +0.000 C 
ATOM      2  O   UNL     1       0.965   5.079  20.568  0.00  0.00    +0.000 OA
ATOM      3  N   UNL     1       2.564   6.648  20.010  0.00  0.00    +0.000 N 
ATOM      4  H   UNL     1       3.239   6.750  19.252  0.00  0.00    +0.000 HD
ENDROOT
BRANCH   3   5
ATOM      5  C   UNL     1       1.778   7.786  20.314  0.00  0.00    +0.000 A 
ATOM      6  C   UNL     1       1.316   7.966  21.629  0.00  0.00    +0.000 A 
ATOM      7  C   UNL     1       0.575   9.095  21.982  0.00  0.00    +0.000 A 
ATOM      8  C   UNL     1       0.271  10.058  21.027  0.00  0.00    +0.000 A 
ATOM      9  C   UNL     1       0.718   9.898  19.711  0.00  0.00    +0.000 A 
ATOM     10  C   UNL     1       1.481   8.770  19.357  0.00  0.00    +0.000 A 
BRANCH  10  11
ATOM     11  N   UNL     1       1.886   8.616  17.953  0.00  0.00    +0.000 N 
ATOM     12  O   UNL     1       2.269   9.622  17.332  0.00  0.00    +0.000 OA
ATOM     13  O   UNL     1       1.810   7.487  17.451  0.00  0.00    +0.000 OA
ENDBRANCH  10  11
ENDBRANCH   3   5
BRANCH   1  14
ATOM     14  C   UNL     1       3.170   4.284  19.959  0.00  0.00    +0.000 C 
BRANCH  14  16
ATOM     15  C   UNL     1       2.352   2.640  18.373  0.00  0.00    +0.000 C 
ATOM     16  N   UNL     1       3.195   3.830  18.552  0.00  0.00    +0.000 NA
BRANCH  16  17
ATOM     17  C   UNL     1       4.572   3.617  18.072  0.00  0.00    +0.000 C 
BRANCH  17  18
ATOM     18  C   UNL     1       5.391   4.891  18.061  0.00  0.00    +0.000 A 
ATOM     19  C   UNL     1       5.002   5.978  17.264  0.00  0.00    +0.000 A 
ATOM     20  C   UNL     1       5.820   7.103  17.162  0.00  0.00    +0.000 A 
ATOM     21  C   UNL     1       7.023   7.149  17.864  0.00  0.00    +0.000 A 
ATOM     22 BR   UNL     1       8.163   8.644  17.674  0.00  0.00    +0.000 Br
ATOM     23  C   UNL     1       7.406   6.091  18.684  0.00  0.00    +0.000 A 
ATOM     24  C   UNL     1       6.589   4.965  18.785  0.00  0.00    +0.000 A 
ENDBRANCH  17  18
ENDBRANCH  16  17
ENDBRANCH  14  16
ENDBRANCH   1  14
TORSDOF 6
ENDMDL
