MODEL 1
REMARK VINA RESULT:      -7.3      0.000      0.000
REMARK  Name = 
REMARK  6 active torsions:
REMARK  status: ('A' for Active; 'I' for Inactive)
REMARK    1  A    between atoms: C_1  and  C_2
REMARK    2  A    between atoms: C_9  and  O_10
REMARK    3  A    between atoms: O_10  and  C_11
REMARK    4  A    between atoms: C_11  and  C_12
REMARK    5  A    between atoms: C_11  and  C_13
REMARK    6  A    between atoms: C_13  and  O_15
REMARK                            x       y       z     vdW  Elec       q    Type
REMARK                         _______ _______ _______ _____ _____    ______ ____
ROOT
ATOM      1  C   UNL     1       1.581   6.844  20.674  0.00  0.00    +0.000 C 
ATOM      2  C   UNL     1       2.083   5.446  20.464  0.00  0.00    +0.000 A 
ATOM      3  C   UNL     1       1.765   4.458  21.316  0.00  0.00    +0.000 A 
ATOM      4  C   UNL     1       2.237   3.073  21.167  0.00  0.00    +0.000 A 
ATOM      5  O   UNL     1       1.890   2.207  21.959  0.00  0.00    +0.000 OA
ATOM      6  O   UNL     1       3.088   2.816  20.109  0.00  0.00    +0.000 OA
ATOM      7  C   UNL     1       3.412   3.820  19.173  0.00  0.00    +0.000 A 
ATOM      8  C   UNL     1       4.216   3.421  18.102  0.00  0.00    +0.000 A 
ATOM      9  C   UNL     1       4.533   4.342  17.109  0.00  0.00    +0.000 A 
ATOM     10  C   UNL     1       4.096   5.662  17.238  0.00  0.00    +0.000 A 
ATOM     11  C   UNL     1       3.299   6.050  18.327  0.00  0.00    +0.000 A 
ATOM     12  C   UNL     1       2.935   5.124  19.312  0.00  0.00    +0.000 A 
ENDROOT
BRANCH   9  13
ATOM     13  O   UNL     1       5.286   4.074  15.995  0.00  0.00    +0.000 OA
BRANCH  13  14
ATOM     14  C   UNL     1       6.419   4.930  15.781  0.00  0.00    +0.000 C 
ATOM     15  C   UNL     1       7.490   4.549  16.794  0.00  0.00    +0.000 C 
BRANCH  14  16
ATOM     16  C   UNL     1       6.988   4.722  14.379  0.00  0.00    +0.000 C 
ATOM     17  O   UNL     1       7.846   5.433  13.874  0.00  0.00    +0.000 OA
BRANCH  16  18
ATOM     18  O   UNL     1       6.475   3.634  13.754  0.00  0.00    +0.000 OA
ATOM     19  H   UNL     1       5.509   3.743  13.617  0.00  0.00    +0.000 HD
ENDBRANCH  16  18
ENDBRANCH  14  16
ENDBRANCH  13  14
ENDBRANCH   9  13
TORSDOF 4
ENDMDL
MODEL 2
REMARK VINA RESULT:      -7.2      1.635      2.424
REMARK  Name = 
REMARK  6 active torsions:
REMARK  status: ('A' for Active; 'I' for Inactive)
REMARK    1  A    between atoms: C_1  and  C_2
REMARK    2  A    between atoms: C_9  and  O_10
REMARK    3  A    between atoms: O_10  and  C_11
REMARK    4  A    between atoms: C_11  and  C_12
REMARK    5  A    between atoms: C_11  and  C_13
REMARK    6  A    between atoms: C_13  and  O_15
REMARK                            x       y       z     vdW  Elec       q    Type
REMARK                         _______ _______ _______ _____ _____    ______ ____
ROOT
ATOM      1  C   UNL     1       1.177   2.957  21.102  0.00  0.00    +0.000 C 
ATOM      2  C   UNL     1       1.737   4.171  20.420  0.00  0.00    +0.000 A 
ATOM      3  C   UNL     1       1.430   5.408  20.842  0.00  0.00    +0.000 A 
ATOM      4  C   UNL     1       1.940   6.633  20.207  0.00  0.00    +0.000 A 
ATOM      5  O   UNL     1       1.650   7.734  20.654  0.00  0.00    +0.000 OA
ATOM      6  O   UNL     1       2.739   6.468  19.091  0.00  0.00    +0.000 OA
ATOM      7  C   UNL     1       3.112   5.185  18.643  0.00  0.00    +0.000 A 
ATOM      8  C   UNL     1       3.987   5.146  17.555  0.00  0.00    +0.000 A 
ATOM      9  C   UNL     1       4.444   3.917  17.091  0.00  0.00    +0.000 A 
ATOM     10  C   UNL     1       3.966   2.745  17.681  0.00  0.00    +0.000 A 
ATOM     11  C   UNL     1       3.077   2.800  18.766  0.00  0.00    +0.000 A 
ATOM     12  C   UNL     1       2.642   4.030  19.272  0.00  0.00    +0.000 A 
ENDROOT
BRANCH   9  13
ATOM     13  O   UNL     1       5.324   3.742  16.054  0.00  0.00    +0.000 OA
BRANCH  13  14
ATOM     14  C   UNL     1       6.316   4.768  15.892  0.00  0.00    +0.000 C 
ATOM     15  C   UNL     1       7.407   4.529  16.926  0.00  0.00    +0.000 C 
BRANCH  14  16
ATOM     16  C   UNL     1       6.945   4.687  14.503  0.00  0.00    +0.000 C 
ATOM     17  O   UNL     1       7.811   5.449  14.096  0.00  0.00    +0.000 OA
BRANCH  16  18
ATOM     18  O   UNL     1       6.475   3.651  13.766  0.00  0.00    +0.000 OA
ATOM     19  H   UNL     1       6.577   3.838  12.808  0.00  0.00    +0.000 HD
ENDBRANCH  16  18
ENDBRANCH  14  16
ENDBRANCH  13  14
ENDBRANCH   9  13
TORSDOF 4
ENDMDL
MODEL 3
REMARK VINA RESULT:      -7.1      2.064      2.886
REMARK  Name = 
REMARK  6 active torsions:
REMARK  status: ('A' for Active; 'I' for Inactive)
REMARK    1  A    between atoms: C_1  and  C_2
REMARK    2  A    between atoms: C_9  and  O_10
REMARK    3  A    between atoms: O_10  and  C_11
REMARK    4  A    between atoms: C_11  and  C_12
REMARK    5  A    between atoms: C_11  and  C_13
REMARK    6  A    between atoms: C_13  and  O_15
REMARK                            x       y       z     vdW  Elec       q    Type
REMARK                         _______ _______ _______ _____ _____    ______ ____
ROOT
ATOM      1  C   UNL     1       1.150   3.188  20.619  0.00  0.00    +0.000 C 
ATOM      2  C   UNL     1       1.650   4.533  20.182  0.00  0.00    +0.000 A 
ATOM      3  C   UNL     1       1.327   5.648  20.856  0.00  0.00    +0.000 A 
ATOM      4  C   UNL     1       1.778   6.993  20.468  0.00  0.00    +0.000 A 
ATOM      5  O   UNL     1       1.475   7.970  21.139  0.00  0.00    +0.000 OA
ATOM      6  O   UNL     1       2.538   7.086  19.317  0.00  0.00    +0.000 OA
ATOM      7  C   UNL     1       2.929   5.933  18.606  0.00  0.00    +0.000 A 
ATOM      8  C   UNL     1       3.763   6.147  17.506  0.00  0.00    +0.000 A 
ATOM      9  C   UNL     1       4.236   5.053  16.787  0.00  0.00    +0.000 A 
ATOM     10  C   UNL     1       3.813   3.770  17.141  0.00  0.00    +0.000 A 
ATOM     11  C   UNL     1       2.964   3.574  18.241  0.00  0.00    +0.000 A 
ATOM     12  C   UNL     1       2.515   4.660  19.001  0.00  0.00    +0.000 A 
ENDROOT
BRANCH   9  13
ATOM     13  O   UNL     1       5.080   5.123  15.709  0.00  0.00    +0.000 OA
BRANCH  13  14
ATOM     14  C   UNL     1       6.299   4.371  15.816  0.00  0.00    +0.000 C 
ATOM     15  C   UNL     1       6.945   4.333  14.438  0.00  0.00    +0.000 C 
BRANCH  14  16
ATOM     16  C   UNL     1       7.265   5.054  16.780  0.00  0.00    +0.000 C 
ATOM     17  O   UNL     1       7.640   6.213  16.671  0.00  0.00    +0.000 OA
BRANCH  16  18
ATOM     18  O   UNL     1       7.643   4.255  17.808  0.00  0.00    +0.000 OA
ATOM     19  H   UNL     1       8.596   4.383  18.008  0.00  0.00    +0.000 HD
ENDBRANCH  16  18
ENDBRANCH  14  16
ENDBRANCH  13  14
ENDBRANCH   9  13
TORSDOF 4
ENDMDL
MODEL 4
REMARK VINA RESULT:      -7.0      1.302      1.718
REMARK  Name = 
REMARK  6 active torsions:
REMARK  status: ('A' for Active; 'I' for Inactive)
REMARK    1  A    between atoms: C_1  and  C_2
REMARK    2  A    between atoms: C_9  and  O_10
REMARK    3  A    between atoms: O_10  and  C_11
REMARK    4  A    between atoms: C_11  and  C_12
REMARK    5  A    between atoms: C_11  and  C_13
REMARK    6  A    between atoms: C_13  and  O_15
REMARK                            x       y       z     vdW  Elec       q    Type
REMARK                         _______ _______ _______ _____ _____    ______ ____
ROOT
ATOM      1  C   UNL     1       1.658   7.563  20.709  0.00  0.00    +0.000 C 
ATOM      2  C   UNL     1       1.929   6.178  20.198  0.00  0.00    +0.000 A 
ATOM      3  C   UNL     1       1.397   5.101  20.796  0.00  0.00    +0.000 A 
ATOM      4  C   UNL     1       1.636   3.721  20.346  0.00  0.00    +0.000 A 
ATOM      5  O   UNL     1       1.100   2.779  20.913  0.00  0.00    +0.000 OA
ATOM      6  O   UNL     1       2.495   3.556  19.276  0.00  0.00    +0.000 OA
ATOM      7  C   UNL     1       3.041   4.666  18.601  0.00  0.00    +0.000 A 
ATOM      8  C   UNL     1       3.830   4.376  17.484  0.00  0.00    +0.000 A 
ATOM      9  C   UNL     1       4.358   5.421  16.733  0.00  0.00    +0.000 A 
ATOM     10  C   UNL     1       4.143   6.737  17.149  0.00  0.00    +0.000 A 
ATOM     11  C   UNL     1       3.358   7.011  18.281  0.00  0.00    +0.000 A 
ATOM     12  C   UNL     1       2.784   5.972  19.022  0.00  0.00    +0.000 A 
ENDROOT
BRANCH   9  13
ATOM     13  O   UNL     1       5.122   5.274  15.604  0.00  0.00    +0.000 OA
BRANCH  13  14
ATOM     14  C   UNL     1       6.279   4.434  15.733  0.00  0.00    +0.000 C 
ATOM     15  C   UNL     1       6.937   4.333  14.364  0.00  0.00    +0.000 C 
BRANCH  14  16
ATOM     16  C   UNL     1       7.283   5.052  16.703  0.00  0.00    +0.000 C 
ATOM     17  O   UNL     1       7.728   6.186  16.600  0.00  0.00    +0.000 OA
BRANCH  16  18
ATOM     18  O   UNL     1       7.607   4.227  17.728  0.00  0.00    +0.000 OA
ATOM     19  H   UNL     1       7.093   3.392  17.672  0.00  0.00    +0.000 HD
ENDBRANCH  16  18
ENDBRANCH  14  16
ENDBRANCH  13  14
ENDBRANCH   9  13
TORSDOF 4
ENDMDL
MODEL 5
REMARK VINA RESULT:      -7.0      2.341      6.486
REMARK  Name = 
REMARK  6 active torsions:
REMARK  status: ('A' for Active; 'I' for Inactive)
REMARK    1  A    between atoms: C_1  and  C_2
REMARK    2  A    between atoms: C_9  and  O_10
REMARK    3  A    between atoms: O_10  and  C_11
REMARK    4  A    between atoms: C_11  and  C_12
REMARK    5  A    between atoms: C_11  and  C_13
REMARK    6  A    between atoms: C_13  and  O_15
REMARK                            x       y       z     vdW  Elec       q    Type
REMARK                         _______ _______ _______ _____ _____    ______ ____
ROOT
ATOM      1  C   UNL     1       6.720   4.895  14.647  0.00  0.00    +0.000 C 
ATOM      2  C   UNL     1       6.621   5.204  16.112  0.00  0.00    +0.000 A 
ATOM      3  C   UNL     1       7.488   6.039  16.706  0.00  0.00    +0.000 A 
ATOM      4  C   UNL     1       7.446   6.371  18.139  0.00  0.00    +0.000 A 
ATOM      5  O   UNL     1       8.245   7.162  18.619  0.00  0.00    +0.000 OA
ATOM      6  O   UNL     1       6.479   5.737  18.896  0.00  0.00    +0.000 OA
ATOM      7  C   UNL     1       5.529   4.884  18.299  0.00  0.00    +0.000 A 
ATOM      8  C   UNL     1       4.551   4.365  19.152  0.00  0.00    +0.000 A 
ATOM      9  C   UNL     1       3.546   3.559  18.626  0.00  0.00    +0.000 A 
ATOM     10  C   UNL     1       3.574   3.233  17.268  0.00  0.00    +0.000 A 
ATOM     11  C   UNL     1       4.571   3.752  16.427  0.00  0.00    +0.000 A 
ATOM     12  C   UNL     1       5.564   4.599  16.933  0.00  0.00    +0.000 A 
ENDROOT
BRANCH   9  13
ATOM     13  O   UNL     1       2.515   3.012  19.346  0.00  0.00    +0.000 OA
BRANCH  13  14
ATOM     14  C   UNL     1       2.179   3.683  20.570  0.00  0.00    +0.000 C 
ATOM     15  C   UNL     1       0.785   4.274  20.410  0.00  0.00    +0.000 C 
BRANCH  14  16
ATOM     16  C   UNL     1       2.149   2.691  21.731  0.00  0.00    +0.000 C 
ATOM     17  O   UNL     1       1.145   2.417  22.374  0.00  0.00    +0.000 OA
BRANCH  16  18
ATOM     18  O   UNL     1       3.349   2.105  21.959  0.00  0.00    +0.000 OA
ATOM     19  H   UNL     1       3.225   1.191  22.296  0.00  0.00    +0.000 HD
ENDBRANCH  16  18
ENDBRANCH  14  16
ENDBRANCH  13  14
ENDBRANCH   9  13
TORSDOF 4
ENDMDL
MODEL 6
REMARK VINA RESULT:      -6.9      1.425      6.538
REMARK  Name = 
REMARK  6 active torsions:
REMARK  status: ('A' for Active; 'I' for Inactive)
REMARK    1  A    between atoms: C_1  and  C_2
REMARK    2  A    between atoms: C_9  and  O_10
REMARK    3  A    between atoms: O_10  and  C_11
REMARK    4  A    between atoms: C_11  and  C_12
REMARK    5  A    between atoms: C_11  and  C_13
REMARK    6  A    between atoms: C_13  and  O_15
REMARK                            x       y       z     vdW  Elec       q    Type
REMARK                         _______ _______ _______ _____ _____    ______ ____
ROOT
ATOM      1  C   UNL     1       7.450   7.168  17.453  0.00  0.00    +0.000 C 
ATOM      2  C   UNL     1       6.770   6.032  16.746  0.00  0.00    +0.000 A 
ATOM      3  C   UNL     1       7.096   5.703  15.486  0.00  0.00    +0.000 A 
ATOM      4  C   UNL     1       6.456   4.608  14.740  0.00  0.00    +0.000 A 
ATOM      5  O   UNL     1       6.816   4.334  13.604  0.00  0.00    +0.000 OA
ATOM      6  O   UNL     1       5.437   3.931  15.383  0.00  0.00    +0.000 OA
ATOM      7  C   UNL     1       5.094   4.225  16.718  0.00  0.00    +0.000 A 
ATOM      8  C   UNL     1       4.103   3.420  17.287  0.00  0.00    +0.000 A 
ATOM      9  C   UNL     1       3.750   3.613  18.619  0.00  0.00    +0.000 A 
ATOM     10  C   UNL     1       4.346   4.651  19.339  0.00  0.00    +0.000 A 
ATOM     11  C   UNL     1       5.330   5.459  18.748  0.00  0.00    +0.000 A 
ATOM     12  C   UNL     1       5.728   5.249  17.423  0.00  0.00    +0.000 A 
ENDROOT
BRANCH   9  13
ATOM     13  O   UNL     1       2.817   2.876  19.302  0.00  0.00    +0.000 OA
BRANCH  13  14
ATOM     14  C   UNL     1       2.163   3.546  20.392  0.00  0.00    +0.000 C 
ATOM     15  C   UNL     1       0.715   3.787  19.989  0.00  0.00    +0.000 C 
BRANCH  14  16
ATOM     16  C   UNL     1       2.174   2.668  21.641  0.00  0.00    +0.000 C 
ATOM     17  O   UNL     1       3.166   2.096  22.070  0.00  0.00    +0.000 OA
BRANCH  16  18
ATOM     18  O   UNL     1       0.970   2.614  22.262  0.00  0.00    +0.000 OA
ATOM     19  H   UNL     1       1.000   1.983  23.013  0.00  0.00    +0.000 HD
ENDBRANCH  16  18
ENDBRANCH  14  16
ENDBRANCH  13  14
ENDBRANCH   9  13
TORSDOF 4
ENDMDL
MODEL 7
REMARK VINA RESULT:      -6.8      2.385      6.439
REMARK  Name = 
REMARK  6 active torsions:
REMARK  status: ('A' for Active; 'I' for Inactive)
REMARK    1  A    between atoms: C_1  and  C_2
REMARK    2  A    between atoms: C_9  and  O_10
REMARK    3  A    between atoms: O_10  and  C_11
REMARK    4  A    between atoms: C_11  and  C_12
REMARK    5  A    between atoms: C_11  and  C_13
REMARK    6  A    between atoms: C_13  and  O_15
REMARK                            x       y       z     vdW  Elec       q    Type
REMARK                         _______ _______ _______ _____ _____    ______ ____
ROOT
ATOM      1  C   UNL     1       6.712   4.985  14.542  0.00  0.00    +0.000 C 
ATOM      2  C   UNL     1       6.667   5.279  16.013  0.00  0.00    +0.000 A 
ATOM      3  C   UNL     1       7.472   6.204  16.561  0.00  0.00    +0.000 A 
ATOM      4  C   UNL     1       7.480   6.526  17.996  0.00  0.00    +0.000 A 
ATOM      5  O   UNL     1       8.215   7.401  18.435  0.00  0.00    +0.000 OA
ATOM      6  O   UNL     1       6.635   5.789  18.804  0.00  0.00    +0.000 OA
ATOM      7  C   UNL     1       5.750   4.838  18.258  0.00  0.00    +0.000 A 
ATOM      8  C   UNL     1       4.888   4.213  19.163  0.00  0.00    +0.000 A 
ATOM      9  C   UNL     1       3.947   3.303  18.691  0.00  0.00    +0.000 A 
ATOM     10  C   UNL     1       3.930   2.984  17.332  0.00  0.00    +0.000 A 
ATOM     11  C   UNL     1       4.812   3.610  16.437  0.00  0.00    +0.000 A 
ATOM     12  C   UNL     1       5.734   4.561  16.890  0.00  0.00    +0.000 A 
ENDROOT
BRANCH   9  13
ATOM     13  O   UNL     1       3.028   2.645  19.466  0.00  0.00    +0.000 OA
BRANCH  13  14
ATOM     14  C   UNL     1       1.889   3.416  19.882  0.00  0.00    +0.000 C 
ATOM     15  C   UNL     1       0.663   2.518  19.797  0.00  0.00    +0.000 C 
BRANCH  14  16
ATOM     16  C   UNL     1       2.052   3.870  21.330  0.00  0.00    +0.000 C 
ATOM     17  O   UNL     1       2.009   3.120  22.295  0.00  0.00    +0.000 OA
BRANCH  16  18
ATOM     18  O   UNL     1       2.291   5.199  21.445  0.00  0.00    +0.000 OA
ATOM     19  H   UNL     1       3.214   5.405  21.181  0.00  0.00    +0.000 HD
ENDBRANCH  16  18
ENDBRANCH  14  16
ENDBRANCH  13  14
ENDBRANCH   9  13
TORSDOF 4
ENDMDL
MODEL 8
REMARK VINA RESULT:      -6.6      1.906      6.598
REMARK  Name = 
REMARK  6 active torsions:
REMARK  status: ('A' for Active; 'I' for Inactive)
REMARK    1  A    between atoms: C_1  and  C_2
REMARK    2  A    between atoms: C_9  and  O_10
REMARK    3  A    between atoms: O_10  and  C_11
REMARK    4  A    between atoms: C_11  and  C_12
REMARK    5  A    between atoms: C_11  and  C_13
REMARK    6  A    between atoms: C_13  and  O_15
REMARK                            x       y       z     vdW  Elec       q    Type
REMARK                         _______ _______ _______ _____ _____    ______ ____
ROOT
ATOM      1  C   UNL     1       6.080   3.797  14.079  0.00  0.00    +0.000 C 
ATOM      2  C   UNL     1       6.077   4.659  15.308  0.00  0.00    +0.000 A 
ATOM      3  C   UNL     1       7.052   5.554  15.531  0.00  0.00    +0.000 A 
ATOM      4  C   UNL     1       7.107   6.416  16.721  0.00  0.00    +0.000 A 
ATOM      5  O   UNL     1       8.005   7.236  16.857  0.00  0.00    +0.000 OA
ATOM      6  O   UNL     1       6.111   6.240  17.663  0.00  0.00    +0.000 OA
ATOM      7  C   UNL     1       5.051   5.337  17.444  0.00  0.00    +0.000 A 
ATOM      8  C   UNL     1       4.060   5.305  18.429  0.00  0.00    +0.000 A 
ATOM      9  C   UNL     1       2.954   4.479  18.256  0.00  0.00    +0.000 A 
ATOM     10  C   UNL     1       2.890   3.652  17.133  0.00  0.00    +0.000 A 
ATOM     11  C   UNL     1       3.900   3.687  16.159  0.00  0.00    +0.000 A 
ATOM     12  C   UNL     1       4.997   4.544  16.296  0.00  0.00    +0.000 A 
ENDROOT
BRANCH   9  13
ATOM     13  O   UNL     1       1.903   4.376  19.130  0.00  0.00    +0.000 OA
BRANCH  13  14
ATOM     14  C   UNL     1       2.207   4.624  20.511  0.00  0.00    +0.000 C 
ATOM     15  C   UNL     1       1.419   5.851  20.949  0.00  0.00    +0.000 C 
BRANCH  14  16
ATOM     16  C   UNL     1       1.772   3.442  21.375  0.00  0.00    +0.000 C 
ATOM     17  O   UNL     1       2.326   3.110  22.414  0.00  0.00    +0.000 OA
BRANCH  16  18
ATOM     18  O   UNL     1       0.674   2.810  20.895  0.00  0.00    +0.000 OA
ATOM     19  H   UNL     1       0.160   2.412  21.631  0.00  0.00    +0.000 HD
ENDBRANCH  16  18
ENDBRANCH  14  16
ENDBRANCH  13  14
ENDBRANCH   9  13
TORSDOF 4
ENDMDL
MODEL 9
REMARK VINA RESULT:      -6.6      1.700      2.087
REMARK  Name = 
REMARK  6 active torsions:
REMARK  status: ('A' for Active; 'I' for Inactive)
REMARK    1  A    between atoms: C_1  and  C_2
REMARK    2  A    between atoms: C_9  and  O_10
REMARK    3  A    between atoms: O_10  and  C_11
REMARK    4  A    between atoms: C_11  and  C_12
REMARK    5  A    between atoms: C_11  and  C_13
REMARK    6  A    between atoms: C_13  and  O_15
REMARK                            x       y       z     vdW  Elec       q    Type
REMARK                         _______ _______ _______ _____ _____    ______ ____
ROOT
ATOM      1  C   UNL     1       0.988   3.606  20.776  0.00  0.00    +0.000 C 
ATOM      2  C   UNL     1       2.405   3.242  20.442  0.00  0.00    +0.000 A 
ATOM      3  C   UNL     1       3.121   2.432  21.238  0.00  0.00    +0.000 A 
ATOM      4  C   UNL     1       4.515   2.051  20.968  0.00  0.00    +0.000 A 
ATOM      5  O   UNL     1       5.108   1.284  21.715  0.00  0.00    +0.000 OA
ATOM      6  O   UNL     1       5.107   2.608  19.850  0.00  0.00    +0.000 OA
ATOM      7  C   UNL     1       4.374   3.432  18.971  0.00  0.00    +0.000 A 
ATOM      8  C   UNL     1       5.056   3.871  17.833  0.00  0.00    +0.000 A 
ATOM      9  C   UNL     1       4.382   4.642  16.891  0.00  0.00    +0.000 A 
ATOM     10  C   UNL     1       3.059   5.016  17.136  0.00  0.00    +0.000 A 
ATOM     11  C   UNL     1       2.393   4.577  18.291  0.00  0.00    +0.000 A 
ATOM     12  C   UNL     1       3.043   3.764  19.227  0.00  0.00    +0.000 A 
ENDROOT
BRANCH   9  13
ATOM     13  O   UNL     1       4.924   5.111  15.722  0.00  0.00    +0.000 OA
BRANCH  13  14
ATOM     14  C   UNL     1       6.139   4.477  15.294  0.00  0.00    +0.000 C 
ATOM     15  C   UNL     1       5.918   3.949  13.883  0.00  0.00    +0.000 C 
BRANCH  14  16
ATOM     16  C   UNL     1       7.284   5.487  15.255  0.00  0.00    +0.000 C 
ATOM     17  O   UNL     1       7.605   6.197  16.197  0.00  0.00    +0.000 OA
BRANCH  16  18
ATOM     18  O   UNL     1       7.945   5.493  14.072  0.00  0.00    +0.000 OA
ATOM     19  H   UNL     1       7.476   4.935  13.414  0.00  0.00    +0.000 HD
ENDBRANCH  16  18
ENDBRANCH  14  16
ENDBRANCH  13  14
ENDBRANCH   9  13
TORSDOF 4
ENDMDL
