MODEL 1
REMARK VINA RESULT:      -7.7      0.000      0.000
REMARK  Name = 
REMARK  3 active torsions:
REMARK  status: ('A' for Active; 'I' for Inactive)
REMARK    1  A    between atoms: C_2  and  C_15
REMARK    2  A    between atoms: N_3  and  C_4
REMARK    3  A    between atoms: C_7  and  C_8
REMARK                            x       y       z     vdW  Elec       q    Type
REMARK                         _______ _______ _______ _____ _____    ______ ____
ROOT
ATOM      1  O   UNL     1       4.391   5.770  19.391  0.00  0.00    +0.000 OA
ATOM      2  C   UNL     1       3.959   6.043  18.275  0.00  0.00    +0.000 C 
ATOM      3  N   UNL     1       2.926   6.914  17.984  0.00  0.00    +0.000 N 
ATOM      4  H   UNL     1       2.592   6.950  17.027  0.00  0.00    +0.000 HD
ENDROOT
BRANCH   2   5
ATOM      5  C   UNL     1       4.607   5.374  17.122  0.00  0.00    +0.000 A 
ATOM      6  C   UNL     1       5.162   6.183  16.118  0.00  0.00    +0.000 A 
ATOM      7  C   UNL     1       5.802   5.599  15.026  0.00  0.00    +0.000 A 
ATOM      8  C   UNL     1       5.893   4.213  14.947  0.00  0.00    +0.000 A 
ATOM      9  F   UNL     1       6.515   3.654  13.901  0.00  0.00    +0.000 F 
ATOM     10  C   UNL     1       5.353   3.398  15.934  0.00  0.00    +0.000 A 
ATOM     11  C   UNL     1       4.705   3.986  17.015  0.00  0.00    +0.000 A 
ATOM     12  F   UNL     1       4.189   3.185  17.957  0.00  0.00    +0.000 F 
ENDBRANCH   2   5
BRANCH   3  13
ATOM     13  C   UNL     1       2.216   7.693  18.918  0.00  0.00    +0.000 A 
ATOM     14  C   UNL     1       1.978   7.281  20.229  0.00  0.00    +0.000 A 
ATOM     15  C   UNL     1       1.246   8.079  21.107  0.00  0.00    +0.000 A 
ATOM     16  C   UNL     1       0.731   9.312  20.697  0.00  0.00    +0.000 A 
ATOM     17  C   UNL     1       0.992   9.736  19.386  0.00  0.00    +0.000 A 
ATOM     18  C   UNL     1       1.737   8.940  18.506  0.00  0.00    +0.000 A 
BRANCH  16  19
ATOM     19  C   UNL     1      -0.059  10.112  21.618  0.00  0.00    +0.000 A 
ATOM     20  C   UNL     1      -0.399  10.029  22.953  0.00  0.00    +0.000 A 
ATOM     21  N   UNL     1      -1.215  11.075  23.305  0.00  0.00    +0.000 NA
ATOM     22  C   UNL     1      -1.342  11.745  22.184  0.00  0.00    +0.000 A 
ATOM     23  O   UNL     1      -0.670  11.233  21.119  0.00  0.00    +0.000 OA
ENDBRANCH  16  19
ENDBRANCH   3  13
TORSDOF 3
ENDMDL
MODEL 2
REMARK VINA RESULT:      -7.6      0.215      1.046
REMARK  Name = 
REMARK  3 active torsions:
REMARK  status: ('A' for Active; 'I' for Inactive)
REMARK    1  A    between atoms: C_2  and  C_15
REMARK    2  A    between atoms: N_3  and  C_4
REMARK    3  A    between atoms: C_7  and  C_8
REMARK                            x       y       z     vdW  Elec       q    Type
REMARK                         _______ _______ _______ _____ _____    ______ ____
ROOT
ATOM      1  O   UNL     1       4.317   5.771  19.304  0.00  0.00    +0.000 OA
ATOM      2  C   UNL     1       3.944   6.061  18.172  0.00  0.00    +0.000 C 
ATOM      3  N   UNL     1       2.948   6.962  17.840  0.00  0.00    +0.000 N 
ATOM      4  H   UNL     1       2.659   7.012  16.869  0.00  0.00    +0.000 HD
ENDROOT
BRANCH   2   5
ATOM      5  C   UNL     1       4.625   5.382  17.045  0.00  0.00    +0.000 A 
ATOM      6  C   UNL     1       5.178   6.180  16.032  0.00  0.00    +0.000 A 
ATOM      7  C   UNL     1       5.849   5.586  14.963  0.00  0.00    +0.000 A 
ATOM      8  C   UNL     1       5.971   4.201  14.918  0.00  0.00    +0.000 A 
ATOM      9  F   UNL     1       6.623   3.633  13.895  0.00  0.00    +0.000 F 
ATOM     10  C   UNL     1       5.433   3.397  15.914  0.00  0.00    +0.000 A 
ATOM     11  C   UNL     1       4.755   3.994  16.971  0.00  0.00    +0.000 A 
ATOM     12  F   UNL     1       4.241   3.203  17.923  0.00  0.00    +0.000 F 
ENDBRANCH   2   5
BRANCH   3  13
ATOM     13  C   UNL     1       2.217   7.754  18.747  0.00  0.00    +0.000 A 
ATOM     14  C   UNL     1       1.719   9.016  18.425  0.00  0.00    +0.000 A 
ATOM     15  C   UNL     1       1.024   9.772  19.368  0.00  0.00    +0.000 A 
ATOM     16  C   UNL     1       0.809   9.285  20.660  0.00  0.00    +0.000 A 
ATOM     17  C   UNL     1       1.289   8.006  20.975  0.00  0.00    +0.000 A 
ATOM     18  C   UNL     1       1.977   7.241  20.025  0.00  0.00    +0.000 A 
BRANCH  16  19
ATOM     19  C   UNL     1       0.112  10.104  21.639  0.00  0.00    +0.000 A 
ATOM     20  C   UNL     1      -0.420   9.899  22.895  0.00  0.00    +0.000 A 
ATOM     21  N   UNL     1      -1.004  11.050  23.361  0.00  0.00    +0.000 NA
ATOM     22  C   UNL     1      -0.811  11.901  22.381  0.00  0.00    +0.000 A 
ATOM     23  O   UNL     1      -0.138  11.410  21.306  0.00  0.00    +0.000 OA
ENDBRANCH  16  19
ENDBRANCH   3  13
TORSDOF 3
ENDMDL
MODEL 3
REMARK VINA RESULT:      -7.4      1.059      1.760
REMARK  Name = 
REMARK  3 active torsions:
REMARK  status: ('A' for Active; 'I' for Inactive)
REMARK    1  A    between atoms: C_2  and  C_15
REMARK    2  A    between atoms: N_3  and  C_4
REMARK    3  A    between atoms: C_7  and  C_8
REMARK                            x       y       z     vdW  Elec       q    Type
REMARK                         _______ _______ _______ _____ _____    ______ ____
ROOT
ATOM      1  O   UNL     1       4.372   5.669  19.400  0.00  0.00    +0.000 OA
ATOM      2  C   UNL     1       4.073   6.015  18.261  0.00  0.00    +0.000 C 
ATOM      3  N   UNL     1       3.101   6.934  17.909  0.00  0.00    +0.000 N 
ATOM      4  H   UNL     1       2.876   7.032  16.925  0.00  0.00    +0.000 HD
ENDROOT
BRANCH   2   5
ATOM      5  C   UNL     1       4.826   5.388  17.149  0.00  0.00    +0.000 A 
ATOM      6  C   UNL     1       4.436   4.107  16.729  0.00  0.00    +0.000 A 
ATOM      7  C   UNL     1       5.101   3.487  15.672  0.00  0.00    +0.000 A 
ATOM      8  C   UNL     1       6.143   4.152  15.035  0.00  0.00    +0.000 A 
ATOM      9  F   UNL     1       6.775   3.559  14.014  0.00  0.00    +0.000 F 
ATOM     10  C   UNL     1       6.539   5.422  15.435  0.00  0.00    +0.000 A 
ATOM     11  C   UNL     1       5.881   6.031  16.499  0.00  0.00    +0.000 A 
ATOM     12  F   UNL     1       6.277   7.255  16.873  0.00  0.00    +0.000 F 
ENDBRANCH   2   5
BRANCH   3  13
ATOM     13  C   UNL     1       2.313   7.684  18.804  0.00  0.00    +0.000 A 
ATOM     14  C   UNL     1       1.743   8.912  18.469  0.00  0.00    +0.000 A 
ATOM     15  C   UNL     1       0.992   9.628  19.401  0.00  0.00    +0.000 A 
ATOM     16  C   UNL     1       0.792   9.134  20.694  0.00  0.00    +0.000 A 
ATOM     17  C   UNL     1       1.346   7.888  21.020  0.00  0.00    +0.000 A 
ATOM     18  C   UNL     1       2.091   7.162  20.081  0.00  0.00    +0.000 A 
BRANCH  16  19
ATOM     19  C   UNL     1       0.036   9.913  21.660  0.00  0.00    +0.000 A 
ATOM     20  C   UNL     1      -0.368   9.738  22.968  0.00  0.00    +0.000 A 
ATOM     21  N   UNL     1      -1.104  10.816  23.390  0.00  0.00    +0.000 NA
ATOM     22  C   UNL     1      -1.124  11.596  22.335  0.00  0.00    +0.000 A 
ATOM     23  O   UNL     1      -0.453  11.126  21.250  0.00  0.00    +0.000 OA
ENDBRANCH  16  19
ENDBRANCH   3  13
TORSDOF 3
ENDMDL
MODEL 4
REMARK VINA RESULT:      -7.2      6.355      8.729
REMARK  Name = 
REMARK  3 active torsions:
REMARK  status: ('A' for Active; 'I' for Inactive)
REMARK    1  A    between atoms: C_2  and  C_15
REMARK    2  A    between atoms: N_3  and  C_4
REMARK    3  A    between atoms: C_7  and  C_8
REMARK                            x       y       z     vdW  Elec       q    Type
REMARK                         _______ _______ _______ _____ _____    ______ ____
ROOT
ATOM      1  O   UNL     1       8.857   9.787  19.939  0.00  0.00    +0.000 OA
ATOM      2  C   UNL     1       9.034  10.017  18.747  0.00  0.00    +0.000 C 
ATOM      3  N   UNL     1       8.565   9.263  17.687  0.00  0.00    +0.000 N 
ATOM      4  H   UNL     1       8.890   9.501  16.756  0.00  0.00    +0.000 HD
ENDROOT
BRANCH   2   5
ATOM      5  C   UNL     1       9.827  11.221  18.405  0.00  0.00    +0.000 A 
ATOM      6  C   UNL     1      11.172  11.257  18.802  0.00  0.00    +0.000 A 
ATOM      7  C   UNL     1      11.965  12.359  18.482  0.00  0.00    +0.000 A 
ATOM      8  C   UNL     1      11.412  13.412  17.761  0.00  0.00    +0.000 A 
ATOM      9  F   UNL     1      12.176  14.467  17.448  0.00  0.00    +0.000 F 
ATOM     10  C   UNL     1      10.083  13.391  17.357  0.00  0.00    +0.000 A 
ATOM     11  C   UNL     1       9.294  12.294  17.689  0.00  0.00    +0.000 A 
ATOM     12  F   UNL     1       8.014  12.290  17.292  0.00  0.00    +0.000 F 
ENDBRANCH   2   5
BRANCH   3  13
ATOM     13  C   UNL     1       7.748   8.120  17.785  0.00  0.00    +0.000 A 
ATOM     14  C   UNL     1       6.528   7.997  17.121  0.00  0.00    +0.000 A 
ATOM     15  C   UNL     1       5.743   6.854  17.273  0.00  0.00    +0.000 A 
ATOM     16  C   UNL     1       6.160   5.802  18.094  0.00  0.00    +0.000 A 
ATOM     17  C   UNL     1       7.398   5.917  18.741  0.00  0.00    +0.000 A 
ATOM     18  C   UNL     1       8.192   7.060  18.581  0.00  0.00    +0.000 A 
BRANCH  16  19
ATOM     19  C   UNL     1       5.311   4.634  18.265  0.00  0.00    +0.000 A 
ATOM     20  C   UNL     1       4.943   3.831  19.325  0.00  0.00    +0.000 A 
ATOM     21  N   UNL     1       4.114   2.824  18.897  0.00  0.00    +0.000 NA
ATOM     22  C   UNL     1       4.014   3.047  17.608  0.00  0.00    +0.000 A 
ATOM     23  O   UNL     1       4.702   4.126  17.148  0.00  0.00    +0.000 OA
ENDBRANCH  16  19
ENDBRANCH   3  13
TORSDOF 3
ENDMDL
MODEL 5
REMARK VINA RESULT:      -7.2      1.021      1.514
REMARK  Name = 
REMARK  3 active torsions:
REMARK  status: ('A' for Active; 'I' for Inactive)
REMARK    1  A    between atoms: C_2  and  C_15
REMARK    2  A    between atoms: N_3  and  C_4
REMARK    3  A    between atoms: C_7  and  C_8
REMARK                            x       y       z     vdW  Elec       q    Type
REMARK                         _______ _______ _______ _____ _____    ______ ____
ROOT
ATOM      1  O   UNL     1       5.326   7.142  18.051  0.00  0.00    +0.000 OA
ATOM      2  C   UNL     1       4.502   6.445  17.467  0.00  0.00    +0.000 C 
ATOM      3  N   UNL     1       3.135   6.435  17.679  0.00  0.00    +0.000 N 
ATOM      4  H   UNL     1       2.589   5.720  17.212  0.00  0.00    +0.000 HD
ENDROOT
BRANCH   2   5
ATOM      5  C   UNL     1       5.018   5.521  16.429  0.00  0.00    +0.000 A 
ATOM      6  C   UNL     1       5.460   6.073  15.217  0.00  0.00    +0.000 A 
ATOM      7  C   UNL     1       5.975   5.245  14.220  0.00  0.00    +0.000 A 
ATOM      8  C   UNL     1       6.055   3.875  14.443  0.00  0.00    +0.000 A 
ATOM      9  F   UNL     1       6.557   3.082  13.488  0.00  0.00    +0.000 F 
ATOM     10  C   UNL     1       5.626   3.313  15.639  0.00  0.00    +0.000 A 
ATOM     11  C   UNL     1       5.101   4.142  16.625  0.00  0.00    +0.000 A 
ATOM     12  F   UNL     1       4.691   3.583  17.771  0.00  0.00    +0.000 F 
ENDBRANCH   2   5
BRANCH   3  13
ATOM     13  C   UNL     1       2.433   7.269  18.571  0.00  0.00    +0.000 A 
ATOM     14  C   UNL     1       1.936   8.521  18.211  0.00  0.00    +0.000 A 
ATOM     15  C   UNL     1       1.271   9.320  19.141  0.00  0.00    +0.000 A 
ATOM     16  C   UNL     1       1.084   8.886  20.457  0.00  0.00    +0.000 A 
ATOM     17  C   UNL     1       1.562   7.617  20.810  0.00  0.00    +0.000 A 
ATOM     18  C   UNL     1       2.222   6.809  19.874  0.00  0.00    +0.000 A 
BRANCH  16  19
ATOM     19  C   UNL     1       0.418   9.749  21.418  0.00  0.00    +0.000 A 
ATOM     20  C   UNL     1       0.292  11.111  21.598  0.00  0.00    +0.000 A 
ATOM     21  N   UNL     1      -0.451  11.380  22.720  0.00  0.00    +0.000 NA
ATOM     22  C   UNL     1      -0.742  10.184  23.178  0.00  0.00    +0.000 A 
ATOM     23  O   UNL     1      -0.260   9.145  22.445  0.00  0.00    +0.000 OA
ENDBRANCH  16  19
ENDBRANCH   3  13
TORSDOF 3
ENDMDL
MODEL 6
REMARK VINA RESULT:      -7.2      1.235      1.626
REMARK  Name = 
REMARK  3 active torsions:
REMARK  status: ('A' for Active; 'I' for Inactive)
REMARK    1  A    between atoms: C_2  and  C_15
REMARK    2  A    between atoms: N_3  and  C_4
REMARK    3  A    between atoms: C_7  and  C_8
REMARK                            x       y       z     vdW  Elec       q    Type
REMARK                         _______ _______ _______ _____ _____    ______ ____
ROOT
ATOM      1  O   UNL     1       4.490   5.854  19.397  0.00  0.00    +0.000 OA
ATOM      2  C   UNL     1       4.142   6.127  18.252  0.00  0.00    +0.000 C 
ATOM      3  N   UNL     1       3.131   6.995  17.885  0.00  0.00    +0.000 N 
ATOM      4  H   UNL     1       2.870   7.032  16.906  0.00  0.00    +0.000 HD
ENDROOT
BRANCH   2   5
ATOM      5  C   UNL     1       4.877   5.462  17.150  0.00  0.00    +0.000 A 
ATOM      6  C   UNL     1       4.404   4.221  16.697  0.00  0.00    +0.000 A 
ATOM      7  C   UNL     1       5.049   3.568  15.648  0.00  0.00    +0.000 A 
ATOM      8  C   UNL     1       6.156   4.162  15.051  0.00  0.00    +0.000 A 
ATOM      9  F   UNL     1       6.770   3.538  14.037  0.00  0.00    +0.000 F 
ATOM     10  C   UNL     1       6.635   5.392  15.484  0.00  0.00    +0.000 A 
ATOM     11  C   UNL     1       5.995   6.033  16.539  0.00  0.00    +0.000 A 
ATOM     12  F   UNL     1       6.471   7.217  16.945  0.00  0.00    +0.000 F 
ENDBRANCH   2   5
BRANCH   3  13
ATOM     13  C   UNL     1       2.350   7.771  18.765  0.00  0.00    +0.000 A 
ATOM     14  C   UNL     1       2.062   7.381  20.072  0.00  0.00    +0.000 A 
ATOM     15  C   UNL     1       1.261   8.173  20.894  0.00  0.00    +0.000 A 
ATOM     16  C   UNL     1       0.727   9.378  20.429  0.00  0.00    +0.000 A 
ATOM     17  C   UNL     1       1.037   9.780  19.123  0.00  0.00    +0.000 A 
ATOM     18  C   UNL     1       1.851   8.991  18.299  0.00  0.00    +0.000 A 
BRANCH  16  19
ATOM     19  C   UNL     1      -0.134  10.171  21.291  0.00  0.00    +0.000 A 
ATOM     20  C   UNL     1      -0.876  11.325  21.149  0.00  0.00    +0.000 A 
ATOM     21  N   UNL     1      -1.493  11.647  22.332  0.00  0.00    +0.000 NA
ATOM     22  C   UNL     1      -1.104  10.690  23.141  0.00  0.00    +0.000 A 
ATOM     23  O   UNL     1      -0.286   9.755  22.588  0.00  0.00    +0.000 OA
ENDBRANCH  16  19
ENDBRANCH   3  13
TORSDOF 3
ENDMDL
MODEL 7
REMARK VINA RESULT:      -7.2      4.083      9.303
REMARK  Name = 
REMARK  3 active torsions:
REMARK  status: ('A' for Active; 'I' for Inactive)
REMARK    1  A    between atoms: C_2  and  C_15
REMARK    2  A    between atoms: N_3  and  C_4
REMARK    3  A    between atoms: C_7  and  C_8
REMARK                            x       y       z     vdW  Elec       q    Type
REMARK                         _______ _______ _______ _____ _____    ______ ____
ROOT
ATOM      1  O   UNL     1       1.356  11.522  21.280  0.00  0.00    +0.000 OA
ATOM      2  C   UNL     1       0.254  11.033  21.050  0.00  0.00    +0.000 C 
ATOM      3  N   UNL     1      -0.005   9.920  20.271  0.00  0.00    +0.000 N 
ATOM      4  H   UNL     1      -0.974   9.701  20.066  0.00  0.00    +0.000 HD
ENDROOT
BRANCH   2   5
ATOM      5  C   UNL     1      -0.918  11.698  21.666  0.00  0.00    +0.000 A 
ATOM      6  C   UNL     1      -1.532  12.741  20.957  0.00  0.00    +0.000 A 
ATOM      7  C   UNL     1      -2.652  13.382  21.487  0.00  0.00    +0.000 A 
ATOM      8  C   UNL     1      -3.157  12.970  22.715  0.00  0.00    +0.000 A 
ATOM      9  F   UNL     1      -4.238  13.580  23.219  0.00  0.00    +0.000 F 
ATOM     10  C   UNL     1      -2.564  11.936  23.429  0.00  0.00    +0.000 A 
ATOM     11  C   UNL     1      -1.440  11.310  22.902  0.00  0.00    +0.000 A 
ATOM     12  F   UNL     1      -0.879  10.315  23.603  0.00  0.00    +0.000 F 
ENDBRANCH   2   5
BRANCH   3  13
ATOM     13  C   UNL     1       0.961   9.110  19.643  0.00  0.00    +0.000 A 
ATOM     14  C   UNL     1       1.446   9.360  18.360  0.00  0.00    +0.000 A 
ATOM     15  C   UNL     1       2.384   8.510  17.773  0.00  0.00    +0.000 A 
ATOM     16  C   UNL     1       2.861   7.387  18.455  0.00  0.00    +0.000 A 
ATOM     17  C   UNL     1       2.391   7.152  19.755  0.00  0.00    +0.000 A 
ATOM     18  C   UNL     1       1.457   8.011  20.350  0.00  0.00    +0.000 A 
BRANCH  16  19
ATOM     19  C   UNL     1       3.813   6.497  17.811  0.00  0.00    +0.000 A 
ATOM     20  C   UNL     1       4.685   6.590  16.747  0.00  0.00    +0.000 A 
ATOM     21  N   UNL     1       5.340   5.399  16.558  0.00  0.00    +0.000 NA
ATOM     22  C   UNL     1       4.845   4.634  17.502  0.00  0.00    +0.000 A 
ATOM     23  O   UNL     1       3.921   5.223  18.307  0.00  0.00    +0.000 OA
ENDBRANCH  16  19
ENDBRANCH   3  13
TORSDOF 3
ENDMDL
MODEL 8
REMARK VINA RESULT:      -7.1      1.198      1.549
REMARK  Name = 
REMARK  3 active torsions:
REMARK  status: ('A' for Active; 'I' for Inactive)
REMARK    1  A    between atoms: C_2  and  C_15
REMARK    2  A    between atoms: N_3  and  C_4
REMARK    3  A    between atoms: C_7  and  C_8
REMARK                            x       y       z     vdW  Elec       q    Type
REMARK                         _______ _______ _______ _____ _____    ______ ____
ROOT
ATOM      1  O   UNL     1       3.366   5.585  19.770  0.00  0.00    +0.000 OA
ATOM      2  C   UNL     1       3.425   6.147  18.680  0.00  0.00    +0.000 C 
ATOM      3  N   UNL     1       2.789   7.323  18.327  0.00  0.00    +0.000 N 
ATOM      4  H   UNL     1       2.827   7.607  17.354  0.00  0.00    +0.000 HD
ENDROOT
BRANCH   2   5
ATOM      5  C   UNL     1       4.259   5.504  17.637  0.00  0.00    +0.000 A 
ATOM      6  C   UNL     1       3.971   4.176  17.289  0.00  0.00    +0.000 A 
ATOM      7  C   UNL     1       4.715   3.537  16.297  0.00  0.00    +0.000 A 
ATOM      8  C   UNL     1       5.733   4.231  15.653  0.00  0.00    +0.000 A 
ATOM      9  F   UNL     1       6.441   3.620  14.694  0.00  0.00    +0.000 F 
ATOM     10  C   UNL     1       6.029   5.548  15.982  0.00  0.00    +0.000 A 
ATOM     11  C   UNL     1       5.292   6.176  16.981  0.00  0.00    +0.000 A 
ATOM     12  F   UNL     1       5.591   7.446  17.287  0.00  0.00    +0.000 F 
ENDBRANCH   2   5
BRANCH   3  13
ATOM     13  C   UNL     1       2.000   8.122  19.177  0.00  0.00    +0.000 A 
ATOM     14  C   UNL     1       1.789   7.823  20.522  0.00  0.00    +0.000 A 
ATOM     15  C   UNL     1       0.976   8.633  21.315  0.00  0.00    +0.000 A 
ATOM     16  C   UNL     1       0.353   9.765  20.781  0.00  0.00    +0.000 A 
ATOM     17  C   UNL     1       0.586  10.077  19.435  0.00  0.00    +0.000 A 
ATOM     18  C   UNL     1       1.411   9.270  18.640  0.00  0.00    +0.000 A 
BRANCH  16  19
ATOM     19  C   UNL     1      -0.518  10.576  21.616  0.00  0.00    +0.000 A 
ATOM     20  C   UNL     1      -0.877  10.584  22.948  0.00  0.00    +0.000 A 
ATOM     21  N   UNL     1      -1.782  11.587  23.195  0.00  0.00    +0.000 NA
ATOM     22  C   UNL     1      -1.939  12.142  22.016  0.00  0.00    +0.000 A 
ATOM     23  O   UNL     1      -1.206  11.594  21.010  0.00  0.00    +0.000 OA
ENDBRANCH  16  19
ENDBRANCH   3  13
TORSDOF 3
ENDMDL
MODEL 9
REMARK VINA RESULT:      -7.1      1.745      2.546
REMARK  Name = 
REMARK  3 active torsions:
REMARK  status: ('A' for Active; 'I' for Inactive)
REMARK    1  A    between atoms: C_2  and  C_15
REMARK    2  A    between atoms: N_3  and  C_4
REMARK    3  A    between atoms: C_7  and  C_8
REMARK                            x       y       z     vdW  Elec       q    Type
REMARK                         _______ _______ _______ _____ _____    ______ ____
ROOT
ATOM      1  O   UNL     1       2.317   8.730  17.468  0.00  0.00    +0.000 OA
ATOM      2  C   UNL     1       2.503   7.807  18.256  0.00  0.00    +0.000 C 
ATOM      3  N   UNL     1       2.080   7.751  19.571  0.00  0.00    +0.000 N 
ATOM      4  H   UNL     1       2.410   6.981  20.142  0.00  0.00    +0.000 HD
ENDROOT
BRANCH   2   5
ATOM      5  C   UNL     1       3.256   6.635  17.751  0.00  0.00    +0.000 A 
ATOM      6  C   UNL     1       4.503   6.863  17.150  0.00  0.00    +0.000 A 
ATOM      7  C   UNL     1       5.258   5.788  16.680  0.00  0.00    +0.000 A 
ATOM      8  C   UNL     1       4.768   4.495  16.822  0.00  0.00    +0.000 A 
ATOM      9  F   UNL     1       5.498   3.463  16.378  0.00  0.00    +0.000 F 
ATOM     10  C   UNL     1       3.537   4.251  17.417  0.00  0.00    +0.000 A 
ATOM     11  C   UNL     1       2.783   5.328  17.873  0.00  0.00    +0.000 A 
ATOM     12  F   UNL     1       1.597   5.075  18.444  0.00  0.00    +0.000 F 
ENDBRANCH   2   5
BRANCH   3  13
ATOM     13  C   UNL     1       1.305   8.725  20.231  0.00  0.00    +0.000 A 
ATOM     14  C   UNL     1       0.599   9.720  19.557  0.00  0.00    +0.000 A 
ATOM     15  C   UNL     1      -0.133  10.678  20.259  0.00  0.00    +0.000 A 
ATOM     16  C   UNL     1      -0.176  10.664  21.656  0.00  0.00    +0.000 A 
ATOM     17  C   UNL     1       0.514   9.648  22.331  0.00  0.00    +0.000 A 
ATOM     18  C   UNL     1       1.240   8.679  21.626  0.00  0.00    +0.000 A 
BRANCH  16  19
ATOM     19  C   UNL     1      -0.917  11.692  22.369  0.00  0.00    +0.000 A 
ATOM     20  C   UNL     1      -0.763  13.046  22.585  0.00  0.00    +0.000 A 
ATOM     21  N   UNL     1      -1.776  13.523  23.379  0.00  0.00    +0.000 NA
ATOM     22  C   UNL     1      -2.497  12.452  23.617  0.00  0.00    +0.000 A 
ATOM     23  O   UNL     1      -2.049  11.307  23.038  0.00  0.00    +0.000 OA
ENDBRANCH  16  19
ENDBRANCH   3  13
TORSDOF 3
ENDMDL
