MODEL 1
REMARK VINA RESULT:      -7.4      0.000      0.000
REMARK  Name = 
REMARK  7 active torsions:
REMARK  status: ('A' for Active; 'I' for Inactive)
REMARK    1  A    between atoms: C_1  and  C_2
REMARK    2  A    between atoms: C_4  and  C_5
REMARK    3  A    between atoms: C_7  and  N_8
REMARK    4  A    between atoms: C_9  and  C_11
REMARK    5  A    between atoms: C_11  and  S_12
REMARK    6  A    between atoms: S_12  and  C_13
REMARK    7  A    between atoms: C_18  and  C_20
REMARK                            x       y       z     vdW  Elec       q    Type
REMARK                         _______ _______ _______ _____ _____    ______ ____
ROOT
ATOM      1  C   UNL     1       8.547   8.058  18.663  0.00  0.00    +0.000 C 
ENDROOT
BRANCH   1   3
ATOM      2  N   UNL     1       9.477   9.981  19.875  0.00  0.00    +0.000 N 
ATOM      3  C   UNL     1       8.767   9.569  18.751  0.00  0.00    +0.000 C 
ATOM      4  O   UNL     1       8.331  10.292  17.862  0.00  0.00    +0.000 OA
ATOM      5  H   UNL     1       9.774   9.270  20.530  0.00  0.00    +0.000 HD
BRANCH   2  12
ATOM      6  C   UNL     1      12.330  13.900  18.856  0.00  0.00    +0.000 C 
ATOM      7  C   UNL     1      11.259  13.252  19.685  0.00  0.00    +0.000 A 
ATOM      8  C   UNL     1      10.655  13.961  20.728  0.00  0.00    +0.000 A 
ATOM      9  C   UNL     1       9.659  13.365  21.504  0.00  0.00    +0.000 A 
ATOM     10  C   UNL     1       8.993  14.105  22.625  0.00  0.00    +0.000 C 
ATOM     11  C   UNL     1       9.266  12.048  21.227  0.00  0.00    +0.000 A 
ATOM     12  C   UNL     1       9.851  11.313  20.193  0.00  0.00    +0.000 A 
ATOM     13  C   UNL     1      10.852  11.929  19.422  0.00  0.00    +0.000 A 
ENDBRANCH   2  12
ENDBRANCH   1   3
BRANCH   1  14
ATOM     14  S   UNL     1       7.473   7.704  17.247  0.00  0.00    +0.000 S 
BRANCH  14  15
ATOM     15  C   UNL     1       6.505   6.382  17.859  0.00  0.00    +0.000 A 
ATOM     16  N   UNL     1       6.998   5.370  18.537  0.00  0.00    +0.000 NA
ATOM     17  N   UNL     1       6.030   4.416  18.813  0.00  0.00    +0.000 NA
ATOM     18  C   UNL     1       4.841   4.767  18.365  0.00  0.00    +0.000 A 
ATOM     19  N   UNL     1       3.735   3.956  18.479  0.00  0.00    +0.000 N 
ATOM     20  C   UNL     1       2.436   4.314  18.211  0.00  0.00    +0.000 C 
ATOM     21  O   UNL     1       2.041   5.407  17.836  0.00  0.00    +0.000 OA
ATOM     22  S   UNL     1       4.820   6.274  17.566  0.00  0.00    +0.000 S 
ATOM     23  H   UNL     1       3.933   3.046  18.869  0.00  0.00    +0.000 HD
BRANCH  20  24
ATOM     24  C   UNL     1       1.399   3.255  18.434  0.00  0.00    +0.000 C 
ATOM     25  C   UNL     1       1.689   1.962  19.158  0.00  0.00    +0.000 C 
ATOM     26  C   UNL     1       0.767   2.976  19.777  0.00  0.00    +0.000 C 
ENDBRANCH  20  24
ENDBRANCH  14  15
ENDBRANCH   1  14
TORSDOF 5
ENDMDL
MODEL 2
REMARK VINA RESULT:      -7.4      3.803      8.190
REMARK  Name = 
REMARK  7 active torsions:
REMARK  status: ('A' for Active; 'I' for Inactive)
REMARK    1  A    between atoms: C_1  and  C_2
REMARK    2  A    between atoms: C_4  and  C_5
REMARK    3  A    between atoms: C_7  and  N_8
REMARK    4  A    between atoms: C_9  and  C_11
REMARK    5  A    between atoms: C_11  and  S_12
REMARK    6  A    between atoms: S_12  and  C_13
REMARK    7  A    between atoms: C_18  and  C_20
REMARK                            x       y       z     vdW  Elec       q    Type
REMARK                         _______ _______ _______ _____ _____    ______ ____
ROOT
ATOM      1  C   UNL     1       2.242   2.859  20.898  0.00  0.00    +0.000 C 
ENDROOT
BRANCH   1   3
ATOM      2  N   UNL     1       2.204   5.314  20.855  0.00  0.00    +0.000 N 
ATOM      3  C   UNL     1       1.485   4.151  20.592  0.00  0.00    +0.000 C 
ATOM      4  O   UNL     1       0.344   4.088  20.145  0.00  0.00    +0.000 OA
ATOM      5  H   UNL     1       3.140   5.213  21.226  0.00  0.00    +0.000 HD
BRANCH   2  12
ATOM      6  C   UNL     1       2.136   9.279  17.887  0.00  0.00    +0.000 C 
ATOM      7  C   UNL     1       1.726   8.603  19.163  0.00  0.00    +0.000 A 
ATOM      8  C   UNL     1       0.926   9.280  20.089  0.00  0.00    +0.000 A 
ATOM      9  C   UNL     1       0.541   8.659  21.279  0.00  0.00    +0.000 A 
ATOM     10  C   UNL     1      -0.320   9.362  22.285  0.00  0.00    +0.000 C 
ATOM     11  C   UNL     1       0.962   7.347  21.538  0.00  0.00    +0.000 A 
ATOM     12  C   UNL     1       1.763   6.645  20.635  0.00  0.00    +0.000 A 
ATOM     13  C   UNL     1       2.141   7.286  19.442  0.00  0.00    +0.000 A 
ENDBRANCH   2  12
ENDBRANCH   1   3
BRANCH   1  14
ATOM     14  S   UNL     1       2.887   2.176  19.348  0.00  0.00    +0.000 S 
BRANCH  14  15
ATOM     15  C   UNL     1       3.632   3.582  18.624  0.00  0.00    +0.000 A 
ATOM     16  N   UNL     1       3.092   4.270  17.642  0.00  0.00    +0.000 NA
ATOM     17  N   UNL     1       3.937   5.272  17.189  0.00  0.00    +0.000 NA
ATOM     18  C   UNL     1       5.062   5.322  17.875  0.00  0.00    +0.000 A 
ATOM     19  N   UNL     1       6.074   6.205  17.576  0.00  0.00    +0.000 N 
ATOM     20  C   UNL     1       7.189   6.451  18.341  0.00  0.00    +0.000 C 
ATOM     21  O   UNL     1       7.466   5.938  19.415  0.00  0.00    +0.000 OA
ATOM     22  S   UNL     1       5.176   4.148  19.106  0.00  0.00    +0.000 S 
ATOM     23  H   UNL     1       5.907   6.754  16.745  0.00  0.00    +0.000 HD
BRANCH  20  24
ATOM     24  C   UNL     1       8.142   7.478  17.810  0.00  0.00    +0.000 C 
ATOM     25  C   UNL     1       7.721   8.886  17.461  0.00  0.00    +0.000 C 
ATOM     26  C   UNL     1       8.646   8.648  18.622  0.00  0.00    +0.000 C 
ENDBRANCH  20  24
ENDBRANCH  14  15
ENDBRANCH   1  14
TORSDOF 5
ENDMDL
MODEL 3
REMARK VINA RESULT:      -7.3      6.368      8.488
REMARK  Name = 
REMARK  7 active torsions:
REMARK  status: ('A' for Active; 'I' for Inactive)
REMARK    1  A    between atoms: C_1  and  C_2
REMARK    2  A    between atoms: C_4  and  C_5
REMARK    3  A    between atoms: C_7  and  N_8
REMARK    4  A    between atoms: C_9  and  C_11
REMARK    5  A    between atoms: C_11  and  S_12
REMARK    6  A    between atoms: S_12  and  C_13
REMARK    7  A    between atoms: C_18  and  C_20
REMARK                            x       y       z     vdW  Elec       q    Type
REMARK                         _______ _______ _______ _____ _____    ______ ____
ROOT
ATOM      1  C   UNL     1       6.189   4.663  18.537  0.00  0.00    +0.000 C 
ENDROOT
BRANCH   1   3
ATOM      2  N   UNL     1       6.037   4.631  16.086  0.00  0.00    +0.000 N 
ATOM      3  C   UNL     1       6.876   4.469  17.185  0.00  0.00    +0.000 C 
ATOM      4  O   UNL     1       8.073   4.202  17.152  0.00  0.00    +0.000 OA
ATOM      5  H   UNL     1       5.066   4.849  16.265  0.00  0.00    +0.000 HD
BRANCH   2  12
ATOM      6  C   UNL     1       5.412   2.425  11.695  0.00  0.00    +0.000 C 
ATOM      7  C   UNL     1       6.098   3.453  12.548  0.00  0.00    +0.000 A 
ATOM      8  C   UNL     1       7.068   4.292  11.990  0.00  0.00    +0.000 A 
ATOM      9  C   UNL     1       7.712   5.249  12.777  0.00  0.00    +0.000 A 
ATOM     10  C   UNL     1       8.751   6.164  12.202  0.00  0.00    +0.000 C 
ATOM     11  C   UNL     1       7.375   5.365  14.133  0.00  0.00    +0.000 A 
ATOM     12  C   UNL     1       6.412   4.541  14.720  0.00  0.00    +0.000 A 
ATOM     13  C   UNL     1       5.774   3.583  13.913  0.00  0.00    +0.000 A 
ENDBRANCH   2  12
ENDBRANCH   1   3
BRANCH   1  14
ATOM     14  S   UNL     1       4.453   4.165  18.389  0.00  0.00    +0.000 S 
BRANCH  14  15
ATOM     15  C   UNL     1       3.641   5.713  18.356  0.00  0.00    +0.000 A 
ATOM     16  N   UNL     1       3.733   6.563  17.357  0.00  0.00    +0.000 NA
ATOM     17  N   UNL     1       3.073   7.752  17.632  0.00  0.00    +0.000 NA
ATOM     18  C   UNL     1       2.481   7.733  18.809  0.00  0.00    +0.000 A 
ATOM     19  N   UNL     1       1.805   8.819  19.318  0.00  0.00    +0.000 N 
ATOM     20  C   UNL     1       1.011   8.828  20.439  0.00  0.00    +0.000 C 
ATOM     21  O   UNL     1       0.762   7.878  21.166  0.00  0.00    +0.000 OA
ATOM     22  S   UNL     1       2.694   6.276  19.668  0.00  0.00    +0.000 S 
ATOM     23  H   UNL     1       1.869   9.646  18.743  0.00  0.00    +0.000 HD
BRANCH  20  24
ATOM     24  C   UNL     1       0.362  10.135  20.779  0.00  0.00    +0.000 C 
ATOM     25  C   UNL     1       0.498  11.367  19.917  0.00  0.00    +0.000 C 
ATOM     26  C   UNL     1      -0.837  10.688  20.045  0.00  0.00    +0.000 C 
ENDBRANCH  20  24
ENDBRANCH  14  15
ENDBRANCH   1  14
TORSDOF 5
ENDMDL
MODEL 4
REMARK VINA RESULT:      -7.2      3.249      8.157
REMARK  Name = 
REMARK  7 active torsions:
REMARK  status: ('A' for Active; 'I' for Inactive)
REMARK    1  A    between atoms: C_1  and  C_2
REMARK    2  A    between atoms: C_4  and  C_5
REMARK    3  A    between atoms: C_7  and  N_8
REMARK    4  A    between atoms: C_9  and  C_11
REMARK    5  A    between atoms: C_11  and  S_12
REMARK    6  A    between atoms: S_12  and  C_13
REMARK    7  A    between atoms: C_18  and  C_20
REMARK                            x       y       z     vdW  Elec       q    Type
REMARK                         _______ _______ _______ _____ _____    ______ ____
ROOT
ATOM      1  C   UNL     1       3.814   3.882  18.283  0.00  0.00    +0.000 C 
ENDROOT
BRANCH   1   3
ATOM      2  N   UNL     1       2.616   6.022  18.409  0.00  0.00    +0.000 N 
ATOM      3  C   UNL     1       3.567   5.203  19.012  0.00  0.00    +0.000 C 
ATOM      4  O   UNL     1       4.188   5.447  20.041  0.00  0.00    +0.000 OA
ATOM      5  H   UNL     1       2.183   5.690  17.558  0.00  0.00    +0.000 HD
BRANCH   2  12
ATOM      6  C   UNL     1       0.559   8.639  22.078  0.00  0.00    +0.000 C 
ATOM      7  C   UNL     1       1.155   8.576  20.701  0.00  0.00    +0.000 A 
ATOM      8  C   UNL     1       1.264   9.738  19.930  0.00  0.00    +0.000 A 
ATOM      9  C   UNL     1       1.816   9.688  18.649  0.00  0.00    +0.000 A 
ATOM     10  C   UNL     1       1.948  10.920  17.805  0.00  0.00    +0.000 C 
ATOM     11  C   UNL     1       2.264   8.461  18.140  0.00  0.00    +0.000 A 
ATOM     12  C   UNL     1       2.168   7.282  18.884  0.00  0.00    +0.000 A 
ATOM     13  C   UNL     1       1.609   7.352  20.172  0.00  0.00    +0.000 A 
ENDBRANCH   2  12
ENDBRANCH   1   3
BRANCH   1  14
ATOM     14  S   UNL     1       4.880   4.192  16.852  0.00  0.00    +0.000 S 
BRANCH  14  15
ATOM     15  C   UNL     1       6.235   5.015  17.591  0.00  0.00    +0.000 A 
ATOM     16  N   UNL     1       7.123   4.419  18.355  0.00  0.00    +0.000 NA
ATOM     17  N   UNL     1       8.030   5.320  18.890  0.00  0.00    +0.000 NA
ATOM     18  C   UNL     1       7.810   6.553  18.477  0.00  0.00    +0.000 A 
ATOM     19  N   UNL     1       8.554   7.625  18.914  0.00  0.00    +0.000 N 
ATOM     20  C   UNL     1       8.517   8.901  18.403  0.00  0.00    +0.000 C 
ATOM     21  O   UNL     1       7.829   9.295  17.473  0.00  0.00    +0.000 OA
ATOM     22  S   UNL     1       6.480   6.703  17.421  0.00  0.00    +0.000 S 
ATOM     23  H   UNL     1       9.228   7.393  19.629  0.00  0.00    +0.000 HD
BRANCH  20  24
ATOM     24  C   UNL     1       9.441   9.894  19.036  0.00  0.00    +0.000 C 
ATOM     25  C   UNL     1       9.267  11.388  18.889  0.00  0.00    +0.000 C 
ATOM     26  C   UNL     1       9.067  10.739  20.231  0.00  0.00    +0.000 C 
ENDBRANCH  20  24
ENDBRANCH  14  15
ENDBRANCH   1  14
TORSDOF 5
ENDMDL
MODEL 5
REMARK VINA RESULT:      -7.2      6.349      8.427
REMARK  Name = 
REMARK  7 active torsions:
REMARK  status: ('A' for Active; 'I' for Inactive)
REMARK    1  A    between atoms: C_1  and  C_2
REMARK    2  A    between atoms: C_4  and  C_5
REMARK    3  A    between atoms: C_7  and  N_8
REMARK    4  A    between atoms: C_9  and  C_11
REMARK    5  A    between atoms: C_11  and  S_12
REMARK    6  A    between atoms: S_12  and  C_13
REMARK    7  A    between atoms: C_18  and  C_20
REMARK                            x       y       z     vdW  Elec       q    Type
REMARK                         _______ _______ _______ _____ _____    ______ ____
ROOT
ATOM      1  C   UNL     1       6.205   4.780  18.597  0.00  0.00    +0.000 C 
ENDROOT
BRANCH   1   3
ATOM      2  N   UNL     1       5.974   4.636  16.156  0.00  0.00    +0.000 N 
ATOM      3  C   UNL     1       6.852   4.542  17.232  0.00  0.00    +0.000 C 
ATOM      4  O   UNL     1       8.053   4.301  17.170  0.00  0.00    +0.000 OA
ATOM      5  H   UNL     1       5.004   4.839  16.358  0.00  0.00    +0.000 HD
BRANCH   2  12
ATOM      6  C   UNL     1       8.765   6.107  12.337  0.00  0.00    +0.000 C 
ATOM      7  C   UNL     1       7.690   5.220  12.897  0.00  0.00    +0.000 A 
ATOM      8  C   UNL     1       7.056   4.284  12.074  0.00  0.00    +0.000 A 
ATOM      9  C   UNL     1       6.055   3.457  12.587  0.00  0.00    +0.000 A 
ATOM     10  C   UNL     1       5.363   2.442  11.727  0.00  0.00    +0.000 C 
ATOM     11  C   UNL     1       5.692   3.569  13.937  0.00  0.00    +0.000 A 
ATOM     12  C   UNL     1       6.306   4.495  14.783  0.00  0.00    +0.000 A 
ATOM     13  C   UNL     1       7.311   5.320  14.250  0.00  0.00    +0.000 A 
ENDBRANCH   2  12
ENDBRANCH   1   3
BRANCH   1  14
ATOM     14  S   UNL     1       4.466   4.278  18.516  0.00  0.00    +0.000 S 
BRANCH  14  15
ATOM     15  C   UNL     1       3.656   5.822  18.385  0.00  0.00    +0.000 A 
ATOM     16  N   UNL     1       3.783   6.627  17.353  0.00  0.00    +0.000 NA
ATOM     17  N   UNL     1       3.115   7.826  17.551  0.00  0.00    +0.000 NA
ATOM     18  C   UNL     1       2.481   7.859  18.707  0.00  0.00    +0.000 A 
ATOM     19  N   UNL     1       1.789   8.966  19.143  0.00  0.00    +0.000 N 
ATOM     20  C   UNL     1       0.956   9.024  20.234  0.00  0.00    +0.000 C 
ATOM     21  O   UNL     1       0.681   8.108  20.994  0.00  0.00    +0.000 OA
ATOM     22  S   UNL     1       2.664   6.442  19.638  0.00  0.00    +0.000 S 
ATOM     23  H   UNL     1       1.873   9.767  18.535  0.00  0.00    +0.000 HD
BRANCH  20  24
ATOM     24  C   UNL     1       0.297  10.344  20.493  0.00  0.00    +0.000 C 
ATOM     25  C   UNL     1       0.059  11.369  19.409  0.00  0.00    +0.000 C 
ATOM     26  C   UNL     1      -1.110  10.675  20.052  0.00  0.00    +0.000 C 
ENDBRANCH  20  24
ENDBRANCH  14  15
ENDBRANCH   1  14
TORSDOF 5
ENDMDL
MODEL 6
REMARK VINA RESULT:      -7.1      7.322     10.292
REMARK  Name = 
REMARK  7 active torsions:
REMARK  status: ('A' for Active; 'I' for Inactive)
REMARK    1  A    between atoms: C_1  and  C_2
REMARK    2  A    between atoms: C_4  and  C_5
REMARK    3  A    between atoms: C_7  and  N_8
REMARK    4  A    between atoms: C_9  and  C_11
REMARK    5  A    between atoms: C_11  and  S_12
REMARK    6  A    between atoms: S_12  and  C_13
REMARK    7  A    between atoms: C_18  and  C_20
REMARK                            x       y       z     vdW  Elec       q    Type
REMARK                         _______ _______ _______ _____ _____    ______ ____
ROOT
ATOM      1  C   UNL     1       1.274   9.165  19.804  0.00  0.00    +0.000 C 
ENDROOT
BRANCH   1   3
ATOM      2  N   UNL     1       2.424   7.529  18.379  0.00  0.00    +0.000 N 
ATOM      3  C   UNL     1       1.907   7.782  19.646  0.00  0.00    +0.000 C 
ATOM      4  O   UNL     1       1.926   7.017  20.605  0.00  0.00    +0.000 OA
ATOM      5  H   UNL     1       2.335   8.256  17.681  0.00  0.00    +0.000 HD
BRANCH   2  12
ATOM      6  C   UNL     1       6.591   5.423  16.723  0.00  0.00    +0.000 C 
ATOM      7  C   UNL     1       5.156   5.307  17.149  0.00  0.00    +0.000 A 
ATOM      8  C   UNL     1       4.519   4.061  17.137  0.00  0.00    +0.000 A 
ATOM      9  C   UNL     1       3.185   3.946  17.530  0.00  0.00    +0.000 A 
ATOM     10  C   UNL     1       2.482   2.621  17.531  0.00  0.00    +0.000 C 
ATOM     11  C   UNL     1       2.487   5.090  17.941  0.00  0.00    +0.000 A 
ATOM     12  C   UNL     1       3.093   6.348  17.963  0.00  0.00    +0.000 A 
ATOM     13  C   UNL     1       4.437   6.446  17.563  0.00  0.00    +0.000 A 
ENDBRANCH   2  12
ENDBRANCH   1   3
BRANCH   1  14
ATOM     14  S   UNL     1       0.870   9.815  18.162  0.00  0.00    +0.000 S 
BRANCH  14  15
ATOM     15  C   UNL     1      -0.581  10.734  18.491  0.00  0.00    +0.000 A 
ATOM     16  N   UNL     1      -0.721  11.530  19.528  0.00  0.00    +0.000 NA
ATOM     17  N   UNL     1      -2.002  12.055  19.604  0.00  0.00    +0.000 NA
ATOM     18  C   UNL     1      -2.762  11.664  18.601  0.00  0.00    +0.000 A 
ATOM     19  N   UNL     1      -4.087  12.019  18.490  0.00  0.00    +0.000 N 
ATOM     20  C   UNL     1      -4.894  11.813  17.397  0.00  0.00    +0.000 C 
ATOM     21  O   UNL     1      -4.573  11.292  16.339  0.00  0.00    +0.000 OA
ATOM     22  S   UNL     1      -1.977  10.621  17.503  0.00  0.00    +0.000 S 
ATOM     23  H   UNL     1      -4.438  12.541  19.280  0.00  0.00    +0.000 HD
BRANCH  20  24
ATOM     24  C   UNL     1      -6.302  12.311  17.511  0.00  0.00    +0.000 C 
ATOM     25  C   UNL     1      -6.697  13.454  18.416  0.00  0.00    +0.000 C 
ATOM     26  C   UNL     1      -6.775  13.620  16.923  0.00  0.00    +0.000 C 
ENDBRANCH  20  24
ENDBRANCH  14  15
ENDBRANCH   1  14
TORSDOF 5
ENDMDL
MODEL 7
REMARK VINA RESULT:      -7.1      1.609      2.504
REMARK  Name = 
REMARK  7 active torsions:
REMARK  status: ('A' for Active; 'I' for Inactive)
REMARK    1  A    between atoms: C_1  and  C_2
REMARK    2  A    between atoms: C_4  and  C_5
REMARK    3  A    between atoms: C_7  and  N_8
REMARK    4  A    between atoms: C_9  and  C_11
REMARK    5  A    between atoms: C_11  and  S_12
REMARK    6  A    between atoms: S_12  and  C_13
REMARK    7  A    between atoms: C_18  and  C_20
REMARK                            x       y       z     vdW  Elec       q    Type
REMARK                         _______ _______ _______ _____ _____    ______ ____
ROOT
ATOM      1  C   UNL     1       8.188   7.910  18.601  0.00  0.00    +0.000 C 
ENDROOT
BRANCH   1   3
ATOM      2  N   UNL     1       9.600   9.843  19.147  0.00  0.00    +0.000 N 
ATOM      3  C   UNL     1       8.556   9.373  18.355  0.00  0.00    +0.000 C 
ATOM      4  O   UNL     1       7.942  10.013  17.508  0.00  0.00    +0.000 OA
ATOM      5  H   UNL     1      10.014   9.200  19.808  0.00  0.00    +0.000 HD
BRANCH   2  12
ATOM      6  C   UNL     1      10.235  14.219  21.381  0.00  0.00    +0.000 C 
ATOM      7  C   UNL     1      10.485  13.305  20.215  0.00  0.00    +0.000 A 
ATOM      8  C   UNL     1      11.263  13.741  19.137  0.00  0.00    +0.000 A 
ATOM      9  C   UNL     1      11.498  12.898  18.050  0.00  0.00    +0.000 A 
ATOM     10  C   UNL     1      12.332  13.340  16.884  0.00  0.00    +0.000 C 
ATOM     11  C   UNL     1      10.950  11.608  18.047  0.00  0.00    +0.000 A 
ATOM     12  C   UNL     1      10.167  11.144  19.107  0.00  0.00    +0.000 A 
ATOM     13  C   UNL     1       9.941  12.006  20.194  0.00  0.00    +0.000 A 
ENDBRANCH   2  12
ENDBRANCH   1   3
BRANCH   1  14
ATOM     14  S   UNL     1       7.642   7.173  17.038  0.00  0.00    +0.000 S 
BRANCH  14  15
ATOM     15  C   UNL     1       6.084   6.514  17.482  0.00  0.00    +0.000 A 
ATOM     16  N   UNL     1       4.937   7.046  17.120  0.00  0.00    +0.000 NA
ATOM     17  N   UNL     1       3.860   6.384  17.691  0.00  0.00    +0.000 NA
ATOM     18  C   UNL     1       4.239   5.358  18.426  0.00  0.00    +0.000 A 
ATOM     19  N   UNL     1       3.348   4.580  19.130  0.00  0.00    +0.000 N 
ATOM     20  C   UNL     1       3.631   3.395  19.765  0.00  0.00    +0.000 C 
ATOM     21  O   UNL     1       4.712   2.827  19.805  0.00  0.00    +0.000 OA
ATOM     22  S   UNL     1       5.929   5.135  18.487  0.00  0.00    +0.000 S 
ATOM     23  H   UNL     1       2.395   4.911  19.089  0.00  0.00    +0.000 HD
BRANCH  20  24
ATOM     24  C   UNL     1       2.481   2.720  20.449  0.00  0.00    +0.000 C 
ATOM     25  C   UNL     1       1.221   3.450  20.847  0.00  0.00    +0.000 C 
ATOM     26  C   UNL     1       1.171   2.407  19.766  0.00  0.00    +0.000 C 
ENDBRANCH  20  24
ENDBRANCH  14  15
ENDBRANCH   1  14
TORSDOF 5
ENDMDL
MODEL 8
REMARK VINA RESULT:      -7.1      3.353      8.356
REMARK  Name = 
REMARK  7 active torsions:
REMARK  status: ('A' for Active; 'I' for Inactive)
REMARK    1  A    between atoms: C_1  and  C_2
REMARK    2  A    between atoms: C_4  and  C_5
REMARK    3  A    between atoms: C_7  and  N_8
REMARK    4  A    between atoms: C_9  and  C_11
REMARK    5  A    between atoms: C_11  and  S_12
REMARK    6  A    between atoms: S_12  and  C_13
REMARK    7  A    between atoms: C_18  and  C_20
REMARK                            x       y       z     vdW  Elec       q    Type
REMARK                         _______ _______ _______ _____ _____    ______ ____
ROOT
ATOM      1  C   UNL     1       3.623   3.539  19.099  0.00  0.00    +0.000 C 
ENDROOT
BRANCH   1   3
ATOM      2  N   UNL     1       2.959   5.809  19.761  0.00  0.00    +0.000 N 
ATOM      3  C   UNL     1       2.641   4.704  18.976  0.00  0.00    +0.000 C 
ATOM      4  O   UNL     1       1.679   4.602  18.221  0.00  0.00    +0.000 OA
ATOM      5  H   UNL     1       3.786   5.751  20.340  0.00  0.00    +0.000 HD
BRANCH   2  12
ATOM      6  C   UNL     1      -0.065   8.794  22.308  0.00  0.00    +0.000 C 
ATOM      7  C   UNL     1       0.754   8.512  21.081  0.00  0.00    +0.000 A 
ATOM      8  C   UNL     1       0.804   9.447  20.042  0.00  0.00    +0.000 A 
ATOM      9  C   UNL     1       1.562   9.191  18.897  0.00  0.00    +0.000 A 
ATOM     10  C   UNL     1       1.636  10.179  17.772  0.00  0.00    +0.000 C 
ATOM     11  C   UNL     1       2.276   7.989  18.798  0.00  0.00    +0.000 A 
ATOM     12  C   UNL     1       2.245   7.035  19.818  0.00  0.00    +0.000 A 
ATOM     13  C   UNL     1       1.477   7.308  20.963  0.00  0.00    +0.000 A 
ENDBRANCH   2  12
ENDBRANCH   1   3
BRANCH   1  14
ATOM     14  S   UNL     1       4.511   3.353  17.530  0.00  0.00    +0.000 S 
BRANCH  14  15
ATOM     15  C   UNL     1       5.117   4.973  17.271  0.00  0.00    +0.000 A 
ATOM     16  N   UNL     1       4.593   5.820  16.413  0.00  0.00    +0.000 NA
ATOM     17  N   UNL     1       5.327   6.994  16.335  0.00  0.00    +0.000 NA
ATOM     18  C   UNL     1       6.351   6.997  17.165  0.00  0.00    +0.000 A 
ATOM     19  N   UNL     1       7.250   8.037  17.229  0.00  0.00    +0.000 N 
ATOM     20  C   UNL     1       8.227   8.207  18.180  0.00  0.00    +0.000 C 
ATOM     21  O   UNL     1       8.457   7.475  19.131  0.00  0.00    +0.000 OA
ATOM     22  S   UNL     1       6.500   5.571  18.087  0.00  0.00    +0.000 S 
ATOM     23  H   UNL     1       7.096   8.755  16.536  0.00  0.00    +0.000 HD
BRANCH  20  24
ATOM     24  C   UNL     1       9.072   9.437  18.047  0.00  0.00    +0.000 C 
ATOM     25  C   UNL     1       8.492  10.831  18.003  0.00  0.00    +0.000 C 
ATOM     26  C   UNL     1       9.323  10.404  19.181  0.00  0.00    +0.000 C 
ENDBRANCH  20  24
ENDBRANCH  14  15
ENDBRANCH   1  14
TORSDOF 5
ENDMDL
MODEL 9
REMARK VINA RESULT:      -7.0      3.376      8.209
REMARK  Name = 
REMARK  7 active torsions:
REMARK  status: ('A' for Active; 'I' for Inactive)
REMARK    1  A    between atoms: C_1  and  C_2
REMARK    2  A    between atoms: C_4  and  C_5
REMARK    3  A    between atoms: C_7  and  N_8
REMARK    4  A    between atoms: C_9  and  C_11
REMARK    5  A    between atoms: C_11  and  S_12
REMARK    6  A    between atoms: S_12  and  C_13
REMARK    7  A    between atoms: C_18  and  C_20
REMARK                            x       y       z     vdW  Elec       q    Type
REMARK                         _______ _______ _______ _____ _____    ______ ____
ROOT
ATOM      1  C   UNL     1       3.728   3.618  19.177  0.00  0.00    +0.000 C 
ENDROOT
BRANCH   1   3
ATOM      2  N   UNL     1       3.012   5.873  19.837  0.00  0.00    +0.000 N 
ATOM      3  C   UNL     1       2.682   4.731  19.112  0.00  0.00    +0.000 C 
ATOM      4  O   UNL     1       1.665   4.562  18.447  0.00  0.00    +0.000 OA
ATOM      5  H   UNL     1       3.888   5.871  20.342  0.00  0.00    +0.000 HD
BRANCH   2  12
ATOM      6  C   UNL     1       1.628  10.143  17.742  0.00  0.00    +0.000 C 
ATOM      7  C   UNL     1       1.559   9.173  18.887  0.00  0.00    +0.000 A 
ATOM      8  C   UNL     1       0.751   9.453  19.994  0.00  0.00    +0.000 A 
ATOM      9  C   UNL     1       0.682   8.557  21.063  0.00  0.00    +0.000 A 
ATOM     10  C   UNL     1      -0.180   8.831  22.258  0.00  0.00    +0.000 C 
ATOM     11  C   UNL     1       1.429   7.371  21.017  0.00  0.00    +0.000 A 
ATOM     12  C   UNL     1       2.246   7.064  19.926  0.00  0.00    +0.000 A 
ATOM     13  C   UNL     1       2.303   7.978  18.859  0.00  0.00    +0.000 A 
ENDBRANCH   2  12
ENDBRANCH   1   3
BRANCH   1  14
ATOM     14  S   UNL     1       4.492   3.436  17.544  0.00  0.00    +0.000 S 
BRANCH  14  15
ATOM     15  C   UNL     1       5.103   5.049  17.256  0.00  0.00    +0.000 A 
ATOM     16  N   UNL     1       4.586   5.878  16.377  0.00  0.00    +0.000 NA
ATOM     17  N   UNL     1       5.323   7.049  16.279  0.00  0.00    +0.000 NA
ATOM     18  C   UNL     1       6.341   7.068  17.116  0.00  0.00    +0.000 A 
ATOM     19  N   UNL     1       7.242   8.108  17.165  0.00  0.00    +0.000 N 
ATOM     20  C   UNL     1       8.212   8.296  18.120  0.00  0.00    +0.000 C 
ATOM     21  O   UNL     1       8.434   7.584  19.088  0.00  0.00    +0.000 OA
ATOM     22  S   UNL     1       6.481   5.662  18.070  0.00  0.00    +0.000 S 
ATOM     23  H   UNL     1       7.094   8.812  16.457  0.00  0.00    +0.000 HD
BRANCH  20  24
ATOM     24  C   UNL     1       9.061   9.522  17.968  0.00  0.00    +0.000 C 
ATOM     25  C   UNL     1       8.494  10.922  18.004  0.00  0.00    +0.000 C 
ATOM     26  C   UNL     1       9.397  10.451  19.111  0.00  0.00    +0.000 C 
ENDBRANCH  20  24
ENDBRANCH  14  15
ENDBRANCH   1  14
TORSDOF 5
ENDMDL
