MODEL 1
REMARK VINA RESULT:      -7.1      0.000      0.000
REMARK  Name = 
REMARK  7 active torsions:
REMARK  status: ('A' for Active; 'I' for Inactive)
REMARK    1  A    between atoms: C_1  and  N_2
REMARK    2  A    between atoms: N_2  and  C_3
REMARK    3  A    between atoms: N_2  and  C_4
REMARK    4  A    between atoms: C_4  and  C_5
REMARK    5  A    between atoms: C_5  and  C_6
REMARK    6  A    between atoms: C_6  and  N_7
REMARK    7  A    between atoms: C_10  and  C_11
REMARK                            x       y       z     vdW  Elec       q    Type
REMARK                         _______ _______ _______ _____ _____    ______ ____
ROOT
ATOM      1  N   UNL     1       1.789   5.987  20.759  0.00  0.00    +0.000 NA
ATOM      2  C   UNL     1       2.385   6.547  19.756  0.00  0.00    +0.000 A 
ATOM      3  C   UNL     1       3.459   5.899  18.951  0.00  0.00    +0.000 A 
ATOM      4  C   UNL     1       4.081   6.432  17.896  0.00  0.00    +0.000 A 
ATOM      5  S   UNL     1       3.813   7.987  17.236  0.00  0.00    +0.000 S 
ATOM      6  C   UNL     1       2.503   8.601  18.262  0.00  0.00    +0.000 A 
ATOM      7  C   UNL     1       2.000   9.868  17.916  0.00  0.00    +0.000 A 
ATOM      8  C   UNL     1       0.971  10.460  18.647  0.00  0.00    +0.000 A 
ATOM      9  C   UNL     1       0.444   9.794  19.746  0.00  0.00    +0.000 A 
ATOM     10 CL   UNL     1      -0.824  10.521  20.653  0.00  0.00    +0.000 Cl
ATOM     11  C   UNL     1       0.928   8.539  20.106  0.00  0.00    +0.000 A 
ATOM     12  C   UNL     1       1.953   7.925  19.359  0.00  0.00    +0.000 A 
ENDROOT
BRANCH   4  13
ATOM     13  C   UNL     1       5.089   5.619  17.199  0.00  0.00    +0.000 A 
ATOM     14  C   UNL     1       6.274   5.254  17.855  0.00  0.00    +0.000 A 
ATOM     15  C   UNL     1       7.248   4.509  17.189  0.00  0.00    +0.000 A 
ATOM     16  C   UNL     1       7.049   4.127  15.863  0.00  0.00    +0.000 A 
ATOM     17  C   UNL     1       5.877   4.491  15.200  0.00  0.00    +0.000 A 
ATOM     18  C   UNL     1       4.899   5.237  15.863  0.00  0.00    +0.000 A 
ENDBRANCH   4  13
BRANCH   1  19
ATOM     19  C   UNL     1       2.173   4.631  21.161  0.00  0.00    +0.000 C 
BRANCH  19  20
ATOM     20  C   UNL     1       1.181   3.628  20.578  0.00  0.00    +0.000 C 
BRANCH  20  21
ATOM     21  C   UNL     1       1.885   2.367  20.048  0.00  0.00    +0.000 C 
BRANCH  21  23
ATOM     22  C   UNL     1       4.282   2.074  19.725  0.00  0.00    +0.000 C 
ATOM     23  N   UNL     1       3.045   2.635  19.179  0.00  0.00    +0.000 NA
ATOM     24  C   UNL     1       2.809   2.101  17.835  0.00  0.00    +0.000 C 
ENDBRANCH  21  23
ENDBRANCH  20  21
ENDBRANCH  19  20
ENDBRANCH   1  19
TORSDOF 5
ENDMDL
MODEL 2
REMARK VINA RESULT:      -7.1      0.914      1.127
REMARK  Name = 
REMARK  7 active torsions:
REMARK  status: ('A' for Active; 'I' for Inactive)
REMARK    1  A    between atoms: C_1  and  N_2
REMARK    2  A    between atoms: N_2  and  C_3
REMARK    3  A    between atoms: N_2  and  C_4
REMARK    4  A    between atoms: C_4  and  C_5
REMARK    5  A    between atoms: C_5  and  C_6
REMARK    6  A    between atoms: C_6  and  N_7
REMARK    7  A    between atoms: C_10  and  C_11
REMARK                            x       y       z     vdW  Elec       q    Type
REMARK                         _______ _______ _______ _____ _____    ______ ____
ROOT
ATOM      1  N   UNL     1       1.901   5.952  20.936  0.00  0.00    +0.000 NA
ATOM      2  C   UNL     1       2.333   6.537  19.864  0.00  0.00    +0.000 A 
ATOM      3  C   UNL     1       3.233   5.896  18.864  0.00  0.00    +0.000 A 
ATOM      4  C   UNL     1       3.681   6.454  17.737  0.00  0.00    +0.000 A 
ATOM      5  S   UNL     1       3.349   8.040  17.187  0.00  0.00    +0.000 S 
ATOM      6  C   UNL     1       2.254   8.644  18.444  0.00  0.00    +0.000 A 
ATOM      7  C   UNL     1       1.737   9.935  18.233  0.00  0.00    +0.000 A 
ATOM      8  C   UNL     1       0.866  10.522  19.151  0.00  0.00    +0.000 A 
ATOM      9  C   UNL     1       0.516   9.826  20.300  0.00  0.00    +0.000 A 
ATOM     10 CL   UNL     1      -0.556  10.547  21.436  0.00  0.00    +0.000 Cl
ATOM     11  C   UNL     1       1.018   8.547  20.528  0.00  0.00    +0.000 A 
ATOM     12  C   UNL     1       1.880   7.939  19.595  0.00  0.00    +0.000 A 
ENDROOT
BRANCH   4  13
ATOM     13  C   UNL     1       4.529   5.646  16.849  0.00  0.00    +0.000 A 
ATOM     14  C   UNL     1       4.694   4.274  17.092  0.00  0.00    +0.000 A 
ATOM     15  C   UNL     1       5.523   3.507  16.272  0.00  0.00    +0.000 A 
ATOM     16  C   UNL     1       6.197   4.104  15.207  0.00  0.00    +0.000 A 
ATOM     17  C   UNL     1       6.045   5.468  14.962  0.00  0.00    +0.000 A 
ATOM     18  C   UNL     1       5.216   6.239  15.781  0.00  0.00    +0.000 A 
ENDBRANCH   4  13
BRANCH   1  19
ATOM     19  C   UNL     1       2.308   4.573  21.218  0.00  0.00    +0.000 C 
BRANCH  19  20
ATOM     20  C   UNL     1       1.192   3.618  20.804  0.00  0.00    +0.000 C 
BRANCH  20  21
ATOM     21  C   UNL     1       1.727   2.210  20.496  0.00  0.00    +0.000 C 
BRANCH  21  23
ATOM     22  C   UNL     1       1.273   2.961  18.224  0.00  0.00    +0.000 C 
ATOM     23  N   UNL     1       1.821   1.891  19.060  0.00  0.00    +0.000 NA
ATOM     24  C   UNL     1       3.213   1.632  18.686  0.00  0.00    +0.000 C 
ENDBRANCH  21  23
ENDBRANCH  20  21
ENDBRANCH  19  20
ENDBRANCH   1  19
TORSDOF 5
ENDMDL
MODEL 3
REMARK VINA RESULT:      -7.0      2.569      5.870
REMARK  Name = 
REMARK  7 active torsions:
REMARK  status: ('A' for Active; 'I' for Inactive)
REMARK    1  A    between atoms: C_1  and  N_2
REMARK    2  A    between atoms: N_2  and  C_3
REMARK    3  A    between atoms: N_2  and  C_4
REMARK    4  A    between atoms: C_4  and  C_5
REMARK    5  A    between atoms: C_5  and  C_6
REMARK    6  A    between atoms: C_6  and  N_7
REMARK    7  A    between atoms: C_10  and  C_11
REMARK                            x       y       z     vdW  Elec       q    Type
REMARK                         _______ _______ _______ _____ _____    ______ ____
ROOT
ATOM      1  N   UNL     1       3.161   4.587  20.144  0.00  0.00    +0.000 NA
ATOM      2  C   UNL     1       2.965   5.729  19.566  0.00  0.00    +0.000 A 
ATOM      3  C   UNL     1       2.087   6.804  20.109  0.00  0.00    +0.000 A 
ATOM      4  C   UNL     1       1.877   8.002  19.557  0.00  0.00    +0.000 A 
ATOM      5  S   UNL     1       2.544   8.576  18.090  0.00  0.00    +0.000 S 
ATOM      6  C   UNL     1       3.577   7.221  17.600  0.00  0.00    +0.000 A 
ATOM      7  C   UNL     1       4.335   7.423  16.432  0.00  0.00    +0.000 A 
ATOM      8  C   UNL     1       5.184   6.431  15.943  0.00  0.00    +0.000 A 
ATOM      9  C   UNL     1       5.272   5.218  16.611  0.00  0.00    +0.000 A 
ATOM     10 CL   UNL     1       6.317   3.990  16.011  0.00  0.00    +0.000 Cl
ATOM     11  C   UNL     1       4.530   4.996  17.769  0.00  0.00    +0.000 A 
ATOM     12  C   UNL     1       3.687   6.002  18.282  0.00  0.00    +0.000 A 
ENDROOT
BRANCH   4  13
ATOM     13  C   UNL     1       1.007   8.951  20.266  0.00  0.00    +0.000 A 
ATOM     14  C   UNL     1       0.438  10.033  19.578  0.00  0.00    +0.000 A 
ATOM     15  C   UNL     1      -0.364  10.955  20.252  0.00  0.00    +0.000 A 
ATOM     16  C   UNL     1      -0.599  10.807  21.618  0.00  0.00    +0.000 A 
ATOM     17  C   UNL     1      -0.032   9.740  22.313  0.00  0.00    +0.000 A 
ATOM     18  C   UNL     1       0.771   8.814  21.641  0.00  0.00    +0.000 A 
ENDBRANCH   4  13
BRANCH   1  19
ATOM     19  C   UNL     1       2.488   4.296  21.412  0.00  0.00    +0.000 C 
BRANCH  19  20
ATOM     20  C   UNL     1       1.520   3.132  21.220  0.00  0.00    +0.000 C 
BRANCH  20  21
ATOM     21  C   UNL     1       2.158   1.982  20.423  0.00  0.00    +0.000 C 
BRANCH  21  23
ATOM     22  C   UNL     1       0.495   2.712  18.800  0.00  0.00    +0.000 C 
ATOM     23  N   UNL     1       1.592   1.783  19.076  0.00  0.00    +0.000 NA
ATOM     24  C   UNL     1       2.635   1.930  18.059  0.00  0.00    +0.000 C 
ENDBRANCH  21  23
ENDBRANCH  20  21
ENDBRANCH  19  20
ENDBRANCH   1  19
TORSDOF 5
ENDMDL
MODEL 4
REMARK VINA RESULT:      -6.9      0.241      1.015
REMARK  Name = 
REMARK  7 active torsions:
REMARK  status: ('A' for Active; 'I' for Inactive)
REMARK    1  A    between atoms: C_1  and  N_2
REMARK    2  A    between atoms: N_2  and  C_3
REMARK    3  A    between atoms: N_2  and  C_4
REMARK    4  A    between atoms: C_4  and  C_5
REMARK    5  A    between atoms: C_5  and  C_6
REMARK    6  A    between atoms: C_6  and  N_7
REMARK    7  A    between atoms: C_10  and  C_11
REMARK                            x       y       z     vdW  Elec       q    Type
REMARK                         _______ _______ _______ _____ _____    ______ ____
ROOT
ATOM      1  N   UNL     1       1.958   5.826  20.745  0.00  0.00    +0.000 NA
ATOM      2  C   UNL     1       2.507   6.421  19.736  0.00  0.00    +0.000 A 
ATOM      3  C   UNL     1       3.571   5.817  18.884  0.00  0.00    +0.000 A 
ATOM      4  C   UNL     1       4.145   6.387  17.821  0.00  0.00    +0.000 A 
ATOM      5  S   UNL     1       3.817   7.948  17.203  0.00  0.00    +0.000 S 
ATOM      6  C   UNL     1       2.525   8.507  18.282  0.00  0.00    +0.000 A 
ATOM      7  C   UNL     1       1.980   9.767  17.979  0.00  0.00    +0.000 A 
ATOM      8  C   UNL     1       0.960  10.318  18.754  0.00  0.00    +0.000 A 
ATOM      9  C   UNL     1       0.486   9.617  19.854  0.00  0.00    +0.000 A 
ATOM     10 CL   UNL     1      -0.771  10.292  20.816  0.00  0.00    +0.000 Cl
ATOM     11  C   UNL     1       1.013   8.367  20.173  0.00  0.00    +0.000 A 
ATOM     12  C   UNL     1       2.027   7.795  19.381  0.00  0.00    +0.000 A 
ENDROOT
BRANCH   4  13
ATOM     13  C   UNL     1       5.149   5.614  17.076  0.00  0.00    +0.000 A 
ATOM     14  C   UNL     1       4.880   5.189  15.766  0.00  0.00    +0.000 A 
ATOM     15  C   UNL     1       5.817   4.429  15.065  0.00  0.00    +0.000 A 
ATOM     16  C   UNL     1       7.026   4.083  15.666  0.00  0.00    +0.000 A 
ATOM     17  C   UNL     1       7.300   4.495  16.970  0.00  0.00    +0.000 A 
ATOM     18  C   UNL     1       6.365   5.256  17.676  0.00  0.00    +0.000 A 
ENDBRANCH   4  13
BRANCH   1  19
ATOM     19  C   UNL     1       2.388   4.472  21.106  0.00  0.00    +0.000 C 
BRANCH  19  20
ATOM     20  C   UNL     1       1.242   3.493  20.867  0.00  0.00    +0.000 C 
BRANCH  20  21
ATOM     21  C   UNL     1       1.639   2.373  19.891  0.00  0.00    +0.000 C 
BRANCH  21  23
ATOM     22  C   UNL     1       3.978   1.879  19.424  0.00  0.00    +0.000 C 
ATOM     23  N   UNL     1       2.811   2.680  19.051  0.00  0.00    +0.000 NA
ATOM     24  C   UNL     1       2.493   2.468  17.637  0.00  0.00    +0.000 C 
ENDBRANCH  21  23
ENDBRANCH  20  21
ENDBRANCH  19  20
ENDBRANCH   1  19
TORSDOF 5
ENDMDL
MODEL 5
REMARK VINA RESULT:      -6.9      0.944      1.125
REMARK  Name = 
REMARK  7 active torsions:
REMARK  status: ('A' for Active; 'I' for Inactive)
REMARK    1  A    between atoms: C_1  and  N_2
REMARK    2  A    between atoms: N_2  and  C_3
REMARK    3  A    between atoms: N_2  and  C_4
REMARK    4  A    between atoms: C_4  and  C_5
REMARK    5  A    between atoms: C_5  and  C_6
REMARK    6  A    between atoms: C_6  and  N_7
REMARK    7  A    between atoms: C_10  and  C_11
REMARK                            x       y       z     vdW  Elec       q    Type
REMARK                         _______ _______ _______ _____ _____    ______ ____
ROOT
ATOM      1  N   UNL     1       1.817   5.801  21.137  0.00  0.00    +0.000 NA
ATOM      2  C   UNL     1       2.212   6.464  20.097  0.00  0.00    +0.000 A 
ATOM      3  C   UNL     1       3.114   5.915  19.046  0.00  0.00    +0.000 A 
ATOM      4  C   UNL     1       3.524   6.556  17.948  0.00  0.00    +0.000 A 
ATOM      5  S   UNL     1       3.134   8.160  17.503  0.00  0.00    +0.000 S 
ATOM      6  C   UNL     1       2.042   8.651  18.812  0.00  0.00    +0.000 A 
ATOM      7  C   UNL     1       1.481   9.935  18.689  0.00  0.00    +0.000 A 
ATOM      8  C   UNL     1       0.609  10.436  19.655  0.00  0.00    +0.000 A 
ATOM      9  C   UNL     1       0.300   9.660  20.764  0.00  0.00    +0.000 A 
ATOM     10 CL   UNL     1      -0.773  10.274  21.960  0.00  0.00    +0.000 Cl
ATOM     11  C   UNL     1       0.846   8.386  20.905  0.00  0.00    +0.000 A 
ATOM     12  C   UNL     1       1.710   7.864  19.923  0.00  0.00    +0.000 A 
ENDROOT
BRANCH   4  13
ATOM     13  C   UNL     1       4.382   5.831  16.999  0.00  0.00    +0.000 A 
ATOM     14  C   UNL     1       5.034   6.525  15.969  0.00  0.00    +0.000 A 
ATOM     15  C   UNL     1       5.824   5.839  15.046  0.00  0.00    +0.000 A 
ATOM     16  C   UNL     1       5.965   4.455  15.142  0.00  0.00    +0.000 A 
ATOM     17  C   UNL     1       5.315   3.755  16.157  0.00  0.00    +0.000 A 
ATOM     18  C   UNL     1       4.523   4.439  17.083  0.00  0.00    +0.000 A 
ENDBRANCH   4  13
BRANCH   1  19
ATOM     19  C   UNL     1       2.272   4.421  21.328  0.00  0.00    +0.000 C 
BRANCH  19  20
ATOM     20  C   UNL     1       1.221   3.459  20.781  0.00  0.00    +0.000 C 
BRANCH  20  21
ATOM     21  C   UNL     1       1.856   2.179  20.212  0.00  0.00    +0.000 C 
BRANCH  21  23
ATOM     22  C   UNL     1       4.292   2.132  20.200  0.00  0.00    +0.000 C 
ATOM     23  N   UNL     1       3.081   2.403  19.423  0.00  0.00    +0.000 NA
ATOM     24  C   UNL     1       3.069   1.571  18.217  0.00  0.00    +0.000 C 
ENDBRANCH  21  23
ENDBRANCH  20  21
ENDBRANCH  19  20
ENDBRANCH   1  19
TORSDOF 5
ENDMDL
MODEL 6
REMARK VINA RESULT:      -6.8      4.674      7.933
REMARK  Name = 
REMARK  7 active torsions:
REMARK  status: ('A' for Active; 'I' for Inactive)
REMARK    1  A    between atoms: C_1  and  N_2
REMARK    2  A    between atoms: N_2  and  C_3
REMARK    3  A    between atoms: N_2  and  C_4
REMARK    4  A    between atoms: C_4  and  C_5
REMARK    5  A    between atoms: C_5  and  C_6
REMARK    6  A    between atoms: C_6  and  N_7
REMARK    7  A    between atoms: C_10  and  C_11
REMARK                            x       y       z     vdW  Elec       q    Type
REMARK                         _______ _______ _______ _____ _____    ______ ____
ROOT
ATOM      1  N   UNL     1       7.568   6.725  16.898  0.00  0.00    +0.000 NA
ATOM      2  C   UNL     1       6.632   5.833  16.840  0.00  0.00    +0.000 A 
ATOM      3  C   UNL     1       5.717   5.502  17.969  0.00  0.00    +0.000 A 
ATOM      4  C   UNL     1       4.725   4.608  17.941  0.00  0.00    +0.000 A 
ATOM      5  S   UNL     1       4.287   3.615  16.619  0.00  0.00    +0.000 S 
ATOM      6  C   UNL     1       5.423   4.150  15.366  0.00  0.00    +0.000 A 
ATOM      7  C   UNL     1       5.264   3.551  14.103  0.00  0.00    +0.000 A 
ATOM      8  C   UNL     1       6.097   3.886  13.036  0.00  0.00    +0.000 A 
ATOM      9  C   UNL     1       7.111   4.815  13.227  0.00  0.00    +0.000 A 
ATOM     10 CL   UNL     1       8.143   5.229  11.915  0.00  0.00    +0.000 Cl
ATOM     11  C   UNL     1       7.287   5.419  14.471  0.00  0.00    +0.000 A 
ATOM     12  C   UNL     1       6.435   5.102  15.547  0.00  0.00    +0.000 A 
ENDROOT
BRANCH   4  13
ATOM     13  C   UNL     1       3.897   4.451  19.146  0.00  0.00    +0.000 A 
ATOM     14  C   UNL     1       3.812   3.204  19.783  0.00  0.00    +0.000 A 
ATOM     15  C   UNL     1       3.003   3.040  20.908  0.00  0.00    +0.000 A 
ATOM     16  C   UNL     1       2.271   4.118  21.403  0.00  0.00    +0.000 A 
ATOM     17  C   UNL     1       2.343   5.360  20.773  0.00  0.00    +0.000 A 
ATOM     18  C   UNL     1       3.152   5.527  19.646  0.00  0.00    +0.000 A 
ENDBRANCH   4  13
BRANCH   1  19
ATOM     19  C   UNL     1       7.773   7.474  18.140  0.00  0.00    +0.000 C 
BRANCH  19  20
ATOM     20  C   UNL     1       7.946   8.956  17.819  0.00  0.00    +0.000 C 
BRANCH  20  21
ATOM     21  C   UNL     1       8.852   9.663  18.841  0.00  0.00    +0.000 C 
BRANCH  21  23
ATOM     22  C   UNL     1       8.766  11.908  17.900  0.00  0.00    +0.000 C 
ATOM     23  N   UNL     1       9.626  10.791  18.294  0.00  0.00    +0.000 NA
ATOM     24  C   UNL     1      10.617  11.249  19.271  0.00  0.00    +0.000 C 
ENDBRANCH  21  23
ENDBRANCH  20  21
ENDBRANCH  19  20
ENDBRANCH   1  19
TORSDOF 5
ENDMDL
MODEL 7
REMARK VINA RESULT:      -6.6      3.036      6.739
REMARK  Name = 
REMARK  7 active torsions:
REMARK  status: ('A' for Active; 'I' for Inactive)
REMARK    1  A    between atoms: C_1  and  N_2
REMARK    2  A    between atoms: N_2  and  C_3
REMARK    3  A    between atoms: N_2  and  C_4
REMARK    4  A    between atoms: C_4  and  C_5
REMARK    5  A    between atoms: C_5  and  C_6
REMARK    6  A    between atoms: C_6  and  N_7
REMARK    7  A    between atoms: C_10  and  C_11
REMARK                            x       y       z     vdW  Elec       q    Type
REMARK                         _______ _______ _______ _____ _____    ______ ____
ROOT
ATOM      1  N   UNL     1       4.837   5.664  17.692  0.00  0.00    +0.000 NA
ATOM      2  C   UNL     1       3.906   5.864  18.569  0.00  0.00    +0.000 A 
ATOM      3  C   UNL     1       3.120   7.125  18.687  0.00  0.00    +0.000 A 
ATOM      4  C   UNL     1       2.138   7.360  19.560  0.00  0.00    +0.000 A 
ATOM      5  S   UNL     1       1.567   6.287  20.763  0.00  0.00    +0.000 S 
ATOM      6  C   UNL     1       2.558   4.845  20.470  0.00  0.00    +0.000 A 
ATOM      7  C   UNL     1       2.268   3.731  21.278  0.00  0.00    +0.000 A 
ATOM      8  C   UNL     1       2.979   2.539  21.145  0.00  0.00    +0.000 A 
ATOM      9  C   UNL     1       4.001   2.455  20.209  0.00  0.00    +0.000 A 
ATOM     10 CL   UNL     1       4.883   0.988  20.042  0.00  0.00    +0.000 Cl
ATOM     11  C   UNL     1       4.305   3.547  19.399  0.00  0.00    +0.000 A 
ATOM     12  C   UNL     1       3.577   4.747  19.513  0.00  0.00    +0.000 A 
ENDROOT
BRANCH   4  13
ATOM     13  C   UNL     1       1.445   8.656  19.495  0.00  0.00    +0.000 A 
ATOM     14  C   UNL     1       1.486   9.416  18.316  0.00  0.00    +0.000 A 
ATOM     15  C   UNL     1       0.857  10.661  18.258  0.00  0.00    +0.000 A 
ATOM     16  C   UNL     1       0.188  11.157  19.375  0.00  0.00    +0.000 A 
ATOM     17  C   UNL     1       0.149  10.413  20.554  0.00  0.00    +0.000 A 
ATOM     18  C   UNL     1       0.777   9.166  20.616  0.00  0.00    +0.000 A 
ENDBRANCH   4  13
BRANCH   1  19
ATOM     19  C   UNL     1       5.169   6.728  16.740  0.00  0.00    +0.000 C 
BRANCH  19  20
ATOM     20  C   UNL     1       5.305   6.134  15.341  0.00  0.00    +0.000 C 
BRANCH  20  21
ATOM     21  C   UNL     1       5.357   4.597  15.372  0.00  0.00    +0.000 C 
BRANCH  21  23
ATOM     22  C   UNL     1       5.682   3.625  13.162  0.00  0.00    +0.000 C 
ATOM     23  N   UNL     1       6.317   3.998  14.428  0.00  0.00    +0.000 NA
ATOM     24  C   UNL     1       7.425   4.922  14.174  0.00  0.00    +0.000 C 
ENDBRANCH  21  23
ENDBRANCH  20  21
ENDBRANCH  19  20
ENDBRANCH   1  19
TORSDOF 5
ENDMDL
MODEL 8
REMARK VINA RESULT:      -6.6      4.632      7.892
REMARK  Name = 
REMARK  7 active torsions:
REMARK  status: ('A' for Active; 'I' for Inactive)
REMARK    1  A    between atoms: C_1  and  N_2
REMARK    2  A    between atoms: N_2  and  C_3
REMARK    3  A    between atoms: N_2  and  C_4
REMARK    4  A    between atoms: C_4  and  C_5
REMARK    5  A    between atoms: C_5  and  C_6
REMARK    6  A    between atoms: C_6  and  N_7
REMARK    7  A    between atoms: C_10  and  C_11
REMARK                            x       y       z     vdW  Elec       q    Type
REMARK                         _______ _______ _______ _____ _____    ______ ____
ROOT
ATOM      1  N   UNL     1       7.348   6.846  16.900  0.00  0.00    +0.000 NA
ATOM      2  C   UNL     1       6.466   5.900  16.834  0.00  0.00    +0.000 A 
ATOM      3  C   UNL     1       5.541   5.536  17.944  0.00  0.00    +0.000 A 
ATOM      4  C   UNL     1       4.603   4.586  17.907  0.00  0.00    +0.000 A 
ATOM      5  S   UNL     1       4.259   3.548  16.592  0.00  0.00    +0.000 S 
ATOM      6  C   UNL     1       5.396   4.126  15.360  0.00  0.00    +0.000 A 
ATOM      7  C   UNL     1       5.306   3.498  14.105  0.00  0.00    +0.000 A 
ATOM      8  C   UNL     1       6.147   3.862  13.054  0.00  0.00    +0.000 A 
ATOM      9  C   UNL     1       7.101   4.851  13.255  0.00  0.00    +0.000 A 
ATOM     10 CL   UNL     1       8.143   5.303  11.962  0.00  0.00    +0.000 Cl
ATOM     11  C   UNL     1       7.207   5.485  14.491  0.00  0.00    +0.000 A 
ATOM     12  C   UNL     1       6.347   5.138  15.550  0.00  0.00    +0.000 A 
ENDROOT
BRANCH   4  13
ATOM     13  C   UNL     1       3.753   4.401  19.093  0.00  0.00    +0.000 A 
ATOM     14  C   UNL     1       3.019   5.480  19.607  0.00  0.00    +0.000 A 
ATOM     15  C   UNL     1       2.235   5.320  20.750  0.00  0.00    +0.000 A 
ATOM     16  C   UNL     1       2.182   4.083  21.391  0.00  0.00    +0.000 A 
ATOM     17  C   UNL     1       2.914   3.006  20.892  0.00  0.00    +0.000 A 
ATOM     18  C   UNL     1       3.700   3.163  19.748  0.00  0.00    +0.000 A 
ENDBRANCH   4  13
BRANCH   1  19
ATOM     19  C   UNL     1       7.476   7.626  18.134  0.00  0.00    +0.000 C 
BRANCH  19  20
ATOM     20  C   UNL     1       8.079   8.991  17.813  0.00  0.00    +0.000 C 
BRANCH  20  21
ATOM     21  C   UNL     1       9.023   9.477  18.926  0.00  0.00    +0.000 C 
BRANCH  21  23
ATOM     22  C   UNL     1       9.668  11.380  20.303  0.00  0.00    +0.000 C 
ATOM     23  N   UNL     1       9.189  10.940  18.991  0.00  0.00    +0.000 NA
ATOM     24  C   UNL     1      10.110  11.395  17.948  0.00  0.00    +0.000 C 
ENDBRANCH  21  23
ENDBRANCH  20  21
ENDBRANCH  19  20
ENDBRANCH   1  19
TORSDOF 5
ENDMDL
MODEL 9
REMARK VINA RESULT:      -6.5      3.089      6.756
REMARK  Name = 
REMARK  7 active torsions:
REMARK  status: ('A' for Active; 'I' for Inactive)
REMARK    1  A    between atoms: C_1  and  N_2
REMARK    2  A    between atoms: N_2  and  C_3
REMARK    3  A    between atoms: N_2  and  C_4
REMARK    4  A    between atoms: C_4  and  C_5
REMARK    5  A    between atoms: C_5  and  C_6
REMARK    6  A    between atoms: C_6  and  N_7
REMARK    7  A    between atoms: C_10  and  C_11
REMARK                            x       y       z     vdW  Elec       q    Type
REMARK                         _______ _______ _______ _____ _____    ______ ____
ROOT
ATOM      1  N   UNL     1       4.369   5.647  17.478  0.00  0.00    +0.000 NA
ATOM      2  C   UNL     1       3.564   5.889  18.462  0.00  0.00    +0.000 A 
ATOM      3  C   UNL     1       2.827   7.171  18.647  0.00  0.00    +0.000 A 
ATOM      4  C   UNL     1       1.970   7.450  19.632  0.00  0.00    +0.000 A 
ATOM      5  S   UNL     1       1.536   6.419  20.926  0.00  0.00    +0.000 S 
ATOM      6  C   UNL     1       2.451   4.947  20.545  0.00  0.00    +0.000 A 
ATOM      7  C   UNL     1       2.244   3.860  21.412  0.00  0.00    +0.000 A 
ATOM      8  C   UNL     1       2.906   2.648  21.220  0.00  0.00    +0.000 A 
ATOM      9  C   UNL     1       3.797   2.518  20.163  0.00  0.00    +0.000 A 
ATOM     10 CL   UNL     1       4.619   1.025  19.923  0.00  0.00    +0.000 Cl
ATOM     11  C   UNL     1       4.017   3.583  19.293  0.00  0.00    +0.000 A 
ATOM     12  C   UNL     1       3.335   4.803  19.468  0.00  0.00    +0.000 A 
ENDROOT
BRANCH   4  13
ATOM     13  C   UNL     1       1.302   8.761  19.622  0.00  0.00    +0.000 A 
ATOM     14  C   UNL     1       0.637   9.219  20.769  0.00  0.00    +0.000 A 
ATOM     15  C   UNL     1      -0.026  10.447  20.756  0.00  0.00    +0.000 A 
ATOM     16  C   UNL     1      -0.032  11.225  19.599  0.00  0.00    +0.000 A 
ATOM     17  C   UNL     1       0.621  10.774  18.452  0.00  0.00    +0.000 A 
ATOM     18  C   UNL     1       1.285   9.545  18.461  0.00  0.00    +0.000 A 
ENDBRANCH   4  13
BRANCH   1  19
ATOM     19  C   UNL     1       4.599   6.679  16.464  0.00  0.00    +0.000 C 
BRANCH  19  20
ATOM     20  C   UNL     1       6.050   6.619  15.995  0.00  0.00    +0.000 C 
BRANCH  20  21
ATOM     21  C   UNL     1       6.879   5.621  16.822  0.00  0.00    +0.000 C 
BRANCH  21  23
ATOM     22  C   UNL     1       7.764   7.707  17.716  0.00  0.00    +0.000 C 
ATOM     23  N   UNL     1       7.827   6.245  17.762  0.00  0.00    +0.000 NA
ATOM     24  C   UNL     1       7.570   5.780  19.127  0.00  0.00    +0.000 C 
ENDBRANCH  21  23
ENDBRANCH  20  21
ENDBRANCH  19  20
ENDBRANCH   1  19
TORSDOF 5
ENDMDL
