MODEL 1
REMARK VINA RESULT:      -9.3      0.000      0.000
REMARK  Name = 
REMARK  5 active torsions:
REMARK  status: ('A' for Active; 'I' for Inactive)
REMARK    1  A    between atoms: C_1  and  N_2
REMARK    2  A    between atoms: C_4  and  C_5
REMARK    3  A    between atoms: C_5  and  C_7
REMARK    4  A    between atoms: C_9  and  C_10
REMARK    5  A    between atoms: N_12  and  C_13
REMARK                            x       y       z     vdW  Elec       q    Type
REMARK                         _______ _______ _______ _____ _____    ______ ____
ROOT
ATOM      1  C   UNL     1       1.801   9.463  18.782  0.00  0.00    +0.000 A 
ATOM      2  N   UNL     1       2.550   8.685  18.026  0.00  0.00    +0.000 NA
ATOM      3  C   UNL     1       2.505   7.487  18.695  0.00  0.00    +0.000 A 
ATOM      4  N   UNL     1       1.838   7.526  19.854  0.00  0.00    +0.000 NA
ATOM      5  O   UNL     1       1.374   8.836  19.921  0.00  0.00    +0.000 OA
ENDROOT
BRANCH   3   6
ATOM      6  C   UNL     1       3.089   6.283  18.099  0.00  0.00    +0.000 A 
ATOM      7  C   UNL     1       4.206   6.218  17.292  0.00  0.00    +0.000 A 
ATOM      8  N   UNL     1       4.395   4.910  16.933  0.00  0.00    +0.000 N 
ATOM      9  C   UNL     1       5.468   4.428  16.089  0.00  0.00    +0.000 C 
ATOM     10  C   UNL     1       3.411   4.116  17.486  0.00  0.00    +0.000 A 
ATOM     11  C   UNL     1       3.191   2.728  17.396  0.00  0.00    +0.000 A 
ATOM     12  C   UNL     1       2.091   2.193  18.068  0.00  0.00    +0.000 A 
ATOM     13  C   UNL     1       1.247   3.012  18.798  0.00  0.00    +0.000 A 
ATOM     14  F   UNL     1       0.195   2.475  19.431  0.00  0.00    +0.000 F 
ATOM     15  C   UNL     1       1.465   4.386  18.893  0.00  0.00    +0.000 A 
ATOM     16  C   UNL     1       2.571   4.958  18.226  0.00  0.00    +0.000 A 
ENDBRANCH   3   6
BRANCH   1  17
ATOM     17  C   UNL     1       1.387  10.835  18.580  0.00  0.00    +0.000 C 
ATOM     18  O   UNL     1       2.137  11.689  18.106  0.00  0.00    +0.000 OA
BRANCH  17  22
ATOM     19  C   UNL     1      -2.366  12.451  21.386  0.00  0.00    +0.000 C 
ATOM     20  N   UNL     1      -1.665  11.928  20.234  0.00  0.00    +0.000 N 
ATOM     21  C   UNL     1      -0.324  11.689  20.185  0.00  0.00    +0.000 A 
ATOM     22  C   UNL     1       0.004  11.189  18.930  0.00  0.00    +0.000 A 
ATOM     23  C   UNL     1      -1.239  11.079  18.210  0.00  0.00    +0.000 A 
ATOM     24  C   UNL     1      -1.623  10.587  16.939  0.00  0.00    +0.000 A 
ATOM     25  C   UNL     1      -2.953  10.676  16.521  0.00  0.00    +0.000 A 
ATOM     26 BR   UNL     1      -3.419  10.083  14.785  0.00  0.00    +0.000 Br
ATOM     27  C   UNL     1      -3.931  11.197  17.356  0.00  0.00    +0.000 A 
ATOM     28  C   UNL     1      -3.599  11.643  18.636  0.00  0.00    +0.000 A 
ATOM     29  C   UNL     1      -2.254  11.576  19.041  0.00  0.00    +0.000 A 
ENDBRANCH  17  22
ENDBRANCH   1  17
TORSDOF 3
ENDMDL
MODEL 2
REMARK VINA RESULT:      -9.3      1.805      2.454
REMARK  Name = 
REMARK  5 active torsions:
REMARK  status: ('A' for Active; 'I' for Inactive)
REMARK    1  A    between atoms: C_1  and  N_2
REMARK    2  A    between atoms: C_4  and  C_5
REMARK    3  A    between atoms: C_5  and  C_7
REMARK    4  A    between atoms: C_9  and  C_10
REMARK    5  A    between atoms: N_12  and  C_13
REMARK                            x       y       z     vdW  Elec       q    Type
REMARK                         _______ _______ _______ _____ _____    ______ ____
ROOT
ATOM      1  C   UNL     1       1.148   9.521  19.344  0.00  0.00    +0.000 A 
ATOM      2  N   UNL     1       1.884   8.911  18.436  0.00  0.00    +0.000 NA
ATOM      3  C   UNL     1       2.215   7.735  19.062  0.00  0.00    +0.000 A 
ATOM      4  N   UNL     1       1.786   7.643  20.326  0.00  0.00    +0.000 NA
ATOM      5  O   UNL     1       1.083   8.828  20.521  0.00  0.00    +0.000 OA
ENDROOT
BRANCH   3   6
ATOM      6  C   UNL     1       2.911   6.675  18.330  0.00  0.00    +0.000 A 
ATOM      7  C   UNL     1       4.038   6.815  17.545  0.00  0.00    +0.000 A 
ATOM      8  N   UNL     1       4.347   5.586  17.025  0.00  0.00    +0.000 N 
ATOM      9  C   UNL     1       5.468   5.315  16.150  0.00  0.00    +0.000 C 
ATOM     10  C   UNL     1       3.434   4.643  17.450  0.00  0.00    +0.000 A 
ATOM     11  C   UNL     1       3.341   3.265  17.177  0.00  0.00    +0.000 A 
ATOM     12  C   UNL     1       2.287   2.552  17.751  0.00  0.00    +0.000 A 
ATOM     13  C   UNL     1       1.365   3.192  18.562  0.00  0.00    +0.000 A 
ATOM     14  F   UNL     1       0.359   2.486  19.097  0.00  0.00    +0.000 F 
ATOM     15  C   UNL     1       1.457   4.555  18.837  0.00  0.00    +0.000 A 
ATOM     16  C   UNL     1       2.514   5.304  18.274  0.00  0.00    +0.000 A 
ENDBRANCH   3   6
BRANCH   1  17
ATOM     17  C   UNL     1       0.429  10.774  19.267  0.00  0.00    +0.000 C 
ATOM     18  O   UNL     1       0.899  11.833  19.686  0.00  0.00    +0.000 OA
BRANCH  17  22
ATOM     19  C   UNL     1      -3.022   9.699  15.874  0.00  0.00    +0.000 C 
ATOM     20  N   UNL     1      -2.426  10.252  17.070  0.00  0.00    +0.000 N 
ATOM     21  C   UNL     1      -1.120  10.098  17.429  0.00  0.00    +0.000 A 
ATOM     22  C   UNL     1      -0.896  10.763  18.629  0.00  0.00    +0.000 A 
ATOM     23  C   UNL     1      -2.145  11.393  18.972  0.00  0.00    +0.000 A 
ATOM     24  C   UNL     1      -2.582  12.259  20.004  0.00  0.00    +0.000 A 
ATOM     25  C   UNL     1      -3.919  12.658  20.068  0.00  0.00    +0.000 A 
ATOM     26 BR   UNL     1      -4.490  13.752  21.504  0.00  0.00    +0.000 Br
ATOM     27  C   UNL     1      -4.832  12.261  19.101  0.00  0.00    +0.000 A 
ATOM     28  C   UNL     1      -4.424  11.451  18.041  0.00  0.00    +0.000 A 
ATOM     29  C   UNL     1      -3.084  11.030  17.996  0.00  0.00    +0.000 A 
ENDBRANCH  17  22
ENDBRANCH   1  17
TORSDOF 3
ENDMDL
MODEL 3
REMARK VINA RESULT:      -9.1      1.775      2.627
REMARK  Name = 
REMARK  5 active torsions:
REMARK  status: ('A' for Active; 'I' for Inactive)
REMARK    1  A    between atoms: C_1  and  N_2
REMARK    2  A    between atoms: C_4  and  C_5
REMARK    3  A    between atoms: C_5  and  C_7
REMARK    4  A    between atoms: C_9  and  C_10
REMARK    5  A    between atoms: N_12  and  C_13
REMARK                            x       y       z     vdW  Elec       q    Type
REMARK                         _______ _______ _______ _____ _____    ______ ____
ROOT
ATOM      1  C   UNL     1       1.762   9.281  18.873  0.00  0.00    +0.000 A 
ATOM      2  N   UNL     1       2.374   8.407  18.098  0.00  0.00    +0.000 NA
ATOM      3  C   UNL     1       2.363   7.269  18.866  0.00  0.00    +0.000 A 
ATOM      4  N   UNL     1       1.852   7.435  20.091  0.00  0.00    +0.000 NA
ATOM      5  O   UNL     1       1.457   8.769  20.104  0.00  0.00    +0.000 OA
ENDROOT
BRANCH   3   6
ATOM      6  C   UNL     1       2.813   5.994  18.306  0.00  0.00    +0.000 A 
ATOM      7  C   UNL     1       2.107   4.809  18.273  0.00  0.00    +0.000 A 
ATOM      8  N   UNL     1       2.899   3.859  17.686  0.00  0.00    +0.000 N 
ATOM      9  C   UNL     1       2.515   2.480  17.464  0.00  0.00    +0.000 C 
ATOM     10  C   UNL     1       4.120   4.401  17.339  0.00  0.00    +0.000 A 
ATOM     11  C   UNL     1       5.243   3.817  16.723  0.00  0.00    +0.000 A 
ATOM     12  C   UNL     1       6.361   4.623  16.499  0.00  0.00    +0.000 A 
ATOM     13  C   UNL     1       6.355   5.955  16.878  0.00  0.00    +0.000 A 
ATOM     14  F   UNL     1       7.442   6.706  16.657  0.00  0.00    +0.000 F 
ATOM     15  C   UNL     1       5.242   6.536  17.484  0.00  0.00    +0.000 A 
ATOM     16  C   UNL     1       4.094   5.749  17.722  0.00  0.00    +0.000 A 
ENDBRANCH   3   6
BRANCH   1  17
ATOM     17  C   UNL     1       1.385  10.653  18.608  0.00  0.00    +0.000 C 
ATOM     18  O   UNL     1       2.151  11.459  18.079  0.00  0.00    +0.000 OA
BRANCH  17  22
ATOM     19  C   UNL     1      -2.291  12.412  21.430  0.00  0.00    +0.000 C 
ATOM     20  N   UNL     1      -1.615  11.868  20.274  0.00  0.00    +0.000 N 
ATOM     21  C   UNL     1      -0.285  11.570  20.221  0.00  0.00    +0.000 A 
ATOM     22  C   UNL     1       0.019  11.066  18.962  0.00  0.00    +0.000 A 
ATOM     23  C   UNL     1      -1.228  11.018  18.242  0.00  0.00    +0.000 A 
ATOM     24  C   UNL     1      -1.634  10.555  16.968  0.00  0.00    +0.000 A 
ATOM     25  C   UNL     1      -2.959  10.707  16.552  0.00  0.00    +0.000 A 
ATOM     26 BR   UNL     1      -3.452  10.150  14.811  0.00  0.00    +0.000 Br
ATOM     27  C   UNL     1      -3.912  11.264  17.392  0.00  0.00    +0.000 A 
ATOM     28  C   UNL     1      -3.560  11.684  18.675  0.00  0.00    +0.000 A 
ATOM     29  C   UNL     1      -2.219  11.553  19.078  0.00  0.00    +0.000 A 
ENDBRANCH  17  22
ENDBRANCH   1  17
TORSDOF 3
ENDMDL
MODEL 4
REMARK VINA RESULT:      -9.1      6.937     10.280
REMARK  Name = 
REMARK  5 active torsions:
REMARK  status: ('A' for Active; 'I' for Inactive)
REMARK    1  A    between atoms: C_1  and  N_2
REMARK    2  A    between atoms: C_4  and  C_5
REMARK    3  A    between atoms: C_5  and  C_7
REMARK    4  A    between atoms: C_9  and  C_10
REMARK    5  A    between atoms: N_12  and  C_13
REMARK                            x       y       z     vdW  Elec       q    Type
REMARK                         _______ _______ _______ _____ _____    ______ ____
ROOT
ATOM      1  C   UNL     1       8.141   7.373  18.533  0.00  0.00    +0.000 A 
ATOM      2  N   UNL     1       8.856   8.169  19.303  0.00  0.00    +0.000 NA
ATOM      3  C   UNL     1       8.685   9.394  18.707  0.00  0.00    +0.000 A 
ATOM      4  N   UNL     1       7.974   9.361  17.573  0.00  0.00    +0.000 NA
ATOM      5  O   UNL     1       7.616   8.022  17.449  0.00  0.00    +0.000 OA
ENDROOT
BRANCH   3   6
ATOM      6  C   UNL     1       9.193  10.608  19.347  0.00  0.00    +0.000 A 
ATOM      7  C   UNL     1       8.979  11.008  20.651  0.00  0.00    +0.000 A 
ATOM      8  N   UNL     1       9.610  12.209  20.835  0.00  0.00    +0.000 N 
ATOM      9  C   UNL     1       9.623  12.958  22.075  0.00  0.00    +0.000 C 
ATOM     10  C   UNL     1      10.230  12.608  19.669  0.00  0.00    +0.000 A 
ATOM     11  C   UNL     1      10.987  13.759  19.377  0.00  0.00    +0.000 A 
ATOM     12  C   UNL     1      11.493  13.901  18.083  0.00  0.00    +0.000 A 
ATOM     13  C   UNL     1      11.250  12.933  17.123  0.00  0.00    +0.000 A 
ATOM     14  F   UNL     1      11.742  13.095  15.888  0.00  0.00    +0.000 F 
ATOM     15  C   UNL     1      10.505  11.791  17.411  0.00  0.00    +0.000 A 
ATOM     16  C   UNL     1       9.981  11.616  18.711  0.00  0.00    +0.000 A 
ENDBRANCH   3   6
BRANCH   1  17
ATOM     17  C   UNL     1       7.849   5.963  18.673  0.00  0.00    +0.000 C 
ATOM     18  O   UNL     1       8.430   5.244  19.488  0.00  0.00    +0.000 OA
BRANCH  17  22
ATOM     19  C   UNL     1       5.744   4.128  14.577  0.00  0.00    +0.000 C 
ATOM     20  N   UNL     1       5.878   4.572  15.947  0.00  0.00    +0.000 N 
ATOM     21  C   UNL     1       7.024   5.071  16.492  0.00  0.00    +0.000 A 
ATOM     22  C   UNL     1       6.791   5.398  17.822  0.00  0.00    +0.000 A 
ATOM     23  C   UNL     1       5.398   5.118  18.061  0.00  0.00    +0.000 A 
ATOM     24  C   UNL     1       4.513   5.286  19.153  0.00  0.00    +0.000 A 
ATOM     25  C   UNL     1       3.189   4.851  19.061  0.00  0.00    +0.000 A 
ATOM     26 BR   UNL     1       2.053   5.017  20.566  0.00  0.00    +0.000 Br
ATOM     27  C   UNL     1       2.700   4.295  17.888  0.00  0.00    +0.000 A 
ATOM     28  C   UNL     1       3.528   4.162  16.773  0.00  0.00    +0.000 A 
ATOM     29  C   UNL     1       4.867   4.577  16.880  0.00  0.00    +0.000 A 
ENDBRANCH  17  22
ENDBRANCH   1  17
TORSDOF 3
ENDMDL
MODEL 5
REMARK VINA RESULT:      -9.1      1.107      1.167
REMARK  Name = 
REMARK  5 active torsions:
REMARK  status: ('A' for Active; 'I' for Inactive)
REMARK    1  A    between atoms: C_1  and  N_2
REMARK    2  A    between atoms: C_4  and  C_5
REMARK    3  A    between atoms: C_5  and  C_7
REMARK    4  A    between atoms: C_9  and  C_10
REMARK    5  A    between atoms: N_12  and  C_13
REMARK                            x       y       z     vdW  Elec       q    Type
REMARK                         _______ _______ _______ _____ _____    ______ ____
ROOT
ATOM      1  C   UNL     1       1.126   9.835  19.471  0.00  0.00    +0.000 A 
ATOM      2  N   UNL     1       1.921   9.044  18.778  0.00  0.00    +0.000 NA
ATOM      3  C   UNL     1       1.860   7.868  19.483  0.00  0.00    +0.000 A 
ATOM      4  N   UNL     1       1.138   7.935  20.607  0.00  0.00    +0.000 NA
ATOM      5  O   UNL     1       0.654   9.239  20.609  0.00  0.00    +0.000 OA
ENDROOT
BRANCH   3   6
ATOM      6  C   UNL     1       2.488   6.654  18.956  0.00  0.00    +0.000 A 
ATOM      7  C   UNL     1       3.375   6.573  17.902  0.00  0.00    +0.000 A 
ATOM      8  N   UNL     1       3.700   5.254  17.723  0.00  0.00    +0.000 N 
ATOM      9  C   UNL     1       4.609   4.754  16.713  0.00  0.00    +0.000 C 
ATOM     10  C   UNL     1       3.031   4.468  18.639  0.00  0.00    +0.000 A 
ATOM     11  C   UNL     1       3.044   3.074  18.836  0.00  0.00    +0.000 A 
ATOM     12  C   UNL     1       2.247   2.548  19.854  0.00  0.00    +0.000 A 
ATOM     13  C   UNL     1       1.469   3.382  20.640  0.00  0.00    +0.000 A 
ATOM     14  F   UNL     1       0.708   2.852  21.607  0.00  0.00    +0.000 F 
ATOM     15  C   UNL     1       1.459   4.763  20.449  0.00  0.00    +0.000 A 
ATOM     16  C   UNL     1       2.256   5.327  19.429  0.00  0.00    +0.000 A 
ENDBRANCH   3   6
BRANCH   1  17
ATOM     17  C   UNL     1       0.704  11.193  19.203  0.00  0.00    +0.000 C 
ATOM     18  O   UNL     1       1.498  12.085  18.904  0.00  0.00    +0.000 OA
BRANCH  17  22
ATOM     19  C   UNL     1      -3.590  12.720  21.154  0.00  0.00    +0.000 C 
ATOM     20  N   UNL     1      -2.657  12.186  20.186  0.00  0.00    +0.000 N 
ATOM     21  C   UNL     1      -1.322  12.021  20.405  0.00  0.00    +0.000 A 
ATOM     22  C   UNL     1      -0.736  11.484  19.265  0.00  0.00    +0.000 A 
ATOM     23  C   UNL     1      -1.811  11.273  18.329  0.00  0.00    +0.000 A 
ATOM     24  C   UNL     1      -1.920  10.705  17.037  0.00  0.00    +0.000 A 
ATOM     25  C   UNL     1      -3.147  10.701  16.370  0.00  0.00    +0.000 A 
ATOM     26 BR   UNL     1      -3.243  10.006  14.612  0.00  0.00    +0.000 Br
ATOM     27  C   UNL     1      -4.291  11.203  16.975  0.00  0.00    +0.000 A 
ATOM     28  C   UNL     1      -4.232  11.723  18.269  0.00  0.00    +0.000 A 
ATOM     29  C   UNL     1      -2.989  11.749  18.924  0.00  0.00    +0.000 A 
ENDBRANCH  17  22
ENDBRANCH   1  17
TORSDOF 3
ENDMDL
MODEL 6
REMARK VINA RESULT:      -9.1      2.056      2.665
REMARK  Name = 
REMARK  5 active torsions:
REMARK  status: ('A' for Active; 'I' for Inactive)
REMARK    1  A    between atoms: C_1  and  N_2
REMARK    2  A    between atoms: C_4  and  C_5
REMARK    3  A    between atoms: C_5  and  C_7
REMARK    4  A    between atoms: C_9  and  C_10
REMARK    5  A    between atoms: N_12  and  C_13
REMARK                            x       y       z     vdW  Elec       q    Type
REMARK                         _______ _______ _______ _____ _____    ______ ____
ROOT
ATOM      1  C   UNL     1       1.055   9.524  19.600  0.00  0.00    +0.000 A 
ATOM      2  N   UNL     1       1.761   8.721  18.829  0.00  0.00    +0.000 NA
ATOM      3  C   UNL     1       1.946   7.623  19.632  0.00  0.00    +0.000 A 
ATOM      4  N   UNL     1       1.461   7.758  20.871  0.00  0.00    +0.000 NA
ATOM      5  O   UNL     1       0.875   9.020  20.859  0.00  0.00    +0.000 OA
ENDROOT
BRANCH   3   6
ATOM      6  C   UNL     1       2.559   6.407  19.095  0.00  0.00    +0.000 A 
ATOM      7  C   UNL     1       3.410   6.318  18.011  0.00  0.00    +0.000 A 
ATOM      8  N   UNL     1       3.732   4.999  17.833  0.00  0.00    +0.000 N 
ATOM      9  C   UNL     1       4.608   4.492  16.797  0.00  0.00    +0.000 C 
ATOM     10  C   UNL     1       3.098   4.219  18.778  0.00  0.00    +0.000 A 
ATOM     11  C   UNL     1       3.121   2.826  18.987  0.00  0.00    +0.000 A 
ATOM     12  C   UNL     1       2.361   2.308  20.036  0.00  0.00    +0.000 A 
ATOM     13  C   UNL     1       1.608   3.147  20.841  0.00  0.00    +0.000 A 
ATOM     14  F   UNL     1       0.883   2.624  21.839  0.00  0.00    +0.000 F 
ATOM     15  C   UNL     1       1.588   4.526  20.639  0.00  0.00    +0.000 A 
ATOM     16  C   UNL     1       2.348   5.083  19.587  0.00  0.00    +0.000 A 
ENDBRANCH   3   6
BRANCH   1  17
ATOM     17  C   UNL     1       0.471  10.815  19.308  0.00  0.00    +0.000 C 
ATOM     18  O   UNL     1       1.069  11.873  19.512  0.00  0.00    +0.000 OA
BRANCH  17  22
ATOM     19  C   UNL     1      -3.109   9.851  16.018  0.00  0.00    +0.000 C 
ATOM     20  N   UNL     1      -2.464  10.376  17.201  0.00  0.00    +0.000 N 
ATOM     21  C   UNL     1      -1.150  10.194  17.514  0.00  0.00    +0.000 A 
ATOM     22  C   UNL     1      -0.874  10.837  18.715  0.00  0.00    +0.000 A 
ATOM     23  C   UNL     1      -2.100  11.484  19.109  0.00  0.00    +0.000 A 
ATOM     24  C   UNL     1      -2.487  12.341  20.167  0.00  0.00    +0.000 A 
ATOM     25  C   UNL     1      -3.813  12.763  20.282  0.00  0.00    +0.000 A 
ATOM     26 BR   UNL     1      -4.316  13.845  21.752  0.00  0.00    +0.000 Br
ATOM     27  C   UNL     1      -4.764  12.397  19.340  0.00  0.00    +0.000 A 
ATOM     28  C   UNL     1      -4.407  11.595  18.255  0.00  0.00    +0.000 A 
ATOM     29  C   UNL     1      -3.077  11.151  18.159  0.00  0.00    +0.000 A 
ENDBRANCH  17  22
ENDBRANCH   1  17
TORSDOF 3
ENDMDL
MODEL 7
REMARK VINA RESULT:      -9.1      1.856      2.542
REMARK  Name = 
REMARK  5 active torsions:
REMARK  status: ('A' for Active; 'I' for Inactive)
REMARK    1  A    between atoms: C_1  and  N_2
REMARK    2  A    between atoms: C_4  and  C_5
REMARK    3  A    between atoms: C_5  and  C_7
REMARK    4  A    between atoms: C_9  and  C_10
REMARK    5  A    between atoms: N_12  and  C_13
REMARK                            x       y       z     vdW  Elec       q    Type
REMARK                         _______ _______ _______ _____ _____    ______ ____
ROOT
ATOM      1  C   UNL     1       1.229   9.689  19.591  0.00  0.00    +0.000 A 
ATOM      2  N   UNL     1       1.774   8.646  18.995  0.00  0.00    +0.000 NA
ATOM      3  C   UNL     1       1.838   7.723  20.009  0.00  0.00    +0.000 A 
ATOM      4  N   UNL     1       1.438   8.182  21.201  0.00  0.00    +0.000 NA
ATOM      5  O   UNL     1       1.039   9.488  20.931  0.00  0.00    +0.000 OA
ENDROOT
BRANCH   3   6
ATOM      6  C   UNL     1       2.243   6.344  19.731  0.00  0.00    +0.000 A 
ATOM      7  C   UNL     1       1.873   5.215  20.433  0.00  0.00    +0.000 A 
ATOM      8  N   UNL     1       2.490   4.136  19.858  0.00  0.00    +0.000 N 
ATOM      9  C   UNL     1       2.353   2.766  20.305  0.00  0.00    +0.000 C 
ATOM     10  C   UNL     1       3.269   4.542  18.793  0.00  0.00    +0.000 A 
ATOM     11  C   UNL     1       4.081   3.802  17.912  0.00  0.00    +0.000 A 
ATOM     12  C   UNL     1       4.770   4.495  16.916  0.00  0.00    +0.000 A 
ATOM     13  C   UNL     1       4.652   5.871  16.806  0.00  0.00    +0.000 A 
ATOM     14  F   UNL     1       5.328   6.513  15.844  0.00  0.00    +0.000 F 
ATOM     15  C   UNL     1       3.845   6.605  17.674  0.00  0.00    +0.000 A 
ATOM     16  C   UNL     1       3.133   5.933  18.692  0.00  0.00    +0.000 A 
ENDBRANCH   3   6
BRANCH   1  17
ATOM     17  C   UNL     1       0.822  10.964  19.043  0.00  0.00    +0.000 C 
ATOM     18  O   UNL     1       1.607  11.716  18.463  0.00  0.00    +0.000 OA
BRANCH  17  22
ATOM     19  C   UNL     1      -3.289  12.735  21.174  0.00  0.00    +0.000 C 
ATOM     20  N   UNL     1      -2.430  12.150  20.167  0.00  0.00    +0.000 N 
ATOM     21  C   UNL     1      -1.099  11.906  20.330  0.00  0.00    +0.000 A 
ATOM     22  C   UNL     1      -0.594  11.339  19.165  0.00  0.00    +0.000 A 
ATOM     23  C   UNL     1      -1.718  11.194  18.275  0.00  0.00    +0.000 A 
ATOM     24  C   UNL     1      -1.915  10.637  16.989  0.00  0.00    +0.000 A 
ATOM     25  C   UNL     1      -3.167  10.706  16.375  0.00  0.00    +0.000 A 
ATOM     26 BR   UNL     1      -3.377  10.023  14.622  0.00  0.00    +0.000 Br
ATOM     27  C   UNL     1      -4.253  11.273  17.028  0.00  0.00    +0.000 A 
ATOM     28  C   UNL     1      -4.109  11.785  18.318  0.00  0.00    +0.000 A 
ATOM     29  C   UNL     1      -2.840  11.737  18.920  0.00  0.00    +0.000 A 
ENDBRANCH  17  22
ENDBRANCH   1  17
TORSDOF 3
ENDMDL
MODEL 8
REMARK VINA RESULT:      -9.0      3.194      8.663
REMARK  Name = 
REMARK  5 active torsions:
REMARK  status: ('A' for Active; 'I' for Inactive)
REMARK    1  A    between atoms: C_1  and  N_2
REMARK    2  A    between atoms: C_4  and  C_5
REMARK    3  A    between atoms: C_5  and  C_7
REMARK    4  A    between atoms: C_9  and  C_10
REMARK    5  A    between atoms: N_12  and  C_13
REMARK                            x       y       z     vdW  Elec       q    Type
REMARK                         _______ _______ _______ _____ _____    ______ ____
ROOT
ATOM      1  C   UNL     1       2.495   7.167  18.505  0.00  0.00    +0.000 A 
ATOM      2  N   UNL     1       1.773   7.849  19.373  0.00  0.00    +0.000 NA
ATOM      3  C   UNL     1       1.595   9.050  18.733  0.00  0.00    +0.000 A 
ATOM      4  N   UNL     1       2.239   9.156  17.566  0.00  0.00    +0.000 NA
ATOM      5  O   UNL     1       2.843   7.911  17.411  0.00  0.00    +0.000 OA
ENDROOT
BRANCH   3   6
ATOM      6  C   UNL     1       0.698  10.062  19.294  0.00  0.00    +0.000 A 
ATOM      7  C   UNL     1       0.905  10.811  20.435  0.00  0.00    +0.000 A 
ATOM      8  N   UNL     1      -0.185  11.620  20.616  0.00  0.00    +0.000 N 
ATOM      9  C   UNL     1      -0.349  12.560  21.705  0.00  0.00    +0.000 C 
ATOM     10  C   UNL     1      -1.110  11.407  19.615  0.00  0.00    +0.000 A 
ATOM     11  C   UNL     1      -2.369  11.994  19.386  0.00  0.00    +0.000 A 
ATOM     12  C   UNL     1      -3.100  11.568  18.276  0.00  0.00    +0.000 A 
ATOM     13  C   UNL     1      -2.593  10.594  17.431  0.00  0.00    +0.000 A 
ATOM     14  F   UNL     1      -3.316  10.199  16.375  0.00  0.00    +0.000 F 
ATOM     15  C   UNL     1      -1.345  10.015  17.653  0.00  0.00    +0.000 A 
ATOM     16  C   UNL     1      -0.579  10.425  18.767  0.00  0.00    +0.000 A 
ENDBRANCH   3   6
BRANCH   1  17
ATOM     17  C   UNL     1       2.950   5.794  18.551  0.00  0.00    +0.000 C 
ATOM     18  O   UNL     1       2.180   4.848  18.721  0.00  0.00    +0.000 OA
BRANCH  17  22
ATOM     19  C   UNL     1       7.771   5.569  19.680  0.00  0.00    +0.000 C 
ATOM     20  N   UNL     1       6.557   5.457  18.903  0.00  0.00    +0.000 N 
ATOM     21  C   UNL     1       5.311   5.769  19.361  0.00  0.00    +0.000 A 
ATOM     22  C   UNL     1       4.384   5.544  18.350  0.00  0.00    +0.000 A 
ATOM     23  C   UNL     1       5.145   5.118  17.202  0.00  0.00    +0.000 A 
ATOM     24  C   UNL     1       4.840   4.804  15.857  0.00  0.00    +0.000 A 
ATOM     25  C   UNL     1       5.844   4.366  14.990  0.00  0.00    +0.000 A 
ATOM     26 BR   UNL     1       5.390   3.876  13.219  0.00  0.00    +0.000 Br
ATOM     27  C   UNL     1       7.164   4.280  15.411  0.00  0.00    +0.000 A 
ATOM     28  C   UNL     1       7.510   4.633  16.716  0.00  0.00    +0.000 A 
ATOM     29  C   UNL     1       6.491   5.046  17.591  0.00  0.00    +0.000 A 
ENDBRANCH  17  22
ENDBRANCH   1  17
TORSDOF 3
ENDMDL
MODEL 9
REMARK VINA RESULT:      -9.0      2.134      2.763
REMARK  Name = 
REMARK  5 active torsions:
REMARK  status: ('A' for Active; 'I' for Inactive)
REMARK    1  A    between atoms: C_1  and  N_2
REMARK    2  A    between atoms: C_4  and  C_5
REMARK    3  A    between atoms: C_5  and  C_7
REMARK    4  A    between atoms: C_9  and  C_10
REMARK    5  A    between atoms: N_12  and  C_13
REMARK                            x       y       z     vdW  Elec       q    Type
REMARK                         _______ _______ _______ _____ _____    ______ ____
ROOT
ATOM      1  C   UNL     1       1.389  10.134  18.798  0.00  0.00    +0.000 A 
ATOM      2  N   UNL     1       1.459   9.056  19.554  0.00  0.00    +0.000 NA
ATOM      3  C   UNL     1       2.044   8.141  18.715  0.00  0.00    +0.000 A 
ATOM      4  N   UNL     1       2.253   8.587  17.471  0.00  0.00    +0.000 NA
ATOM      5  O   UNL     1       1.814   9.907  17.518  0.00  0.00    +0.000 OA
ENDROOT
BRANCH   3   6
ATOM      6  C   UNL     1       2.455   6.829  19.219  0.00  0.00    +0.000 A 
ATOM      7  C   UNL     1       1.876   6.121  20.253  0.00  0.00    +0.000 A 
ATOM      8  N   UNL     1       2.578   4.957  20.416  0.00  0.00    +0.000 N 
ATOM      9  C   UNL     1       2.280   3.940  21.402  0.00  0.00    +0.000 C 
ATOM     10  C   UNL     1       3.616   4.894  19.509  0.00  0.00    +0.000 A 
ATOM     11  C   UNL     1       4.597   3.905  19.302  0.00  0.00    +0.000 A 
ATOM     12  C   UNL     1       5.543   4.119  18.297  0.00  0.00    +0.000 A 
ATOM     13  C   UNL     1       5.509   5.274  17.534  0.00  0.00    +0.000 A 
ATOM     14  F   UNL     1       6.431   5.458  16.580  0.00  0.00    +0.000 F 
ATOM     15  C   UNL     1       4.536   6.252  17.735  0.00  0.00    +0.000 A 
ATOM     16  C   UNL     1       3.563   6.065  18.741  0.00  0.00    +0.000 A 
ENDBRANCH   3   6
BRANCH   1  17
ATOM     17  C   UNL     1       0.941  11.470  19.126  0.00  0.00    +0.000 C 
ATOM     18  O   UNL     1       1.719  12.418  19.247  0.00  0.00    +0.000 OA
BRANCH  17  22
ATOM     19  C   UNL     1      -3.293  12.749  21.364  0.00  0.00    +0.000 C 
ATOM     20  N   UNL     1      -2.397  12.276  20.332  0.00  0.00    +0.000 N 
ATOM     21  C   UNL     1      -1.044  12.177  20.464  0.00  0.00    +0.000 A 
ATOM     22  C   UNL     1      -0.505  11.686  19.282  0.00  0.00    +0.000 A 
ATOM     23  C   UNL     1      -1.624  11.431  18.411  0.00  0.00    +0.000 A 
ATOM     24  C   UNL     1      -1.785  10.874  17.120  0.00  0.00    +0.000 A 
ATOM     25  C   UNL     1      -3.051  10.815  16.531  0.00  0.00    +0.000 A 
ATOM     26 BR   UNL     1      -3.222  10.138  14.772  0.00  0.00    +0.000 Br
ATOM     27  C   UNL     1      -4.178  11.249  17.214  0.00  0.00    +0.000 A 
ATOM     28  C   UNL     1      -4.064  11.756  18.509  0.00  0.00    +0.000 A 
ATOM     29  C   UNL     1      -2.785  11.838  19.086  0.00  0.00    +0.000 A 
ENDBRANCH  17  22
ENDBRANCH   1  17
TORSDOF 3
ENDMDL
