MODEL 1
REMARK VINA RESULT:      -8.1      0.000      0.000
REMARK  Name = 
REMARK  10 active torsions:
REMARK  status: ('A' for Active; 'I' for Inactive)
REMARK    1  A    between atoms: C_1  and  C_2
REMARK    2  A    between atoms: C_5  and  C_6
REMARK    3  A    between atoms: C_8  and  C_9
REMARK    4  A    between atoms: C_9  and  O_10
REMARK    5  A    between atoms: O_10  and  C_11
REMARK    6  A    between atoms: C_13  and  C_14
REMARK    7  A    between atoms: C_17  and  C_18
REMARK    8  A    between atoms: C_20  and  C_21
REMARK    9  A    between atoms: N_25  and  C_26
REMARK   10  A    between atoms: C_27  and  C_28
REMARK                            x       y       z     vdW  Elec       q    Type
REMARK                         _______ _______ _______ _____ _____    ______ ____
ROOT
ATOM      1  C   UNL     1       3.694   5.008  19.595  0.00  0.00    +0.000 A 
ATOM      2  N   UNL     1       4.016   3.713  19.395  0.00  0.00    +0.000 NA
ATOM      3  C   UNL     1       3.001   2.891  19.064  0.00  0.00    +0.000 A 
ATOM      4  C   UNL     1       3.309   1.444  18.842  0.00  0.00    +0.000 C 
ATOM      5  N   UNL     1       1.715   3.267  18.920  0.00  0.00    +0.000 NA
ATOM      6  C   UNL     1       1.448   4.569  19.126  0.00  0.00    +0.000 A 
ATOM      7  C   UNL     1       2.403   5.499  19.481  0.00  0.00    +0.000 A 
ENDROOT
BRANCH   7   8
ATOM      8  C   UNL     1       2.043   6.910  19.686  0.00  0.00    +0.000 A 
ATOM      9  C   UNL     1       1.557   7.336  20.985  0.00  0.00    +0.000 A 
ATOM     10  C   UNL     1       1.217   8.606  21.210  0.00  0.00    +0.000 A 
ATOM     11  C   UNL     1       1.345   9.619  20.129  0.00  0.00    +0.000 A 
ATOM     12  O   UNL     1       1.037  10.789  20.348  0.00  0.00    +0.000 OA
ATOM     13  N   UNL     1       1.825   9.156  18.896  0.00  0.00    +0.000 N 
ATOM     14  C   UNL     1       1.960  10.153  17.838  0.00  0.00    +0.000 C 
ATOM     15  C   UNL     1       2.163   7.810  18.674  0.00  0.00    +0.000 A 
ATOM     16  C   UNL     1       2.653   7.388  17.301  0.00  0.00    +0.000 C 
BRANCH  10  17
ATOM     17  C   UNL     1       0.709   9.087  22.547  0.00  0.00    +0.000 C 
ATOM     18  N   UNL     1       0.285   9.488  23.664  0.00  0.00    +0.000 NA
ENDBRANCH  10  17
ENDBRANCH   7   8
BRANCH   1  19
ATOM     19  O   UNL     1       4.686   5.920  19.917  0.00  0.00    +0.000 OA
BRANCH  19  20
ATOM     20  C   UNL     1       5.952   5.644  19.317  0.00  0.00    +0.000 C 
BRANCH  20  23
ATOM     21  C   UNL     1       7.061   5.625  16.956  0.00  0.00    +0.000 C 
ATOM     22  C   UNL     1       6.503   7.016  17.151  0.00  0.00    +0.000 C 
ATOM     23  C   UNL     1       5.837   5.843  17.826  0.00  0.00    +0.000 C 
BRANCH  21  28
ATOM     24  C   UNL     1       6.405   3.559  11.601  0.00  0.00    +0.000 C 
ATOM     25  C   UNL     1       6.624   3.990  13.017  0.00  0.00    +0.000 A 
ATOM     26  C   UNL     1       5.865   3.475  14.062  0.00  0.00    +0.000 A 
ATOM     27  C   UNL     1       6.062   3.957  15.356  0.00  0.00    +0.000 A 
ATOM     28  C   UNL     1       7.006   4.958  15.600  0.00  0.00    +0.000 A 
ATOM     29  N   UNL     1       7.777   5.438  14.592  0.00  0.00    +0.000 NA
ATOM     30  C   UNL     1       7.574   4.949  13.342  0.00  0.00    +0.000 A 
ENDBRANCH  21  28
ENDBRANCH  20  23
ENDBRANCH  19  20
ENDBRANCH   1  19
TORSDOF 6
ENDMDL
MODEL 2
REMARK VINA RESULT:      -8.0      2.226      7.650
REMARK  Name = 
REMARK  10 active torsions:
REMARK  status: ('A' for Active; 'I' for Inactive)
REMARK    1  A    between atoms: C_1  and  C_2
REMARK    2  A    between atoms: C_5  and  C_6
REMARK    3  A    between atoms: C_8  and  C_9
REMARK    4  A    between atoms: C_9  and  O_10
REMARK    5  A    between atoms: O_10  and  C_11
REMARK    6  A    between atoms: C_13  and  C_14
REMARK    7  A    between atoms: C_17  and  C_18
REMARK    8  A    between atoms: C_20  and  C_21
REMARK    9  A    between atoms: N_25  and  C_26
REMARK   10  A    between atoms: C_27  and  C_28
REMARK                            x       y       z     vdW  Elec       q    Type
REMARK                         _______ _______ _______ _____ _____    ______ ____
ROOT
ATOM      1  C   UNL     1       2.828   4.458  18.836  0.00  0.00    +0.000 A 
ATOM      2  N   UNL     1       1.956   4.005  19.761  0.00  0.00    +0.000 NA
ATOM      3  C   UNL     1       2.346   2.928  20.471  0.00  0.00    +0.000 A 
ATOM      4  C   UNL     1       1.408   2.385  21.502  0.00  0.00    +0.000 C 
ATOM      5  N   UNL     1       3.523   2.290  20.325  0.00  0.00    +0.000 NA
ATOM      6  C   UNL     1       4.359   2.783  19.393  0.00  0.00    +0.000 A 
ATOM      7  C   UNL     1       4.061   3.871  18.599  0.00  0.00    +0.000 A 
ENDROOT
BRANCH   7   8
ATOM      8  C   UNL     1       5.023   4.363  17.601  0.00  0.00    +0.000 A 
ATOM      9  C   UNL     1       4.972   3.839  16.249  0.00  0.00    +0.000 A 
ATOM     10  C   UNL     1       5.830   4.257  15.317  0.00  0.00    +0.000 A 
ATOM     11  C   UNL     1       6.852   5.286  15.645  0.00  0.00    +0.000 A 
ATOM     12  O   UNL     1       7.632   5.671  14.777  0.00  0.00    +0.000 OA
ATOM     13  N   UNL     1       6.853   5.763  16.963  0.00  0.00    +0.000 N 
ATOM     14  C   UNL     1       7.850   6.781  17.282  0.00  0.00    +0.000 C 
ATOM     15  C   UNL     1       5.951   5.298  17.936  0.00  0.00    +0.000 A 
ATOM     16  C   UNL     1       6.037   5.850  19.347  0.00  0.00    +0.000 C 
BRANCH  10  17
ATOM     17  C   UNL     1       5.807   3.737  13.901  0.00  0.00    +0.000 C 
ATOM     18  N   UNL     1       5.788   3.303  12.717  0.00  0.00    +0.000 NA
ENDBRANCH  10  17
ENDBRANCH   7   8
BRANCH   1  19
ATOM     19  O   UNL     1       2.510   5.574  18.080  0.00  0.00    +0.000 OA
BRANCH  19  20
ATOM     20  C   UNL     1       1.622   6.486  18.729  0.00  0.00    +0.000 C 
BRANCH  20  23
ATOM     21  C   UNL     1       1.686   8.966  17.921  0.00  0.00    +0.000 C 
ATOM     22  C   UNL     1       3.033   8.373  17.578  0.00  0.00    +0.000 C 
ATOM     23  C   UNL     1       2.268   7.848  18.767  0.00  0.00    +0.000 C 
BRANCH  21  28
ATOM     24  C   UNL     1       0.847  14.531  19.221  0.00  0.00    +0.000 C 
ATOM     25  C   UNL     1       1.159  13.093  18.956  0.00  0.00    +0.000 A 
ATOM     26  C   UNL     1       2.252  12.712  18.186  0.00  0.00    +0.000 A 
ATOM     27  C   UNL     1       2.462  11.361  17.912  0.00  0.00    +0.000 A 
ATOM     28  C   UNL     1       1.576  10.396  18.399  0.00  0.00    +0.000 A 
ATOM     29  N   UNL     1       0.529  10.756  19.184  0.00  0.00    +0.000 NA
ATOM     30  C   UNL     1       0.348  12.076  19.443  0.00  0.00    +0.000 A 
ENDBRANCH  21  28
ENDBRANCH  20  23
ENDBRANCH  19  20
ENDBRANCH   1  19
TORSDOF 6
ENDMDL
MODEL 3
REMARK VINA RESULT:      -8.0      2.447      7.372
REMARK  Name = 
REMARK  10 active torsions:
REMARK  status: ('A' for Active; 'I' for Inactive)
REMARK    1  A    between atoms: C_1  and  C_2
REMARK    2  A    between atoms: C_5  and  C_6
REMARK    3  A    between atoms: C_8  and  C_9
REMARK    4  A    between atoms: C_9  and  O_10
REMARK    5  A    between atoms: O_10  and  C_11
REMARK    6  A    between atoms: C_13  and  C_14
REMARK    7  A    between atoms: C_17  and  C_18
REMARK    8  A    between atoms: C_20  and  C_21
REMARK    9  A    between atoms: N_25  and  C_26
REMARK   10  A    between atoms: C_27  and  C_28
REMARK                            x       y       z     vdW  Elec       q    Type
REMARK                         _______ _______ _______ _____ _____    ______ ____
ROOT
ATOM      1  C   UNL     1       2.752   4.712  19.534  0.00  0.00    +0.000 A 
ATOM      2  N   UNL     1       1.871   4.248  20.445  0.00  0.00    +0.000 NA
ATOM      3  C   UNL     1       2.213   3.108  21.077  0.00  0.00    +0.000 A 
ATOM      4  C   UNL     1       1.263   2.551  22.090  0.00  0.00    +0.000 C 
ATOM      5  N   UNL     1       3.350   2.418  20.868  0.00  0.00    +0.000 NA
ATOM      6  C   UNL     1       4.196   2.924  19.952  0.00  0.00    +0.000 A 
ATOM      7  C   UNL     1       3.946   4.076  19.235  0.00  0.00    +0.000 A 
ENDROOT
BRANCH   7   8
ATOM      8  C   UNL     1       4.917   4.579  18.252  0.00  0.00    +0.000 A 
ATOM      9  C   UNL     1       5.832   5.636  18.637  0.00  0.00    +0.000 A 
ATOM     10  C   UNL     1       6.725   6.123  17.774  0.00  0.00    +0.000 A 
ATOM     11  C   UNL     1       6.809   5.574  16.394  0.00  0.00    +0.000 A 
ATOM     12  O   UNL     1       7.641   6.022  15.608  0.00  0.00    +0.000 OA
ATOM     13  N   UNL     1       5.907   4.550  16.076  0.00  0.00    +0.000 N 
ATOM     14  C   UNL     1       5.997   4.004  14.725  0.00  0.00    +0.000 C 
ATOM     15  C   UNL     1       4.963   4.062  16.996  0.00  0.00    +0.000 A 
ATOM     16  C   UNL     1       4.006   2.967  16.561  0.00  0.00    +0.000 C 
BRANCH  10  17
ATOM     17  C   UNL     1       7.693   7.221  18.138  0.00  0.00    +0.000 C 
ATOM     18  N   UNL     1       8.503   8.138  18.443  0.00  0.00    +0.000 NA
ENDBRANCH  10  17
ENDBRANCH   7   8
BRANCH   1  19
ATOM     19  O   UNL     1       2.482   5.890  18.857  0.00  0.00    +0.000 OA
BRANCH  19  20
ATOM     20  C   UNL     1       1.952   6.930  19.681  0.00  0.00    +0.000 C 
BRANCH  20  23
ATOM     21  C   UNL     1       1.291   9.213  18.607  0.00  0.00    +0.000 C 
ATOM     22  C   UNL     1       2.227   8.540  17.629  0.00  0.00    +0.000 C 
ATOM     23  C   UNL     1       2.363   8.262  19.106  0.00  0.00    +0.000 C 
BRANCH  21  28
ATOM     24  C   UNL     1       1.058  14.978  18.901  0.00  0.00    +0.000 C 
ATOM     25  C   UNL     1       1.217  13.491  18.889  0.00  0.00    +0.000 A 
ATOM     26  C   UNL     1       2.211  12.869  18.142  0.00  0.00    +0.000 A 
ATOM     27  C   UNL     1       2.277  11.476  18.111  0.00  0.00    +0.000 A 
ATOM     28  C   UNL     1       1.346  10.709  18.817  0.00  0.00    +0.000 A 
ATOM     29  N   UNL     1       0.397  11.309  19.580  0.00  0.00    +0.000 NA
ATOM     30  C   UNL     1       0.356  12.665  19.601  0.00  0.00    +0.000 A 
ENDBRANCH  21  28
ENDBRANCH  20  23
ENDBRANCH  19  20
ENDBRANCH   1  19
TORSDOF 6
ENDMDL
MODEL 4
REMARK VINA RESULT:      -7.9      2.492      7.846
REMARK  Name = 
REMARK  10 active torsions:
REMARK  status: ('A' for Active; 'I' for Inactive)
REMARK    1  A    between atoms: C_1  and  C_2
REMARK    2  A    between atoms: C_5  and  C_6
REMARK    3  A    between atoms: C_8  and  C_9
REMARK    4  A    between atoms: C_9  and  O_10
REMARK    5  A    between atoms: O_10  and  C_11
REMARK    6  A    between atoms: C_13  and  C_14
REMARK    7  A    between atoms: C_17  and  C_18
REMARK    8  A    between atoms: C_20  and  C_21
REMARK    9  A    between atoms: N_25  and  C_26
REMARK   10  A    between atoms: C_27  and  C_28
REMARK                            x       y       z     vdW  Elec       q    Type
REMARK                         _______ _______ _______ _____ _____    ______ ____
ROOT
ATOM      1  C   UNL     1       2.787   4.635  18.934  0.00  0.00    +0.000 A 
ATOM      2  N   UNL     1       1.922   4.211  19.879  0.00  0.00    +0.000 NA
ATOM      3  C   UNL     1       2.252   3.073  20.521  0.00  0.00    +0.000 A 
ATOM      4  C   UNL     1       1.318   2.559  21.571  0.00  0.00    +0.000 C 
ATOM      5  N   UNL     1       3.363   2.347  20.290  0.00  0.00    +0.000 NA
ATOM      6  C   UNL     1       4.194   2.815  19.341  0.00  0.00    +0.000 A 
ATOM      7  C   UNL     1       3.954   3.961  18.611  0.00  0.00    +0.000 A 
ENDROOT
BRANCH   7   8
ATOM      8  C   UNL     1       4.908   4.420  17.591  0.00  0.00    +0.000 A 
ATOM      9  C   UNL     1       4.766   3.950  16.225  0.00  0.00    +0.000 A 
ATOM     10  C   UNL     1       5.614   4.339  15.272  0.00  0.00    +0.000 A 
ATOM     11  C   UNL     1       6.719   5.282  15.590  0.00  0.00    +0.000 A 
ATOM     12  O   UNL     1       7.489   5.643  14.703  0.00  0.00    +0.000 OA
ATOM     13  N   UNL     1       6.807   5.710  16.922  0.00  0.00    +0.000 N 
ATOM     14  C   UNL     1       7.885   6.644  17.233  0.00  0.00    +0.000 C 
ATOM     15  C   UNL     1       5.913   5.275  17.916  0.00  0.00    +0.000 A 
ATOM     16  C   UNL     1       6.094   5.769  19.340  0.00  0.00    +0.000 C 
BRANCH  10  17
ATOM     17  C   UNL     1       5.498   3.873  13.841  0.00  0.00    +0.000 C 
ATOM     18  N   UNL     1       5.400   3.483  12.647  0.00  0.00    +0.000 NA
ENDBRANCH  10  17
ENDBRANCH   7   8
BRANCH   1  19
ATOM     19  O   UNL     1       2.530   5.809  18.245  0.00  0.00    +0.000 OA
BRANCH  19  20
ATOM     20  C   UNL     1       2.839   6.996  18.976  0.00  0.00    +0.000 C 
BRANCH  20  23
ATOM     21  C   UNL     1       1.461   9.154  19.478  0.00  0.00    +0.000 C 
ATOM     22  C   UNL     1       1.462   8.344  20.755  0.00  0.00    +0.000 C 
ATOM     23  C   UNL     1       1.550   7.640  19.424  0.00  0.00    +0.000 C 
BRANCH  21  28
ATOM     24  C   UNL     1      -3.599  11.614  18.167  0.00  0.00    +0.000 C 
ATOM     25  C   UNL     1      -2.238  11.049  18.427  0.00  0.00    +0.000 A 
ATOM     26  C   UNL     1      -1.598  10.231  17.502  0.00  0.00    +0.000 A 
ATOM     27  C   UNL     1      -0.359   9.675  17.818  0.00  0.00    +0.000 A 
ATOM     28  C   UNL     1       0.232   9.927  19.060  0.00  0.00    +0.000 A 
ATOM     29  N   UNL     1      -0.368  10.755  19.952  0.00  0.00    +0.000 NA
ATOM     30  C   UNL     1      -1.570  11.292  19.620  0.00  0.00    +0.000 A 
ENDBRANCH  21  28
ENDBRANCH  20  23
ENDBRANCH  19  20
ENDBRANCH   1  19
TORSDOF 6
ENDMDL
MODEL 5
REMARK VINA RESULT:      -7.8      2.647      7.474
REMARK  Name = 
REMARK  10 active torsions:
REMARK  status: ('A' for Active; 'I' for Inactive)
REMARK    1  A    between atoms: C_1  and  C_2
REMARK    2  A    between atoms: C_5  and  C_6
REMARK    3  A    between atoms: C_8  and  C_9
REMARK    4  A    between atoms: C_9  and  O_10
REMARK    5  A    between atoms: O_10  and  C_11
REMARK    6  A    between atoms: C_13  and  C_14
REMARK    7  A    between atoms: C_17  and  C_18
REMARK    8  A    between atoms: C_20  and  C_21
REMARK    9  A    between atoms: N_25  and  C_26
REMARK   10  A    between atoms: C_27  and  C_28
REMARK                            x       y       z     vdW  Elec       q    Type
REMARK                         _______ _______ _______ _____ _____    ______ ____
ROOT
ATOM      1  C   UNL     1       2.625   4.740  19.681  0.00  0.00    +0.000 A 
ATOM      2  N   UNL     1       1.761   4.271  20.606  0.00  0.00    +0.000 NA
ATOM      3  C   UNL     1       2.099   3.110  21.202  0.00  0.00    +0.000 A 
ATOM      4  C   UNL     1       1.167   2.547  22.228  0.00  0.00    +0.000 C 
ATOM      5  N   UNL     1       3.215   2.403  20.943  0.00  0.00    +0.000 NA
ATOM      6  C   UNL     1       4.044   2.915  20.015  0.00  0.00    +0.000 A 
ATOM      7  C   UNL     1       3.797   4.088  19.332  0.00  0.00    +0.000 A 
ENDROOT
BRANCH   7   8
ATOM      8  C   UNL     1       4.750   4.595  18.334  0.00  0.00    +0.000 A 
ATOM      9  C   UNL     1       5.745   5.570  18.736  0.00  0.00    +0.000 A 
ATOM     10  C   UNL     1       6.625   6.059  17.859  0.00  0.00    +0.000 A 
ATOM     11  C   UNL     1       6.609   5.596  16.446  0.00  0.00    +0.000 A 
ATOM     12  O   UNL     1       7.428   6.044  15.647  0.00  0.00    +0.000 OA
ATOM     13  N   UNL     1       5.631   4.649  16.112  0.00  0.00    +0.000 N 
ATOM     14  C   UNL     1       5.623   4.187  14.727  0.00  0.00    +0.000 C 
ATOM     15  C   UNL     1       4.703   4.159  17.047  0.00  0.00    +0.000 A 
ATOM     16  C   UNL     1       3.661   3.152  16.596  0.00  0.00    +0.000 C 
BRANCH  10  17
ATOM     17  C   UNL     1       7.675   7.072  18.240  0.00  0.00    +0.000 C 
ATOM     18  N   UNL     1       8.552   7.920  18.558  0.00  0.00    +0.000 NA
ENDBRANCH  10  17
ENDBRANCH   7   8
BRANCH   1  19
ATOM     19  O   UNL     1       2.360   5.939  19.040  0.00  0.00    +0.000 OA
BRANCH  19  20
ATOM     20  C   UNL     1       2.615   7.097  19.836  0.00  0.00    +0.000 C 
BRANCH  20  23
ATOM     21  C   UNL     1       1.257   9.324  19.846  0.00  0.00    +0.000 C 
ATOM     22  C   UNL     1       1.150   8.756  21.242  0.00  0.00    +0.000 C 
ATOM     23  C   UNL     1       1.314   7.824  20.068  0.00  0.00    +0.000 C 
BRANCH  21  28
ATOM     24  C   UNL     1      -3.632  11.509  17.680  0.00  0.00    +0.000 C 
ATOM     25  C   UNL     1      -2.307  11.012  18.164  0.00  0.00    +0.000 A 
ATOM     26  C   UNL     1      -1.523  10.158  17.396  0.00  0.00    +0.000 A 
ATOM     27  C   UNL     1      -0.326   9.668  17.919  0.00  0.00    +0.000 A 
ATOM     28  C   UNL     1       0.079  10.024  19.209  0.00  0.00    +0.000 A 
ATOM     29  N   UNL     1      -0.661  10.888  19.949  0.00  0.00    +0.000 NA
ATOM     30  C   UNL     1      -1.818  11.357  19.418  0.00  0.00    +0.000 A 
ENDBRANCH  21  28
ENDBRANCH  20  23
ENDBRANCH  19  20
ENDBRANCH   1  19
TORSDOF 6
ENDMDL
MODEL 6
REMARK VINA RESULT:      -7.8      2.341      7.696
REMARK  Name = 
REMARK  10 active torsions:
REMARK  status: ('A' for Active; 'I' for Inactive)
REMARK    1  A    between atoms: C_1  and  C_2
REMARK    2  A    between atoms: C_5  and  C_6
REMARK    3  A    between atoms: C_8  and  C_9
REMARK    4  A    between atoms: C_9  and  O_10
REMARK    5  A    between atoms: O_10  and  C_11
REMARK    6  A    between atoms: C_13  and  C_14
REMARK    7  A    between atoms: C_17  and  C_18
REMARK    8  A    between atoms: C_20  and  C_21
REMARK    9  A    between atoms: N_25  and  C_26
REMARK   10  A    between atoms: C_27  and  C_28
REMARK                            x       y       z     vdW  Elec       q    Type
REMARK                         _______ _______ _______ _____ _____    ______ ____
ROOT
ATOM      1  C   UNL     1       2.876   4.667  19.192  0.00  0.00    +0.000 A 
ATOM      2  N   UNL     1       2.016   4.220  20.130  0.00  0.00    +0.000 NA
ATOM      3  C   UNL     1       2.239   2.977  20.600  0.00  0.00    +0.000 A 
ATOM      4  C   UNL     1       1.305   2.436  21.636  0.00  0.00    +0.000 C 
ATOM      5  N   UNL     1       3.243   2.170  20.207  0.00  0.00    +0.000 NA
ATOM      6  C   UNL     1       4.075   2.664  19.273  0.00  0.00    +0.000 A 
ATOM      7  C   UNL     1       3.938   3.916  18.711  0.00  0.00    +0.000 A 
ENDROOT
BRANCH   7   8
ATOM      8  C   UNL     1       4.887   4.397  17.696  0.00  0.00    +0.000 A 
ATOM      9  C   UNL     1       4.760   3.931  16.329  0.00  0.00    +0.000 A 
ATOM     10  C   UNL     1       5.604   4.340  15.380  0.00  0.00    +0.000 A 
ATOM     11  C   UNL     1       6.690   5.302  15.708  0.00  0.00    +0.000 A 
ATOM     12  O   UNL     1       7.457   5.681  14.826  0.00  0.00    +0.000 OA
ATOM     13  N   UNL     1       6.764   5.726  17.042  0.00  0.00    +0.000 N 
ATOM     14  C   UNL     1       7.823   6.678  17.361  0.00  0.00    +0.000 C 
ATOM     15  C   UNL     1       5.874   5.270  18.030  0.00  0.00    +0.000 A 
ATOM     16  C   UNL     1       6.040   5.760  19.457  0.00  0.00    +0.000 C 
BRANCH  10  17
ATOM     17  C   UNL     1       5.502   3.879  13.947  0.00  0.00    +0.000 C 
ATOM     18  N   UNL     1       5.417   3.492  12.750  0.00  0.00    +0.000 NA
ENDBRANCH  10  17
ENDBRANCH   7   8
BRANCH   1  19
ATOM     19  O   UNL     1       2.726   5.943  18.674  0.00  0.00    +0.000 OA
BRANCH  19  20
ATOM     20  C   UNL     1       2.225   6.899  19.610  0.00  0.00    +0.000 C 
BRANCH  20  23
ATOM     21  C   UNL     1       1.200   8.855  18.222  0.00  0.00    +0.000 C 
ATOM     22  C   UNL     1       2.483   8.466  17.524  0.00  0.00    +0.000 C 
ATOM     23  C   UNL     1       2.359   8.278  19.015  0.00  0.00    +0.000 C 
BRANCH  21  28
ATOM     24  C   UNL     1      -0.361  14.329  19.207  0.00  0.00    +0.000 C 
ATOM     25  C   UNL     1       0.001  12.924  18.842  0.00  0.00    +0.000 A 
ATOM     26  C   UNL     1      -0.967  11.940  18.677  0.00  0.00    +0.000 A 
ATOM     27  C   UNL     1      -0.576  10.630  18.402  0.00  0.00    +0.000 A 
ATOM     28  C   UNL     1       0.780  10.305  18.304  0.00  0.00    +0.000 A 
ATOM     29  N   UNL     1       1.729  11.266  18.425  0.00  0.00    +0.000 NA
ATOM     30  C   UNL     1       1.325  12.536  18.685  0.00  0.00    +0.000 A 
ENDBRANCH  21  28
ENDBRANCH  20  23
ENDBRANCH  19  20
ENDBRANCH   1  19
TORSDOF 6
ENDMDL
MODEL 7
REMARK VINA RESULT:      -7.7      3.917      6.320
REMARK  Name = 
REMARK  10 active torsions:
REMARK  status: ('A' for Active; 'I' for Inactive)
REMARK    1  A    between atoms: C_1  and  C_2
REMARK    2  A    between atoms: C_5  and  C_6
REMARK    3  A    between atoms: C_8  and  C_9
REMARK    4  A    between atoms: C_9  and  O_10
REMARK    5  A    between atoms: O_10  and  C_11
REMARK    6  A    between atoms: C_13  and  C_14
REMARK    7  A    between atoms: C_17  and  C_18
REMARK    8  A    between atoms: C_20  and  C_21
REMARK    9  A    between atoms: N_25  and  C_26
REMARK   10  A    between atoms: C_27  and  C_28
REMARK                            x       y       z     vdW  Elec       q    Type
REMARK                         _______ _______ _______ _____ _____    ______ ____
ROOT
ATOM      1  C   UNL     1       6.168   6.214  16.844  0.00  0.00    +0.000 A 
ATOM      2  N   UNL     1       7.046   5.941  15.857  0.00  0.00    +0.000 NA
ATOM      3  C   UNL     1       6.647   5.041  14.937  0.00  0.00    +0.000 A 
ATOM      4  C   UNL     1       7.592   4.701  13.828  0.00  0.00    +0.000 C 
ATOM      5  N   UNL     1       5.456   4.412  14.935  0.00  0.00    +0.000 NA
ATOM      6  C   UNL     1       4.616   4.721  15.938  0.00  0.00    +0.000 A 
ATOM      7  C   UNL     1       4.920   5.617  16.942  0.00  0.00    +0.000 A 
ENDROOT
BRANCH   7   8
ATOM      8  C   UNL     1       3.952   5.915  18.008  0.00  0.00    +0.000 A 
ATOM      9  C   UNL     1       3.246   7.182  17.989  0.00  0.00    +0.000 A 
ATOM     10  C   UNL     1       2.363   7.492  18.940  0.00  0.00    +0.000 A 
ATOM     11  C   UNL     1       2.073   6.530  20.036  0.00  0.00    +0.000 A 
ATOM     12  O   UNL     1       1.251   6.820  20.902  0.00  0.00    +0.000 OA
ATOM     13  N   UNL     1       2.777   5.318  20.003  0.00  0.00    +0.000 N 
ATOM     14  C   UNL     1       2.484   4.369  21.072  0.00  0.00    +0.000 C 
ATOM     15  C   UNL     1       3.716   5.017  19.001  0.00  0.00    +0.000 A 
ATOM     16  C   UNL     1       4.453   3.691  19.053  0.00  0.00    +0.000 C 
BRANCH  10  17
ATOM     17  C   UNL     1       1.609   8.799  18.954  0.00  0.00    +0.000 C 
ATOM     18  N   UNL     1       0.980   9.891  18.965  0.00  0.00    +0.000 NA
ENDBRANCH  10  17
ENDBRANCH   7   8
BRANCH   1  19
ATOM     19  O   UNL     1       6.495   7.145  17.817  0.00  0.00    +0.000 OA
BRANCH  19  20
ATOM     20  C   UNL     1       7.883   7.172  18.157  0.00  0.00    +0.000 C 
BRANCH  20  23
ATOM     21  C   UNL     1       8.439   9.654  18.737  0.00  0.00    +0.000 C 
ATOM     22  C   UNL     1       7.557   9.692  17.510  0.00  0.00    +0.000 C 
ATOM     23  C   UNL     1       8.457   8.505  17.746  0.00  0.00    +0.000 C 
BRANCH  21  28
ATOM     24  C   UNL     1      12.333  13.850  19.506  0.00  0.00    +0.000 C 
ATOM     25  C   UNL     1      11.409  12.703  19.248  0.00  0.00    +0.000 A 
ATOM     26  C   UNL     1      10.893  12.452  17.981  0.00  0.00    +0.000 A 
ATOM     27  C   UNL     1       9.982  11.411  17.804  0.00  0.00    +0.000 A 
ATOM     28  C   UNL     1       9.581  10.632  18.894  0.00  0.00    +0.000 A 
ATOM     29  N   UNL     1      10.109  10.846  20.125  0.00  0.00    +0.000 NA
ATOM     30  C   UNL     1      10.999  11.859  20.272  0.00  0.00    +0.000 A 
ENDBRANCH  21  28
ENDBRANCH  20  23
ENDBRANCH  19  20
ENDBRANCH   1  19
TORSDOF 6
ENDMDL
MODEL 8
REMARK VINA RESULT:      -7.7      2.079      8.147
REMARK  Name = 
REMARK  10 active torsions:
REMARK  status: ('A' for Active; 'I' for Inactive)
REMARK    1  A    between atoms: C_1  and  C_2
REMARK    2  A    between atoms: C_5  and  C_6
REMARK    3  A    between atoms: C_8  and  C_9
REMARK    4  A    between atoms: C_9  and  O_10
REMARK    5  A    between atoms: O_10  and  C_11
REMARK    6  A    between atoms: C_13  and  C_14
REMARK    7  A    between atoms: C_17  and  C_18
REMARK    8  A    between atoms: C_20  and  C_21
REMARK    9  A    between atoms: N_25  and  C_26
REMARK   10  A    between atoms: C_27  and  C_28
REMARK                            x       y       z     vdW  Elec       q    Type
REMARK                         _______ _______ _______ _____ _____    ______ ____
ROOT
ATOM      1  C   UNL     1       2.682   4.465  18.658  0.00  0.00    +0.000 A 
ATOM      2  N   UNL     1       1.782   4.022  19.561  0.00  0.00    +0.000 NA
ATOM      3  C   UNL     1       2.169   2.984  20.328  0.00  0.00    +0.000 A 
ATOM      4  C   UNL     1       1.201   2.454  21.338  0.00  0.00    +0.000 C 
ATOM      5  N   UNL     1       3.368   2.373  20.257  0.00  0.00    +0.000 NA
ATOM      6  C   UNL     1       4.229   2.854  19.343  0.00  0.00    +0.000 A 
ATOM      7  C   UNL     1       3.939   3.903  18.495  0.00  0.00    +0.000 A 
ENDROOT
BRANCH   7   8
ATOM      8  C   UNL     1       4.930   4.384  17.522  0.00  0.00    +0.000 A 
ATOM      9  C   UNL     1       4.885   3.887  16.160  0.00  0.00    +0.000 A 
ATOM     10  C   UNL     1       5.769   4.295  15.248  0.00  0.00    +0.000 A 
ATOM     11  C   UNL     1       6.816   5.288  15.611  0.00  0.00    +0.000 A 
ATOM     12  O   UNL     1       7.620   5.665  14.762  0.00  0.00    +0.000 OA
ATOM     13  N   UNL     1       6.811   5.741  16.937  0.00  0.00    +0.000 N 
ATOM     14  C   UNL     1       7.831   6.723  17.290  0.00  0.00    +0.000 C 
ATOM     15  C   UNL     1       5.880   5.286  17.887  0.00  0.00    +0.000 A 
ATOM     16  C   UNL     1       5.960   5.809  19.310  0.00  0.00    +0.000 C 
BRANCH  10  17
ATOM     17  C   UNL     1       5.753   3.801  13.822  0.00  0.00    +0.000 C 
ATOM     18  N   UNL     1       5.738   3.389  12.631  0.00  0.00    +0.000 NA
ENDBRANCH  10  17
ENDBRANCH   7   8
BRANCH   1  19
ATOM     19  O   UNL     1       2.367   5.543  17.846  0.00  0.00    +0.000 OA
BRANCH  19  20
ATOM     20  C   UNL     1       2.650   6.816  18.429  0.00  0.00    +0.000 C 
BRANCH  20  23
ATOM     21  C   UNL     1       1.907   8.161  20.537  0.00  0.00    +0.000 C 
ATOM     22  C   UNL     1       1.840   6.701  20.921  0.00  0.00    +0.000 C 
ATOM     23  C   UNL     1       1.614   7.107  19.486  0.00  0.00    +0.000 C 
BRANCH  21  28
ATOM     24  C   UNL     1      -1.548  12.198  22.804  0.00  0.00    +0.000 C 
ATOM     25  C   UNL     1      -0.751  11.089  22.193  0.00  0.00    +0.000 A 
ATOM     26  C   UNL     1      -0.595   9.864  22.831  0.00  0.00    +0.000 A 
ATOM     27  C   UNL     1       0.212   8.886  22.252  0.00  0.00    +0.000 A 
ATOM     28  C   UNL     1       0.870   9.137  21.045  0.00  0.00    +0.000 A 
ATOM     29  N   UNL     1       0.693  10.316  20.396  0.00  0.00    +0.000 NA
ATOM     30  C   UNL     1      -0.104  11.250  20.974  0.00  0.00    +0.000 A 
ENDBRANCH  21  28
ENDBRANCH  20  23
ENDBRANCH  19  20
ENDBRANCH   1  19
TORSDOF 6
ENDMDL
MODEL 9
REMARK VINA RESULT:      -7.6      3.876      6.464
REMARK  Name = 
REMARK  10 active torsions:
REMARK  status: ('A' for Active; 'I' for Inactive)
REMARK    1  A    between atoms: C_1  and  C_2
REMARK    2  A    between atoms: C_5  and  C_6
REMARK    3  A    between atoms: C_8  and  C_9
REMARK    4  A    between atoms: C_9  and  O_10
REMARK    5  A    between atoms: O_10  and  C_11
REMARK    6  A    between atoms: C_13  and  C_14
REMARK    7  A    between atoms: C_17  and  C_18
REMARK    8  A    between atoms: C_20  and  C_21
REMARK    9  A    between atoms: N_25  and  C_26
REMARK   10  A    between atoms: C_27  and  C_28
REMARK                            x       y       z     vdW  Elec       q    Type
REMARK                         _______ _______ _______ _____ _____    ______ ____
ROOT
ATOM      1  C   UNL     1       6.336   6.203  16.589  0.00  0.00    +0.000 A 
ATOM      2  N   UNL     1       7.199   5.889  15.601  0.00  0.00    +0.000 NA
ATOM      3  C   UNL     1       6.769   4.988  14.697  0.00  0.00    +0.000 A 
ATOM      4  C   UNL     1       7.696   4.603  13.588  0.00  0.00    +0.000 C 
ATOM      5  N   UNL     1       5.560   4.393  14.712  0.00  0.00    +0.000 NA
ATOM      6  C   UNL     1       4.736   4.742  15.715  0.00  0.00    +0.000 A 
ATOM      7  C   UNL     1       5.072   5.644  16.704  0.00  0.00    +0.000 A 
ENDROOT
BRANCH   7   8
ATOM      8  C   UNL     1       4.120   5.986  17.770  0.00  0.00    +0.000 A 
ATOM      9  C   UNL     1       3.396   7.241  17.697  0.00  0.00    +0.000 A 
ATOM     10  C   UNL     1       2.526   7.590  18.647  0.00  0.00    +0.000 A 
ATOM     11  C   UNL     1       2.270   6.685  19.798  0.00  0.00    +0.000 A 
ATOM     12  O   UNL     1       1.460   7.010  20.663  0.00  0.00    +0.000 OA
ATOM     13  N   UNL     1       2.990   5.483  19.817  0.00  0.00    +0.000 N 
ATOM     14  C   UNL     1       2.731   4.589  20.941  0.00  0.00    +0.000 C 
ATOM     15  C   UNL     1       3.915   5.140  18.814  0.00  0.00    +0.000 A 
ATOM     16  C   UNL     1       4.671   3.829  18.923  0.00  0.00    +0.000 C 
BRANCH  10  17
ATOM     17  C   UNL     1       1.754   8.886  18.605  0.00  0.00    +0.000 C 
ATOM     18  N   UNL     1       1.109   9.969  18.569  0.00  0.00    +0.000 NA
ENDBRANCH  10  17
ENDBRANCH   7   8
BRANCH   1  19
ATOM     19  O   UNL     1       6.696   7.138  17.546  0.00  0.00    +0.000 OA
BRANCH  19  20
ATOM     20  C   UNL     1       7.815   7.947  17.180  0.00  0.00    +0.000 C 
BRANCH  20  23
ATOM     21  C   UNL     1       8.958  10.181  17.893  0.00  0.00    +0.000 C 
ATOM     22  C   UNL     1       9.010   9.274  19.100  0.00  0.00    +0.000 C 
ATOM     23  C   UNL     1       7.882   9.133  18.109  0.00  0.00    +0.000 C 
BRANCH  21  28
ATOM     24  C   UNL     1       8.428  15.933  17.974  0.00  0.00    +0.000 C 
ATOM     25  C   UNL     1       8.524  14.443  18.064  0.00  0.00    +0.000 A 
ATOM     26  C   UNL     1       9.497  13.820  18.838  0.00  0.00    +0.000 A 
ATOM     27  C   UNL     1       9.588  12.428  18.838  0.00  0.00    +0.000 A 
ATOM     28  C   UNL     1       8.716  11.664  18.056  0.00  0.00    +0.000 A 
ATOM     29  N   UNL     1       7.739  12.263  17.329  0.00  0.00    +0.000 NA
ATOM     30  C   UNL     1       7.665  13.618  17.350  0.00  0.00    +0.000 A 
ENDBRANCH  21  28
ENDBRANCH  20  23
ENDBRANCH  19  20
ENDBRANCH   1  19
TORSDOF 6
ENDMDL
