MODEL 1
REMARK VINA RESULT:      -8.8      0.000      0.000
REMARK  Name = 
REMARK  10 active torsions:
REMARK  status: ('A' for Active; 'I' for Inactive)
REMARK    1  A    between atoms: C_1  and  C_2
REMARK    2  A    between atoms: C_2  and  C_3
REMARK    3  A    between atoms: C_3  and  C_4
REMARK    4  A    between atoms: C_4  and  C_5
REMARK    5  A    between atoms: N_7  and  C_8
REMARK    6  A    between atoms: C_8  and  C_9
REMARK    7  A    between atoms: N_17  and  C_18
REMARK    8  A    between atoms: C_18  and  C_19
REMARK    9  A    between atoms: C_22  and  C_23
REMARK   10  A    between atoms: C_28  and  C_29
REMARK                            x       y       z     vdW  Elec       q    Type
REMARK                         _______ _______ _______ _____ _____    ______ ____
ROOT
ATOM      1  C   UNL     1       0.532  10.130  20.318  0.00  0.00    +0.000 C 
ENDROOT
BRANCH   1   7
ATOM      2  C   UNL     1      -0.820  11.601  18.730  0.00  0.00    +0.000 A 
ATOM      3  N   UNL     1      -0.804  12.833  18.297  0.00  0.00    +0.000 NA
ATOM      4  N   UNL     1       0.382  13.350  18.789  0.00  0.00    +0.000 N 
ATOM      5  C   UNL     1       1.040  12.382  19.531  0.00  0.00    +0.000 A 
ATOM      6  O   UNL     1       2.113  12.519  20.115  0.00  0.00    +0.000 OA
ATOM      7  N   UNL     1       0.244  11.283  19.488  0.00  0.00    +0.000 N 
BRANCH   2   8
ATOM      8  C   UNL     1      -1.923  10.595  18.460  0.00  0.00    +0.000 C 
BRANCH   8   9
ATOM      9  C   UNL     1      -1.921  10.010  17.046  0.00  0.00    +0.000 C 
BRANCH   9  11
ATOM     10  C   UNL     1      -2.963  10.087  14.748  0.00  0.00    +0.000 C 
ATOM     11  C   UNL     1      -2.774  10.820  16.067  0.00  0.00    +0.000 C 
ENDBRANCH   9  11
ENDBRANCH   8   9
ENDBRANCH   2   8
BRANCH   4  12
ATOM     12  C   UNL     1       0.868  14.712  18.650  0.00  0.00    +0.000 C 
BRANCH  12  13
ATOM     13  C   UNL     1       0.150  15.720  19.581  0.00  0.00    +0.000 C 
ATOM     14  C   UNL     1       1.104  16.540  20.460  0.00  0.00    +0.000 C 
ATOM     15  C   UNL     1       1.800  17.691  19.745  0.00  0.00    +0.000 C 
ATOM     16  C   UNL     1       0.872  18.577  18.922  0.00  0.00    +0.000 C 
ATOM     17  C   UNL     1      -0.257  17.861  18.186  0.00  0.00    +0.000 C 
ATOM     18  C   UNL     1      -0.856  16.660  18.909  0.00  0.00    +0.000 C 
ENDBRANCH  12  13
ENDBRANCH   4  12
ENDBRANCH   1   7
BRANCH   1  19
ATOM     19  C   UNL     1       1.219   9.048  19.538  0.00  0.00    +0.000 A 
ATOM     20  C   UNL     1       1.507   9.192  18.179  0.00  0.00    +0.000 A 
ATOM     21  C   UNL     1       2.316   8.256  17.535  0.00  0.00    +0.000 A 
ATOM     22  C   UNL     1       2.893   7.182  18.238  0.00  0.00    +0.000 A 
ATOM     23  C   UNL     1       2.568   7.065  19.598  0.00  0.00    +0.000 A 
ATOM     24  C   UNL     1       1.668   7.915  20.215  0.00  0.00    +0.000 A 
BRANCH  22  25
ATOM     25  C   UNL     1       3.848   6.239  17.599  0.00  0.00    +0.000 A 
ATOM     26  C   UNL     1       4.989   6.769  16.946  0.00  0.00    +0.000 A 
ATOM     27  C   UNL     1       5.985   5.949  16.415  0.00  0.00    +0.000 A 
ATOM     28  C   UNL     1       5.884   4.572  16.545  0.00  0.00    +0.000 A 
ATOM     29  C   UNL     1       4.773   4.014  17.173  0.00  0.00    +0.000 A 
ATOM     30  C   UNL     1       3.731   4.822  17.664  0.00  0.00    +0.000 A 
BRANCH  30  31
ATOM     31  C   UNL     1       2.578   4.127  18.230  0.00  0.00    +0.000 A 
ATOM     32  N   UNL     1       1.409   3.929  17.521  0.00  0.00    +0.000 NA
ATOM     33  N   UNL     1       0.629   3.168  18.271  0.00  0.00    +0.000 NA
ATOM     34  N   UNL     1       1.343   2.935  19.378  0.00  0.00    +0.000 N 
ATOM     35  N   UNL     1       2.531   3.555  19.447  0.00  0.00    +0.000 NA
ATOM     36  H   UNL     1       1.014   2.316  20.111  0.00  0.00    +0.000 HD
ENDBRANCH  30  31
ENDBRANCH  22  25
ENDBRANCH   1  19
TORSDOF 9
ENDMDL
MODEL 2
REMARK VINA RESULT:      -8.8      1.019      1.839
REMARK  Name = 
REMARK  10 active torsions:
REMARK  status: ('A' for Active; 'I' for Inactive)
REMARK    1  A    between atoms: C_1  and  C_2
REMARK    2  A    between atoms: C_2  and  C_3
REMARK    3  A    between atoms: C_3  and  C_4
REMARK    4  A    between atoms: C_4  and  C_5
REMARK    5  A    between atoms: N_7  and  C_8
REMARK    6  A    between atoms: C_8  and  C_9
REMARK    7  A    between atoms: N_17  and  C_18
REMARK    8  A    between atoms: C_18  and  C_19
REMARK    9  A    between atoms: C_22  and  C_23
REMARK   10  A    between atoms: C_28  and  C_29
REMARK                            x       y       z     vdW  Elec       q    Type
REMARK                         _______ _______ _______ _____ _____    ______ ____
ROOT
ATOM      1  C   UNL     1       0.265   9.498  20.352  0.00  0.00    +0.000 C 
ENDROOT
BRANCH   1   7
ATOM      2  C   UNL     1      -0.697  11.241  18.754  0.00  0.00    +0.000 A 
ATOM      3  N   UNL     1      -0.697  12.540  18.620  0.00  0.00    +0.000 NA
ATOM      4  N   UNL     1       0.207  12.980  19.572  0.00  0.00    +0.000 N 
ATOM      5  C   UNL     1       0.714  11.894  20.268  0.00  0.00    +0.000 A 
ATOM      6  O   UNL     1       1.529  11.938  21.187  0.00  0.00    +0.000 OA
ATOM      7  N   UNL     1       0.111  10.802  19.736  0.00  0.00    +0.000 N 
BRANCH   2   8
ATOM      8  C   UNL     1      -1.531  10.278  17.931  0.00  0.00    +0.000 C 
BRANCH   8   9
ATOM      9  C   UNL     1      -2.696  10.925  17.179  0.00  0.00    +0.000 C 
BRANCH   9  11
ATOM     10  C   UNL     1      -2.915  10.207  14.769  0.00  0.00    +0.000 C 
ATOM     11  C   UNL     1      -3.376   9.967  16.198  0.00  0.00    +0.000 C 
ENDBRANCH   9  11
ENDBRANCH   8   9
ENDBRANCH   2   8
BRANCH   4  12
ATOM     12  C   UNL     1       0.543  14.356  19.890  0.00  0.00    +0.000 C 
BRANCH  12  13
ATOM     13  C   UNL     1       1.329  15.075  18.766  0.00  0.00    +0.000 C 
ATOM     14  C   UNL     1       1.615  16.555  19.057  0.00  0.00    +0.000 C 
ATOM     15  C   UNL     1       2.764  16.805  20.025  0.00  0.00    +0.000 C 
ATOM     16  C   UNL     1       4.035  16.025  19.711  0.00  0.00    +0.000 C 
ATOM     17  C   UNL     1       3.837  14.604  19.193  0.00  0.00    +0.000 C 
ATOM     18  C   UNL     1       2.619  14.391  18.301  0.00  0.00    +0.000 C 
ENDBRANCH  12  13
ENDBRANCH   4  12
ENDBRANCH   1   7
BRANCH   1  19
ATOM     19  C   UNL     1       1.342   8.697  19.683  0.00  0.00    +0.000 A 
ATOM     20  C   UNL     1       1.885   7.556  20.279  0.00  0.00    +0.000 A 
ATOM     21  C   UNL     1       2.740   6.729  19.549  0.00  0.00    +0.000 A 
ATOM     22  C   UNL     1       3.036   6.993  18.199  0.00  0.00    +0.000 A 
ATOM     23  C   UNL     1       2.481   8.155  17.643  0.00  0.00    +0.000 A 
ATOM     24  C   UNL     1       1.735   9.047  18.393  0.00  0.00    +0.000 A 
BRANCH  22  25
ATOM     25  C   UNL     1       3.850   6.065  17.371  0.00  0.00    +0.000 A 
ATOM     26  C   UNL     1       4.898   6.602  16.583  0.00  0.00    +0.000 A 
ATOM     27  C   UNL     1       5.774   5.790  15.863  0.00  0.00    +0.000 A 
ATOM     28  C   UNL     1       5.645   4.410  15.930  0.00  0.00    +0.000 A 
ATOM     29  C   UNL     1       4.622   3.846  16.688  0.00  0.00    +0.000 A 
ATOM     30  C   UNL     1       3.694   4.650  17.375  0.00  0.00    +0.000 A 
BRANCH  30  31
ATOM     31  C   UNL     1       2.615   3.954  18.070  0.00  0.00    +0.000 A 
ATOM     32  N   UNL     1       2.807   3.300  19.272  0.00  0.00    +0.000 NA
ATOM     33  N   UNL     1       1.617   2.892  19.682  0.00  0.00    +0.000 NA
ATOM     34  N   UNL     1       0.769   3.312  18.735  0.00  0.00    +0.000 N 
ATOM     35  N   UNL     1       1.329   3.916  17.677  0.00  0.00    +0.000 NA
ATOM     36  H   UNL     1      -0.235   3.194  18.822  0.00  0.00    +0.000 HD
ENDBRANCH  30  31
ENDBRANCH  22  25
ENDBRANCH   1  19
TORSDOF 9
ENDMDL
MODEL 3
REMARK VINA RESULT:      -8.7      2.971      4.132
REMARK  Name = 
REMARK  10 active torsions:
REMARK  status: ('A' for Active; 'I' for Inactive)
REMARK    1  A    between atoms: C_1  and  C_2
REMARK    2  A    between atoms: C_2  and  C_3
REMARK    3  A    between atoms: C_3  and  C_4
REMARK    4  A    between atoms: C_4  and  C_5
REMARK    5  A    between atoms: N_7  and  C_8
REMARK    6  A    between atoms: C_8  and  C_9
REMARK    7  A    between atoms: N_17  and  C_18
REMARK    8  A    between atoms: C_18  and  C_19
REMARK    9  A    between atoms: C_22  and  C_23
REMARK   10  A    between atoms: C_28  and  C_29
REMARK                            x       y       z     vdW  Elec       q    Type
REMARK                         _______ _______ _______ _____ _____    ______ ____
ROOT
ATOM      1  C   UNL     1       1.782  10.413  18.563  0.00  0.00    +0.000 C 
ENDROOT
BRANCH   1   7
ATOM      2  C   UNL     1      -0.751  10.482  18.872  0.00  0.00    +0.000 A 
ATOM      3  N   UNL     1      -1.607  10.810  19.802  0.00  0.00    +0.000 NA
ATOM      4  N   UNL     1      -0.830  11.391  20.790  0.00  0.00    +0.000 N 
ATOM      5  C   UNL     1       0.502  11.370  20.405  0.00  0.00    +0.000 A 
ATOM      6  O   UNL     1       1.452  11.796  21.059  0.00  0.00    +0.000 OA
ATOM      7  N   UNL     1       0.523  10.774  19.187  0.00  0.00    +0.000 N 
BRANCH   2   8
ATOM      8  C   UNL     1      -1.103   9.805  17.561  0.00  0.00    +0.000 C 
BRANCH   8   9
ATOM      9  C   UNL     1      -2.545  10.024  17.097  0.00  0.00    +0.000 C 
BRANCH   9  11
ATOM     10  C   UNL     1      -3.678  10.647  14.930  0.00  0.00    +0.000 C 
ATOM     11  C   UNL     1      -2.758   9.657  15.626  0.00  0.00    +0.000 C 
ENDBRANCH   9  11
ENDBRANCH   8   9
ENDBRANCH   2   8
BRANCH   4  12
ATOM     12  C   UNL     1      -1.277  11.881  22.081  0.00  0.00    +0.000 C 
BRANCH  12  13
ATOM     13  C   UNL     1      -2.315  13.026  21.980  0.00  0.00    +0.000 C 
ATOM     14  C   UNL     1      -3.710  12.646  22.496  0.00  0.00    +0.000 C 
ATOM     15  C   UNL     1      -3.851  12.648  24.013  0.00  0.00    +0.000 C 
ATOM     16  C   UNL     1      -3.305  13.896  24.697  0.00  0.00    +0.000 C 
ATOM     17  C   UNL     1      -2.029  14.481  24.100  0.00  0.00    +0.000 C 
ATOM     18  C   UNL     1      -1.898  14.370  22.585  0.00  0.00    +0.000 C 
ENDBRANCH  12  13
ENDBRANCH   4  12
ENDBRANCH   1   7
BRANCH   1  19
ATOM     19  C   UNL     1       2.115   8.968  18.790  0.00  0.00    +0.000 A 
ATOM     20  C   UNL     1       1.820   8.328  19.995  0.00  0.00    +0.000 A 
ATOM     21  C   UNL     1       1.963   6.944  20.103  0.00  0.00    +0.000 A 
ATOM     22  C   UNL     1       2.357   6.163  19.000  0.00  0.00    +0.000 A 
ATOM     23  C   UNL     1       2.656   6.846  17.812  0.00  0.00    +0.000 A 
ATOM     24  C   UNL     1       2.638   8.227  17.732  0.00  0.00    +0.000 A 
BRANCH  22  25
ATOM     25  C   UNL     1       2.406   4.678  19.059  0.00  0.00    +0.000 A 
ATOM     26  C   UNL     1       1.199   3.969  19.276  0.00  0.00    +0.000 A 
ATOM     27  C   UNL     1       1.142   2.575  19.240  0.00  0.00    +0.000 A 
ATOM     28  C   UNL     1       2.288   1.848  18.956  0.00  0.00    +0.000 A 
ATOM     29  C   UNL     1       3.495   2.510  18.745  0.00  0.00    +0.000 A 
ATOM     30  C   UNL     1       3.584   3.911  18.835  0.00  0.00    +0.000 A 
BRANCH  30  31
ATOM     31  C   UNL     1       4.914   4.493  18.676  0.00  0.00    +0.000 A 
ATOM     32  N   UNL     1       5.671   4.918  19.750  0.00  0.00    +0.000 NA
ATOM     33  N   UNL     1       6.854   5.268  19.272  0.00  0.00    +0.000 NA
ATOM     34  N   UNL     1       6.770   5.040  17.956  0.00  0.00    +0.000 N 
ATOM     35  N   UNL     1       5.575   4.623  17.511  0.00  0.00    +0.000 NA
ATOM     36  H   UNL     1       7.565   5.158  17.337  0.00  0.00    +0.000 HD
ENDBRANCH  30  31
ENDBRANCH  22  25
ENDBRANCH   1  19
TORSDOF 9
ENDMDL
MODEL 4
REMARK VINA RESULT:      -8.6      0.773      1.538
REMARK  Name = 
REMARK  10 active torsions:
REMARK  status: ('A' for Active; 'I' for Inactive)
REMARK    1  A    between atoms: C_1  and  C_2
REMARK    2  A    between atoms: C_2  and  C_3
REMARK    3  A    between atoms: C_3  and  C_4
REMARK    4  A    between atoms: C_4  and  C_5
REMARK    5  A    between atoms: N_7  and  C_8
REMARK    6  A    between atoms: C_8  and  C_9
REMARK    7  A    between atoms: N_17  and  C_18
REMARK    8  A    between atoms: C_18  and  C_19
REMARK    9  A    between atoms: C_22  and  C_23
REMARK   10  A    between atoms: C_28  and  C_29
REMARK                            x       y       z     vdW  Elec       q    Type
REMARK                         _______ _______ _______ _____ _____    ______ ____
ROOT
ATOM      1  C   UNL     1       0.191   9.467  20.359  0.00  0.00    +0.000 C 
ENDROOT
BRANCH   1   7
ATOM      2  C   UNL     1      -0.707  11.233  18.752  0.00  0.00    +0.000 A 
ATOM      3  N   UNL     1      -0.719  12.536  18.647  0.00  0.00    +0.000 NA
ATOM      4  N   UNL     1       0.126  12.965  19.657  0.00  0.00    +0.000 N 
ATOM      5  C   UNL     1       0.611  11.869  20.355  0.00  0.00    +0.000 A 
ATOM      6  O   UNL     1       1.374  11.903  21.317  0.00  0.00    +0.000 OA
ATOM      7  N   UNL     1       0.053  10.782  19.765  0.00  0.00    +0.000 N 
BRANCH   2   8
ATOM      8  C   UNL     1      -1.482  10.279  17.863  0.00  0.00    +0.000 C 
BRANCH   8   9
ATOM      9  C   UNL     1      -3.000  10.471  17.891  0.00  0.00    +0.000 C 
BRANCH   9  11
ATOM     10  C   UNL     1      -2.956  10.441  15.368  0.00  0.00    +0.000 C 
ATOM     11  C   UNL     1      -3.543  11.101  16.606  0.00  0.00    +0.000 C 
ENDBRANCH   9  11
ENDBRANCH   8   9
ENDBRANCH   2   8
BRANCH   4  12
ATOM     12  C   UNL     1       0.424  14.337  20.024  0.00  0.00    +0.000 C 
BRANCH  12  13
ATOM     13  C   UNL     1       0.778  15.237  18.814  0.00  0.00    +0.000 C 
ATOM     14  C   UNL     1      -0.333  16.224  18.429  0.00  0.00    +0.000 C 
ATOM     15  C   UNL     1      -0.430  17.455  19.321  0.00  0.00    +0.000 C 
ATOM     16  C   UNL     1       0.900  18.156  19.575  0.00  0.00    +0.000 C 
ATOM     17  C   UNL     1       2.113  17.247  19.745  0.00  0.00    +0.000 C 
ATOM     18  C   UNL     1       2.113  15.983  18.895  0.00  0.00    +0.000 C 
ENDBRANCH  12  13
ENDBRANCH   4  12
ENDBRANCH   1   7
BRANCH   1  19
ATOM     19  C   UNL     1       1.282   8.677  19.698  0.00  0.00    +0.000 A 
ATOM     20  C   UNL     1       1.864   7.568  20.317  0.00  0.00    +0.000 A 
ATOM     21  C   UNL     1       2.732   6.745  19.599  0.00  0.00    +0.000 A 
ATOM     22  C   UNL     1       3.003   6.979  18.238  0.00  0.00    +0.000 A 
ATOM     23  C   UNL     1       2.410   8.110  17.658  0.00  0.00    +0.000 A 
ATOM     24  C   UNL     1       1.649   9.001  18.393  0.00  0.00    +0.000 A 
BRANCH  22  25
ATOM     25  C   UNL     1       3.832   6.051  17.425  0.00  0.00    +0.000 A 
ATOM     26  C   UNL     1       4.849   6.596  16.601  0.00  0.00    +0.000 A 
ATOM     27  C   UNL     1       5.738   5.789  15.891  0.00  0.00    +0.000 A 
ATOM     28  C   UNL     1       5.654   4.409  16.004  0.00  0.00    +0.000 A 
ATOM     29  C   UNL     1       4.663   3.838  16.798  0.00  0.00    +0.000 A 
ATOM     30  C   UNL     1       3.722   4.634  17.476  0.00  0.00    +0.000 A 
BRANCH  30  31
ATOM     31  C   UNL     1       2.679   3.926  18.213  0.00  0.00    +0.000 A 
ATOM     32  N   UNL     1       2.925   3.270  19.403  0.00  0.00    +0.000 NA
ATOM     33  N   UNL     1       1.756   2.850  19.860  0.00  0.00    +0.000 NA
ATOM     34  N   UNL     1       0.867   3.267  18.951  0.00  0.00    +0.000 N 
ATOM     35  N   UNL     1       1.377   3.879  17.872  0.00  0.00    +0.000 NA
ATOM     36  H   UNL     1      -0.132   3.141  19.078  0.00  0.00    +0.000 HD
ENDBRANCH  30  31
ENDBRANCH  22  25
ENDBRANCH   1  19
TORSDOF 9
ENDMDL
MODEL 5
REMARK VINA RESULT:      -8.5      0.542      1.023
REMARK  Name = 
REMARK  10 active torsions:
REMARK  status: ('A' for Active; 'I' for Inactive)
REMARK    1  A    between atoms: C_1  and  C_2
REMARK    2  A    between atoms: C_2  and  C_3
REMARK    3  A    between atoms: C_3  and  C_4
REMARK    4  A    between atoms: C_4  and  C_5
REMARK    5  A    between atoms: N_7  and  C_8
REMARK    6  A    between atoms: C_8  and  C_9
REMARK    7  A    between atoms: N_17  and  C_18
REMARK    8  A    between atoms: C_18  and  C_19
REMARK    9  A    between atoms: C_22  and  C_23
REMARK   10  A    between atoms: C_28  and  C_29
REMARK                            x       y       z     vdW  Elec       q    Type
REMARK                         _______ _______ _______ _____ _____    ______ ____
ROOT
ATOM      1  C   UNL     1       0.119   9.764  20.168  0.00  0.00    +0.000 C 
ENDROOT
BRANCH   1   7
ATOM      2  C   UNL     1      -1.129  11.302  18.559  0.00  0.00    +0.000 A 
ATOM      3  N   UNL     1      -1.117  12.563  18.214  0.00  0.00    +0.000 NA
ATOM      4  N   UNL     1      -0.003  13.079  18.854  0.00  0.00    +0.000 N 
ATOM      5  C   UNL     1       0.616  12.081  19.590  0.00  0.00    +0.000 A 
ATOM      6  O   UNL     1       1.622  12.209  20.283  0.00  0.00    +0.000 OA
ATOM      7  N   UNL     1      -0.130  10.965  19.394  0.00  0.00    +0.000 N 
BRANCH   2   8
ATOM      8  C   UNL     1      -2.163  10.285  18.115  0.00  0.00    +0.000 C 
BRANCH   8   9
ATOM      9  C   UNL     1      -2.002   9.800  16.672  0.00  0.00    +0.000 C 
BRANCH   9  11
ATOM     10  C   UNL     1      -4.169  11.044  16.315  0.00  0.00    +0.000 C 
ATOM     11  C   UNL     1      -2.865  10.587  15.682  0.00  0.00    +0.000 C 
ENDBRANCH   9  11
ENDBRANCH   8   9
ENDBRANCH   2   8
BRANCH   4  12
ATOM     12  C   UNL     1       0.442  14.461  18.856  0.00  0.00    +0.000 C 
BRANCH  12  13
ATOM     13  C   UNL     1      -0.179  15.307  19.995  0.00  0.00    +0.000 C 
ATOM     14  C   UNL     1       0.848  15.828  21.010  0.00  0.00    +0.000 C 
ATOM     15  C   UNL     1       1.649  17.038  20.544  0.00  0.00    +0.000 C 
ATOM     16  C   UNL     1       0.808  18.161  19.949  0.00  0.00    +0.000 C 
ATOM     17  C   UNL     1      -0.383  17.726  19.100  0.00  0.00    +0.000 C 
ATOM     18  C   UNL     1      -1.092  16.458  19.561  0.00  0.00    +0.000 C 
ENDBRANCH  12  13
ENDBRANCH   4  12
ENDBRANCH   1   7
BRANCH   1  19
ATOM     19  C   UNL     1       1.212   8.935  19.561  0.00  0.00    +0.000 A 
ATOM     20  C   UNL     1       1.780   7.856  20.242  0.00  0.00    +0.000 A 
ATOM     21  C   UNL     1       2.650   6.992  19.577  0.00  0.00    +0.000 A 
ATOM     22  C   UNL     1       2.938   7.155  18.209  0.00  0.00    +0.000 A 
ATOM     23  C   UNL     1       2.358   8.258  17.565  0.00  0.00    +0.000 A 
ATOM     24  C   UNL     1       1.595   9.190  18.245  0.00  0.00    +0.000 A 
BRANCH  22  25
ATOM     25  C   UNL     1       3.771   6.182  17.454  0.00  0.00    +0.000 A 
ATOM     26  C   UNL     1       4.859   6.671  16.689  0.00  0.00    +0.000 A 
ATOM     27  C   UNL     1       5.750   5.816  16.039  0.00  0.00    +0.000 A 
ATOM     28  C   UNL     1       5.596   4.443  16.157  0.00  0.00    +0.000 A 
ATOM     29  C   UNL     1       4.533   3.926  16.894  0.00  0.00    +0.000 A 
ATOM     30  C   UNL     1       3.591   4.771  17.509  0.00  0.00    +0.000 A 
BRANCH  30  31
ATOM     31  C   UNL     1       2.474   4.119  18.186  0.00  0.00    +0.000 A 
ATOM     32  N   UNL     1       1.283   3.834  17.547  0.00  0.00    +0.000 NA
ATOM     33  N   UNL     1       0.546   3.141  18.400  0.00  0.00    +0.000 NA
ATOM     34  N   UNL     1       1.306   3.030  19.495  0.00  0.00    +0.000 N 
ATOM     35  N   UNL     1       2.484   3.671  19.456  0.00  0.00    +0.000 NA
ATOM     36  H   UNL     1       1.016   2.483  20.299  0.00  0.00    +0.000 HD
ENDBRANCH  30  31
ENDBRANCH  22  25
ENDBRANCH   1  19
TORSDOF 9
ENDMDL
MODEL 6
REMARK VINA RESULT:      -8.5      0.629      1.005
REMARK  Name = 
REMARK  10 active torsions:
REMARK  status: ('A' for Active; 'I' for Inactive)
REMARK    1  A    between atoms: C_1  and  C_2
REMARK    2  A    between atoms: C_2  and  C_3
REMARK    3  A    between atoms: C_3  and  C_4
REMARK    4  A    between atoms: C_4  and  C_5
REMARK    5  A    between atoms: N_7  and  C_8
REMARK    6  A    between atoms: C_8  and  C_9
REMARK    7  A    between atoms: N_17  and  C_18
REMARK    8  A    between atoms: C_18  and  C_19
REMARK    9  A    between atoms: C_22  and  C_23
REMARK   10  A    between atoms: C_28  and  C_29
REMARK                            x       y       z     vdW  Elec       q    Type
REMARK                         _______ _______ _______ _____ _____    ______ ____
ROOT
ATOM      1  C   UNL     1       0.550   9.975  20.621  0.00  0.00    +0.000 C 
ENDROOT
BRANCH   1   7
ATOM      2  C   UNL     1      -0.813  11.502  19.095  0.00  0.00    +0.000 A 
ATOM      3  N   UNL     1      -0.855  12.768  18.775  0.00  0.00    +0.000 NA
ATOM      4  N   UNL     1       0.268  13.309  19.377  0.00  0.00    +0.000 N 
ATOM      5  C   UNL     1       0.948  12.317  20.067  0.00  0.00    +0.000 A 
ATOM      6  O   UNL     1       1.979  12.465  20.720  0.00  0.00    +0.000 OA
ATOM      7  N   UNL     1       0.230  11.181  19.881  0.00  0.00    +0.000 N 
BRANCH   2   8
ATOM      8  C   UNL     1      -1.832  10.460  18.675  0.00  0.00    +0.000 C 
BRANCH   8   9
ATOM      9  C   UNL     1      -1.786  10.084  17.192  0.00  0.00    +0.000 C 
BRANCH   9  11
ATOM     10  C   UNL     1      -2.918  10.239  14.942  0.00  0.00    +0.000 C 
ATOM     11  C   UNL     1      -2.909  10.733  16.380  0.00  0.00    +0.000 C 
ENDBRANCH   9  11
ENDBRANCH   8   9
ENDBRANCH   2   8
BRANCH   4  12
ATOM     12  C   UNL     1       0.669  14.704  19.388  0.00  0.00    +0.000 C 
BRANCH  12  13
ATOM     13  C   UNL     1      -0.494  15.682  19.090  0.00  0.00    +0.000 C 
ATOM     14  C   UNL     1      -1.226  16.176  20.345  0.00  0.00    +0.000 C 
ATOM     15  C   UNL     1      -0.499  17.269  21.119  0.00  0.00    +0.000 C 
ATOM     16  C   UNL     1       0.008  18.421  20.259  0.00  0.00    +0.000 C 
ATOM     17  C   UNL     1       0.551  18.040  18.885  0.00  0.00    +0.000 C 
ATOM     18  C   UNL     1      -0.156  16.879  18.196  0.00  0.00    +0.000 C 
ENDBRANCH  12  13
ENDBRANCH   4  12
ENDBRANCH   1   7
BRANCH   1  19
ATOM     19  C   UNL     1       1.217   8.955  19.747  0.00  0.00    +0.000 A 
ATOM     20  C   UNL     1       1.499   9.210  18.404  0.00  0.00    +0.000 A 
ATOM     21  C   UNL     1       2.291   8.321  17.676  0.00  0.00    +0.000 A 
ATOM     22  C   UNL     1       2.857   7.183  18.281  0.00  0.00    +0.000 A 
ATOM     23  C   UNL     1       2.538   6.955  19.629  0.00  0.00    +0.000 A 
ATOM     24  C   UNL     1       1.654   7.763  20.322  0.00  0.00    +0.000 A 
BRANCH  22  25
ATOM     25  C   UNL     1       3.794   6.285  17.558  0.00  0.00    +0.000 A 
ATOM     26  C   UNL     1       4.902   6.860  16.887  0.00  0.00    +0.000 A 
ATOM     27  C   UNL     1       5.884   6.081  16.275  0.00  0.00    +0.000 A 
ATOM     28  C   UNL     1       5.803   4.698  16.340  0.00  0.00    +0.000 A 
ATOM     29  C   UNL     1       4.725   4.096  16.985  0.00  0.00    +0.000 A 
ATOM     30  C   UNL     1       3.695   4.865  17.557  0.00  0.00    +0.000 A 
BRANCH  30  31
ATOM     31  C   UNL     1       2.574   4.129  18.134  0.00  0.00    +0.000 A 
ATOM     32  N   UNL     1       2.658   3.482  19.352  0.00  0.00    +0.000 NA
ATOM     33  N   UNL     1       1.447   3.030  19.632  0.00  0.00    +0.000 NA
ATOM     34  N   UNL     1       0.691   3.419  18.598  0.00  0.00    +0.000 N 
ATOM     35  N   UNL     1       1.339   4.044  17.604  0.00  0.00    +0.000 NA
ATOM     36  H   UNL     1      -0.311   3.264  18.576  0.00  0.00    +0.000 HD
ENDBRANCH  30  31
ENDBRANCH  22  25
ENDBRANCH   1  19
TORSDOF 9
ENDMDL
MODEL 7
REMARK VINA RESULT:      -8.5      1.049      1.598
REMARK  Name = 
REMARK  10 active torsions:
REMARK  status: ('A' for Active; 'I' for Inactive)
REMARK    1  A    between atoms: C_1  and  C_2
REMARK    2  A    between atoms: C_2  and  C_3
REMARK    3  A    between atoms: C_3  and  C_4
REMARK    4  A    between atoms: C_4  and  C_5
REMARK    5  A    between atoms: N_7  and  C_8
REMARK    6  A    between atoms: C_8  and  C_9
REMARK    7  A    between atoms: N_17  and  C_18
REMARK    8  A    between atoms: C_18  and  C_19
REMARK    9  A    between atoms: C_22  and  C_23
REMARK   10  A    between atoms: C_28  and  C_29
REMARK                            x       y       z     vdW  Elec       q    Type
REMARK                         _______ _______ _______ _____ _____    ______ ____
ROOT
ATOM      1  C   UNL     1       0.506   9.911  20.693  0.00  0.00    +0.000 C 
ENDROOT
BRANCH   1   7
ATOM      2  C   UNL     1      -0.666  11.565  19.143  0.00  0.00    +0.000 A 
ATOM      3  N   UNL     1      -0.651  12.849  18.902  0.00  0.00    +0.000 NA
ATOM      4  N   UNL     1       0.418  13.321  19.645  0.00  0.00    +0.000 N 
ATOM      5  C   UNL     1       1.006  12.270  20.333  0.00  0.00    +0.000 A 
ATOM      6  O   UNL     1       1.970  12.350  21.091  0.00  0.00    +0.000 OA
ATOM      7  N   UNL     1       0.287  11.168  20.005  0.00  0.00    +0.000 N 
BRANCH   2   8
ATOM      8  C   UNL     1      -1.661  10.579  18.559  0.00  0.00    +0.000 C 
BRANCH   8   9
ATOM      9  C   UNL     1      -3.004  11.191  18.155  0.00  0.00    +0.000 C 
BRANCH   9  11
ATOM     10  C   UNL     1      -2.640  10.420  15.780  0.00  0.00    +0.000 C 
ATOM     11  C   UNL     1      -3.625  10.507  16.935  0.00  0.00    +0.000 C 
ENDBRANCH   9  11
ENDBRANCH   8   9
ENDBRANCH   2   8
BRANCH   4  12
ATOM     12  C   UNL     1       0.846  14.701  19.784  0.00  0.00    +0.000 C 
BRANCH  12  13
ATOM     13  C   UNL     1       1.622  15.234  18.553  0.00  0.00    +0.000 C 
ATOM     14  C   UNL     1       1.978  16.724  18.642  0.00  0.00    +0.000 C 
ATOM     15  C   UNL     1       3.170  17.043  19.536  0.00  0.00    +0.000 C 
ATOM     16  C   UNL     1       4.396  16.172  19.287  0.00  0.00    +0.000 C 
ATOM     17  C   UNL     1       4.121  14.706  18.964  0.00  0.00    +0.000 C 
ATOM     18  C   UNL     1       2.865  14.438  18.144  0.00  0.00    +0.000 C 
ENDBRANCH  12  13
ENDBRANCH   4  12
ENDBRANCH   1   7
BRANCH   1  19
ATOM     19  C   UNL     1       1.178   8.906  19.804  0.00  0.00    +0.000 A 
ATOM     20  C   UNL     1       1.469   9.188  18.468  0.00  0.00    +0.000 A 
ATOM     21  C   UNL     1       2.265   8.312  17.728  0.00  0.00    +0.000 A 
ATOM     22  C   UNL     1       2.824   7.162  18.314  0.00  0.00    +0.000 A 
ATOM     23  C   UNL     1       2.496   6.908  19.654  0.00  0.00    +0.000 A 
ATOM     24  C   UNL     1       1.609   7.703  20.358  0.00  0.00    +0.000 A 
BRANCH  22  25
ATOM     25  C   UNL     1       3.765   6.277  17.579  0.00  0.00    +0.000 A 
ATOM     26  C   UNL     1       4.860   6.867  16.900  0.00  0.00    +0.000 A 
ATOM     27  C   UNL     1       5.845   6.101  16.277  0.00  0.00    +0.000 A 
ATOM     28  C   UNL     1       5.781   4.716  16.338  0.00  0.00    +0.000 A 
ATOM     29  C   UNL     1       4.715   4.100  16.990  0.00  0.00    +0.000 A 
ATOM     30  C   UNL     1       3.682   4.856  17.575  0.00  0.00    +0.000 A 
BRANCH  30  31
ATOM     31  C   UNL     1       2.574   4.105  18.159  0.00  0.00    +0.000 A 
ATOM     32  N   UNL     1       1.365   3.943  17.513  0.00  0.00    +0.000 NA
ATOM     33  N   UNL     1       0.641   3.118  18.253  0.00  0.00    +0.000 NA
ATOM     34  N   UNL     1       1.428   2.814  19.292  0.00  0.00    +0.000 N 
ATOM     35  N   UNL     1       2.612   3.444  19.331  0.00  0.00    +0.000 NA
ATOM     36  H   UNL     1       1.152   2.138  19.996  0.00  0.00    +0.000 HD
ENDBRANCH  30  31
ENDBRANCH  22  25
ENDBRANCH   1  19
TORSDOF 9
ENDMDL
MODEL 8
REMARK VINA RESULT:      -8.5      2.993      9.736
REMARK  Name = 
REMARK  10 active torsions:
REMARK  status: ('A' for Active; 'I' for Inactive)
REMARK    1  A    between atoms: C_1  and  C_2
REMARK    2  A    between atoms: C_2  and  C_3
REMARK    3  A    between atoms: C_3  and  C_4
REMARK    4  A    between atoms: C_4  and  C_5
REMARK    5  A    between atoms: N_7  and  C_8
REMARK    6  A    between atoms: C_8  and  C_9
REMARK    7  A    between atoms: N_17  and  C_18
REMARK    8  A    between atoms: C_18  and  C_19
REMARK    9  A    between atoms: C_22  and  C_23
REMARK   10  A    between atoms: C_28  and  C_29
REMARK                            x       y       z     vdW  Elec       q    Type
REMARK                         _______ _______ _______ _____ _____    ______ ____
ROOT
ATOM      1  C   UNL     1       3.645   5.885  19.698  0.00  0.00    +0.000 C 
ENDROOT
BRANCH   1   7
ATOM      2  C   UNL     1       2.841   4.228  17.932  0.00  0.00    +0.000 A 
ATOM      3  N   UNL     1       3.290   3.687  16.831  0.00  0.00    +0.000 NA
ATOM      4  N   UNL     1       4.615   4.084  16.774  0.00  0.00    +0.000 N 
ATOM      5  C   UNL     1       4.909   4.882  17.868  0.00  0.00    +0.000 A 
ATOM      6  O   UNL     1       5.993   5.408  18.112  0.00  0.00    +0.000 OA
ATOM      7  N   UNL     1       3.757   4.968  18.580  0.00  0.00    +0.000 N 
BRANCH   2   8
ATOM      8  C   UNL     1       1.423   4.092  18.456  0.00  0.00    +0.000 C 
BRANCH   8   9
ATOM      9  C   UNL     1       1.177   2.850  19.315  0.00  0.00    +0.000 C 
BRANCH   9  11
ATOM     10  C   UNL     1       2.335   2.922  21.556  0.00  0.00    +0.000 C 
ATOM     11  C   UNL     1       1.038   3.175  20.804  0.00  0.00    +0.000 C 
ENDBRANCH   9  11
ENDBRANCH   8   9
ENDBRANCH   2   8
BRANCH   4  12
ATOM     12  C   UNL     1       5.567   3.806  15.713  0.00  0.00    +0.000 C 
BRANCH  12  13
ATOM     13  C   UNL     1       5.360   4.682  14.453  0.00  0.00    +0.000 C 
ATOM     14  C   UNL     1       6.550   5.595  14.130  0.00  0.00    +0.000 C 
ATOM     15  C   UNL     1       7.725   4.897  13.456  0.00  0.00    +0.000 C 
ATOM     16  C   UNL     1       7.341   4.013  12.275  0.00  0.00    +0.000 C 
ATOM     17  C   UNL     1       6.037   3.234  12.419  0.00  0.00    +0.000 C 
ATOM     18  C   UNL     1       4.926   3.944  13.183  0.00  0.00    +0.000 C 
ENDBRANCH  12  13
ENDBRANCH   4  12
ENDBRANCH   1   7
BRANCH   1  19
ATOM     19  C   UNL     1       2.835   7.095  19.338  0.00  0.00    +0.000 A 
ATOM     20  C   UNL     1       2.867   7.645  18.055  0.00  0.00    +0.000 A 
ATOM     21  C   UNL     1       1.959   8.644  17.702  0.00  0.00    +0.000 A 
ATOM     22  C   UNL     1       0.971   9.085  18.602  0.00  0.00    +0.000 A 
ATOM     23  C   UNL     1       0.982   8.517  19.885  0.00  0.00    +0.000 A 
ATOM     24  C   UNL     1       1.955   7.618  20.284  0.00  0.00    +0.000 A 
BRANCH  22  25
ATOM     25  C   UNL     1      -0.077  10.064  18.211  0.00  0.00    +0.000 A 
ATOM     26  C   UNL     1      -1.203   9.599  17.487  0.00  0.00    +0.000 A 
ATOM     27  C   UNL     1      -2.278  10.431  17.175  0.00  0.00    +0.000 A 
ATOM     28  C   UNL     1      -2.272  11.750  17.602  0.00  0.00    +0.000 A 
ATOM     29  C   UNL     1      -1.179  12.245  18.309  0.00  0.00    +0.000 A 
ATOM     30  C   UNL     1      -0.061  11.437  18.584  0.00  0.00    +0.000 A 
BRANCH  30  31
ATOM     31  C   UNL     1       1.061  12.083  19.260  0.00  0.00    +0.000 A 
ATOM     32  N   UNL     1       2.031  12.791  18.577  0.00  0.00    +0.000 NA
ATOM     33  N   UNL     1       2.817  13.342  19.487  0.00  0.00    +0.000 NA
ATOM     34  N   UNL     1       2.298  12.961  20.660  0.00  0.00    +0.000 N 
ATOM     35  N   UNL     1       1.251  12.125  20.592  0.00  0.00    +0.000 NA
ATOM     36  H   UNL     1       2.664  13.296  21.545  0.00  0.00    +0.000 HD
ENDBRANCH  30  31
ENDBRANCH  22  25
ENDBRANCH   1  19
TORSDOF 9
ENDMDL
MODEL 9
REMARK VINA RESULT:      -8.5      3.015      4.039
REMARK  Name = 
REMARK  10 active torsions:
REMARK  status: ('A' for Active; 'I' for Inactive)
REMARK    1  A    between atoms: C_1  and  C_2
REMARK    2  A    between atoms: C_2  and  C_3
REMARK    3  A    between atoms: C_3  and  C_4
REMARK    4  A    between atoms: C_4  and  C_5
REMARK    5  A    between atoms: N_7  and  C_8
REMARK    6  A    between atoms: C_8  and  C_9
REMARK    7  A    between atoms: N_17  and  C_18
REMARK    8  A    between atoms: C_18  and  C_19
REMARK    9  A    between atoms: C_22  and  C_23
REMARK   10  A    between atoms: C_28  and  C_29
REMARK                            x       y       z     vdW  Elec       q    Type
REMARK                         _______ _______ _______ _____ _____    ______ ____
ROOT
ATOM      1  C   UNL     1       1.430  10.786  18.533  0.00  0.00    +0.000 C 
ENDROOT
BRANCH   1   7
ATOM      2  C   UNL     1      -1.113  10.983  18.617  0.00  0.00    +0.000 A 
ATOM      3  N   UNL     1      -2.021  11.516  19.389  0.00  0.00    +0.000 NA
ATOM      4  N   UNL     1      -1.295  12.265  20.300  0.00  0.00    +0.000 N 
ATOM      5  C   UNL     1       0.060  12.131  20.036  0.00  0.00    +0.000 A 
ATOM      6  O   UNL     1       0.976  12.656  20.665  0.00  0.00    +0.000 OA
ATOM      7  N   UNL     1       0.146  11.299  18.968  0.00  0.00    +0.000 N 
BRANCH   2   8
ATOM      8  C   UNL     1      -1.396  10.063  17.443  0.00  0.00    +0.000 C 
BRANCH   8   9
ATOM      9  C   UNL     1      -2.881   9.853  17.141  0.00  0.00    +0.000 C 
BRANCH   9  11
ATOM     10  C   UNL     1      -3.045  10.117  14.637  0.00  0.00    +0.000 C 
ATOM     11  C   UNL     1      -3.382  10.726  15.988  0.00  0.00    +0.000 C 
ENDBRANCH   9  11
ENDBRANCH   8   9
ENDBRANCH   2   8
BRANCH   4  12
ATOM     12  C   UNL     1      -1.815  13.019  21.426  0.00  0.00    +0.000 C 
BRANCH  12  13
ATOM     13  C   UNL     1      -3.140  12.449  21.991  0.00  0.00    +0.000 C 
ATOM     14  C   UNL     1      -3.157  12.321  23.520  0.00  0.00    +0.000 C 
ATOM     15  C   UNL     1      -3.397  13.628  24.267  0.00  0.00    +0.000 C 
ATOM     16  C   UNL     1      -4.572  14.447  23.745  0.00  0.00    +0.000 C 
ATOM     17  C   UNL     1      -4.767  14.445  22.232  0.00  0.00    +0.000 C 
ATOM     18  C   UNL     1      -4.425  13.140  21.524  0.00  0.00    +0.000 C 
ENDBRANCH  12  13
ENDBRANCH   4  12
ENDBRANCH   1   7
BRANCH   1  19
ATOM     19  C   UNL     1       1.564   9.320  18.822  0.00  0.00    +0.000 A 
ATOM     20  C   UNL     1       1.981   8.414  17.844  0.00  0.00    +0.000 A 
ATOM     21  C   UNL     1       2.281   7.098  18.196  0.00  0.00    +0.000 A 
ATOM     22  C   UNL     1       2.217   6.666  19.534  0.00  0.00    +0.000 A 
ATOM     23  C   UNL     1       1.781   7.603  20.483  0.00  0.00    +0.000 A 
ATOM     24  C   UNL     1       1.362   8.872  20.126  0.00  0.00    +0.000 A 
BRANCH  22  25
ATOM     25  C   UNL     1       2.642   5.303  19.948  0.00  0.00    +0.000 A 
ATOM     26  C   UNL     1       1.928   4.658  20.988  0.00  0.00    +0.000 A 
ATOM     27  C   UNL     1       2.194   3.340  21.362  0.00  0.00    +0.000 A 
ATOM     28  C   UNL     1       3.166   2.617  20.686  0.00  0.00    +0.000 A 
ATOM     29  C   UNL     1       3.893   3.220  19.663  0.00  0.00    +0.000 A 
ATOM     30  C   UNL     1       3.679   4.566  19.310  0.00  0.00    +0.000 A 
BRANCH  30  31
ATOM     31  C   UNL     1       4.554   5.118  18.280  0.00  0.00    +0.000 A 
ATOM     32  N   UNL     1       5.675   5.867  18.581  0.00  0.00    +0.000 NA
ATOM     33  N   UNL     1       6.300   6.099  17.439  0.00  0.00    +0.000 NA
ATOM     34  N   UNL     1       5.553   5.489  16.512  0.00  0.00    +0.000 N 
ATOM     35  N   UNL     1       4.422   4.920  16.955  0.00  0.00    +0.000 NA
ATOM     36  H   UNL     1       5.833   5.446  15.538  0.00  0.00    +0.000 HD
ENDBRANCH  30  31
ENDBRANCH  22  25
ENDBRANCH   1  19
TORSDOF 9
ENDMDL
