MODEL 1
REMARK VINA RESULT:      -8.8      0.000      0.000
REMARK  Name = 
REMARK  12 active torsions:
REMARK  status: ('A' for Active; 'I' for Inactive)
REMARK    1  A    between atoms: C_1  and  C_2
REMARK    2  A    between atoms: N_4  and  O_5
REMARK    3  A    between atoms: O_5  and  C_6
REMARK    4  A    between atoms: C_9  and  C_10
REMARK    5  A    between atoms: C_15  and  C_16
REMARK    6  A    between atoms: C_16  and  N_18
REMARK    7  A    between atoms: C_21  and  C_22
REMARK    8  A    between atoms: C_22  and  C_23
REMARK    9  A    between atoms: C_22  and  C_24
REMARK   10  A    between atoms: C_22  and  C_25
REMARK   11  A    between atoms: N_27  and  C_28
REMARK   12  A    between atoms: C_28  and  C_29
REMARK                            x       y       z     vdW  Elec       q    Type
REMARK                         _______ _______ _______ _____ _____    ______ ____
ROOT
ATOM      1  C   UNL     1       1.380   9.335  18.226  0.00  0.00    +0.000 C 
ATOM      2  O   UNL     1       2.124   9.657  17.304  0.00  0.00    +0.000 OA
ENDROOT
BRANCH   1   8
ATOM      3  C   UNL     1      -0.221  10.906  19.518  0.00  0.00    +0.000 A 
ATOM      4  C   UNL     1      -1.488  11.504  19.601  0.00  0.00    +0.000 A 
ATOM      5  C   UNL     1      -2.425  11.353  18.574  0.00  0.00    +0.000 A 
ATOM      6  C   UNL     1      -2.111  10.605  17.436  0.00  0.00    +0.000 A 
ATOM      7  C   UNL     1      -0.835  10.018  17.354  0.00  0.00    +0.000 A 
ATOM      8  C   UNL     1       0.115  10.130  18.397  0.00  0.00    +0.000 A 
BRANCH   6   9
ATOM      9  C   UNL     1      -3.116  10.383  16.328  0.00  0.00    +0.000 C 
ATOM     10  F   UNL     1      -3.056  11.322  15.344  0.00  0.00    +0.000 F 
ATOM     11  F   UNL     1      -2.957   9.181  15.708  0.00  0.00    +0.000 F 
ATOM     12  F   UNL     1      -4.399  10.403  16.783  0.00  0.00    +0.000 F 
ENDBRANCH   6   9
BRANCH   3  13
ATOM     13  O   UNL     1       0.577  11.078  20.628  0.00  0.00    +0.000 OA
BRANCH  13  17
ATOM     14  C   UNL     1       1.359   8.948  22.201  0.00  0.00    +0.000 C 
ATOM     15  C   UNL     1       0.334   9.927  22.694  0.00  0.00    +0.000 C 
ATOM     16  O   UNL     1      -0.037   9.951  23.866  0.00  0.00    +0.000 OA
ATOM     17  N   UNL     1      -0.178  10.799  21.785  0.00  0.00    +0.000 N 
ATOM     18  H   UNL     1      -0.575  11.620  22.225  0.00  0.00    +0.000 HD
ENDBRANCH  13  17
ENDBRANCH   3  13
ENDBRANCH   1   8
BRANCH   1  19
ATOM     19  N   UNL     1       1.583   8.229  19.037  0.00  0.00    +0.000 NA
ATOM     20  C   UNL     1       2.493   7.366  18.735  0.00  0.00    +0.000 A 
ATOM     21  S   UNL     1       3.729   7.577  17.470  0.00  0.00    +0.000 S 
ATOM     22  C   UNL     1       4.333   5.943  17.694  0.00  0.00    +0.000 A 
ATOM     23  C   UNL     1       3.725   5.385  18.753  0.00  0.00    +0.000 A 
ATOM     24  N   UNL     1       2.734   6.144  19.368  0.00  0.00    +0.000 N 
BRANCH  22  25
ATOM     25  C   UNL     1       5.326   5.335  16.721  0.00  0.00    +0.000 C 
ATOM     26  C   UNL     1       4.970   3.866  16.429  0.00  0.00    +0.000 C 
ATOM     27  C   UNL     1       5.360   6.099  15.382  0.00  0.00    +0.000 C 
ATOM     28  C   UNL     1       6.741   5.412  17.338  0.00  0.00    +0.000 C 
ENDBRANCH  22  25
BRANCH  24  29
ATOM     29  C   UNL     1       2.157   5.741  20.653  0.00  0.00    +0.000 C 
BRANCH  29  30
ATOM     30  C   UNL     1       1.245   4.515  20.600  0.00  0.00    +0.000 C 
ATOM     31  C   UNL     1       1.221   3.811  19.246  0.00  0.00    +0.000 C 
ATOM     32  C   UNL     1       1.873   2.474  19.500  0.00  0.00    +0.000 C 
ATOM     33  C   UNL     1       1.641   2.251  20.973  0.00  0.00    +0.000 C 
ATOM     34  O   UNL     1       1.717   3.548  21.568  0.00  0.00    +0.000 OA
ENDBRANCH  29  30
ENDBRANCH  24  29
ENDBRANCH   1  19
TORSDOF 8
ENDMDL
MODEL 2
REMARK VINA RESULT:      -8.4      1.018      1.602
REMARK  Name = 
REMARK  12 active torsions:
REMARK  status: ('A' for Active; 'I' for Inactive)
REMARK    1  A    between atoms: C_1  and  C_2
REMARK    2  A    between atoms: N_4  and  O_5
REMARK    3  A    between atoms: O_5  and  C_6
REMARK    4  A    between atoms: C_9  and  C_10
REMARK    5  A    between atoms: C_15  and  C_16
REMARK    6  A    between atoms: C_16  and  N_18
REMARK    7  A    between atoms: C_21  and  C_22
REMARK    8  A    between atoms: C_22  and  C_23
REMARK    9  A    between atoms: C_22  and  C_24
REMARK   10  A    between atoms: C_22  and  C_25
REMARK   11  A    between atoms: N_27  and  C_28
REMARK   12  A    between atoms: C_28  and  C_29
REMARK                            x       y       z     vdW  Elec       q    Type
REMARK                         _______ _______ _______ _____ _____    ______ ____
ROOT
ATOM      1  C   UNL     1       1.769   8.986  17.949  0.00  0.00    +0.000 C 
ATOM      2  O   UNL     1       2.756   9.593  17.539  0.00  0.00    +0.000 OA
ENDROOT
BRANCH   1   8
ATOM      3  C   UNL     1       0.332  10.567  19.410  0.00  0.00    +0.000 A 
ATOM      4  C   UNL     1      -0.911  11.182  19.626  0.00  0.00    +0.000 A 
ATOM      5  C   UNL     1      -1.949  11.057  18.698  0.00  0.00    +0.000 A 
ATOM      6  C   UNL     1      -1.763  10.316  17.527  0.00  0.00    +0.000 A 
ATOM      7  C   UNL     1      -0.512   9.712  17.311  0.00  0.00    +0.000 A 
ATOM      8  C   UNL     1       0.541   9.799  18.254  0.00  0.00    +0.000 A 
BRANCH   6   9
ATOM      9  C   UNL     1      -2.878  10.120  16.524  0.00  0.00    +0.000 C 
ATOM     10  F   UNL     1      -2.614   9.158  15.598  0.00  0.00    +0.000 F 
ATOM     11  F   UNL     1      -4.054   9.762  17.111  0.00  0.00    +0.000 F 
ATOM     12  F   UNL     1      -3.141  11.254  15.816  0.00  0.00    +0.000 F 
ENDBRANCH   6   9
BRANCH   3  13
ATOM     13  O   UNL     1       1.241  10.716  20.435  0.00  0.00    +0.000 OA
BRANCH  13  17
ATOM     14  C   UNL     1       1.090   8.295  21.755  0.00  0.00    +0.000 C 
ATOM     15  C   UNL     1       0.688   9.567  22.442  0.00  0.00    +0.000 C 
ATOM     16  O   UNL     1       0.484   9.620  23.653  0.00  0.00    +0.000 OA
ATOM     17  N   UNL     1       0.556  10.676  21.666  0.00  0.00    +0.000 N 
ATOM     18  H   UNL     1       0.628  11.530  22.205  0.00  0.00    +0.000 HD
ENDBRANCH  13  17
ENDBRANCH   3  13
ENDBRANCH   1   8
BRANCH   1  19
ATOM     19  N   UNL     1       1.691   7.605  18.040  0.00  0.00    +0.000 NA
ATOM     20  C   UNL     1       2.749   6.887  17.870  0.00  0.00    +0.000 A 
ATOM     21  S   UNL     1       4.412   7.516  17.769  0.00  0.00    +0.000 S 
ATOM     22  C   UNL     1       5.062   5.926  17.401  0.00  0.00    +0.000 A 
ATOM     23  C   UNL     1       4.087   5.010  17.516  0.00  0.00    +0.000 A 
ATOM     24  N   UNL     1       2.814   5.493  17.801  0.00  0.00    +0.000 N 
BRANCH  22  25
ATOM     25  C   UNL     1       6.501   5.753  16.951  0.00  0.00    +0.000 C 
ATOM     26  C   UNL     1       7.303   7.046  17.186  0.00  0.00    +0.000 C 
ATOM     27  C   UNL     1       7.203   4.605  17.704  0.00  0.00    +0.000 C 
ATOM     28  C   UNL     1       6.515   5.399  15.446  0.00  0.00    +0.000 C 
ENDBRANCH  22  25
BRANCH  24  29
ATOM     29  C   UNL     1       1.722   4.586  18.164  0.00  0.00    +0.000 C 
BRANCH  29  30
ATOM     30  C   UNL     1       2.093   3.486  19.159  0.00  0.00    +0.000 C 
ATOM     31  C   UNL     1       3.004   3.949  20.292  0.00  0.00    +0.000 C 
ATOM     32  C   UNL     1       2.152   3.847  21.533  0.00  0.00    +0.000 C 
ATOM     33  C   UNL     1       1.131   2.800  21.164  0.00  0.00    +0.000 C 
ATOM     34  O   UNL     1       0.879   2.991  19.771  0.00  0.00    +0.000 OA
ENDBRANCH  29  30
ENDBRANCH  24  29
ENDBRANCH   1  19
TORSDOF 8
ENDMDL
MODEL 3
REMARK VINA RESULT:      -8.4      0.744      1.228
REMARK  Name = 
REMARK  12 active torsions:
REMARK  status: ('A' for Active; 'I' for Inactive)
REMARK    1  A    between atoms: C_1  and  C_2
REMARK    2  A    between atoms: N_4  and  O_5
REMARK    3  A    between atoms: O_5  and  C_6
REMARK    4  A    between atoms: C_9  and  C_10
REMARK    5  A    between atoms: C_15  and  C_16
REMARK    6  A    between atoms: C_16  and  N_18
REMARK    7  A    between atoms: C_21  and  C_22
REMARK    8  A    between atoms: C_22  and  C_23
REMARK    9  A    between atoms: C_22  and  C_24
REMARK   10  A    between atoms: C_22  and  C_25
REMARK   11  A    between atoms: N_27  and  C_28
REMARK   12  A    between atoms: C_28  and  C_29
REMARK                            x       y       z     vdW  Elec       q    Type
REMARK                         _______ _______ _______ _____ _____    ______ ____
ROOT
ATOM      1  C   UNL     1       1.479   9.307  18.110  0.00  0.00    +0.000 C 
ATOM      2  O   UNL     1       2.228   9.729  17.233  0.00  0.00    +0.000 OA
ENDROOT
BRANCH   1   8
ATOM      3  C   UNL     1      -0.054  10.841  19.523  0.00  0.00    +0.000 A 
ATOM      4  C   UNL     1      -1.320  11.424  19.692  0.00  0.00    +0.000 A 
ATOM      5  C   UNL     1      -2.316  11.283  18.721  0.00  0.00    +0.000 A 
ATOM      6  C   UNL     1      -2.064  10.556  17.552  0.00  0.00    +0.000 A 
ATOM      7  C   UNL     1      -0.790   9.984  17.384  0.00  0.00    +0.000 A 
ATOM      8  C   UNL     1       0.220  10.088  18.370  0.00  0.00    +0.000 A 
BRANCH   6   9
ATOM      9  C   UNL     1      -3.132  10.343  16.503  0.00  0.00    +0.000 C 
ATOM     10  F   UNL     1      -2.960   9.204  15.777  0.00  0.00    +0.000 F 
ATOM     11  F   UNL     1      -4.382  10.262  17.037  0.00  0.00    +0.000 F 
ATOM     12  F   UNL     1      -3.176  11.359  15.597  0.00  0.00    +0.000 F 
ENDBRANCH   6   9
BRANCH   3  13
ATOM     13  O   UNL     1       0.807  11.002  20.586  0.00  0.00    +0.000 OA
BRANCH  13  17
ATOM     14  C   UNL     1       1.210   8.638  21.955  0.00  0.00    +0.000 C 
ATOM     15  C   UNL     1       0.468   9.775  22.594  0.00  0.00    +0.000 C 
ATOM     16  O   UNL     1       0.200   9.790  23.794  0.00  0.00    +0.000 OA
ATOM     17  N   UNL     1       0.097  10.805  21.787  0.00  0.00    +0.000 N 
ATOM     18  H   UNL     1      -0.074  11.657  22.308  0.00  0.00    +0.000 HD
ENDBRANCH  13  17
ENDBRANCH   3  13
ENDBRANCH   1   8
BRANCH   1  19
ATOM     19  N   UNL     1       1.672   8.113  18.786  0.00  0.00    +0.000 NA
ATOM     20  C   UNL     1       2.681   7.364  18.498  0.00  0.00    +0.000 A 
ATOM     21  S   UNL     1       4.044   7.835  17.452  0.00  0.00    +0.000 S 
ATOM     22  C   UNL     1       4.751   6.230  17.536  0.00  0.00    +0.000 A 
ATOM     23  C   UNL     1       4.064   5.487  18.420  0.00  0.00    +0.000 A 
ATOM     24  N   UNL     1       2.944   6.083  18.990  0.00  0.00    +0.000 N 
BRANCH  22  25
ATOM     25  C   UNL     1       5.906   5.833  16.635  0.00  0.00    +0.000 C 
ATOM     26  C   UNL     1       5.504   5.951  15.154  0.00  0.00    +0.000 C 
ATOM     27  C   UNL     1       7.147   6.719  16.871  0.00  0.00    +0.000 C 
ATOM     28  C   UNL     1       6.308   4.375  16.950  0.00  0.00    +0.000 C 
ENDBRANCH  22  25
BRANCH  24  29
ATOM     29  C   UNL     1       2.246   5.462  20.120  0.00  0.00    +0.000 C 
BRANCH  29  30
ATOM     30  C   UNL     1       2.640   4.014  20.411  0.00  0.00    +0.000 C 
ATOM     31  C   UNL     1       2.287   3.541  21.818  0.00  0.00    +0.000 C 
ATOM     32  C   UNL     1       1.217   2.497  21.613  0.00  0.00    +0.000 C 
ATOM     33  C   UNL     1       1.479   2.006  20.212  0.00  0.00    +0.000 C 
ATOM     34  O   UNL     1       1.934   3.152  19.488  0.00  0.00    +0.000 OA
ENDBRANCH  29  30
ENDBRANCH  24  29
ENDBRANCH   1  19
TORSDOF 8
ENDMDL
MODEL 4
REMARK VINA RESULT:      -8.4      1.532      2.015
REMARK  Name = 
REMARK  12 active torsions:
REMARK  status: ('A' for Active; 'I' for Inactive)
REMARK    1  A    between atoms: C_1  and  C_2
REMARK    2  A    between atoms: N_4  and  O_5
REMARK    3  A    between atoms: O_5  and  C_6
REMARK    4  A    between atoms: C_9  and  C_10
REMARK    5  A    between atoms: C_15  and  C_16
REMARK    6  A    between atoms: C_16  and  N_18
REMARK    7  A    between atoms: C_21  and  C_22
REMARK    8  A    between atoms: C_22  and  C_23
REMARK    9  A    between atoms: C_22  and  C_24
REMARK   10  A    between atoms: C_22  and  C_25
REMARK   11  A    between atoms: N_27  and  C_28
REMARK   12  A    between atoms: C_28  and  C_29
REMARK                            x       y       z     vdW  Elec       q    Type
REMARK                         _______ _______ _______ _____ _____    ______ ____
ROOT
ATOM      1  C   UNL     1       1.550   9.349  18.270  0.00  0.00    +0.000 C 
ATOM      2  O   UNL     1       2.258   9.630  17.307  0.00  0.00    +0.000 OA
ENDROOT
BRANCH   1   8
ATOM      3  C   UNL     1       0.243  11.291  19.376  0.00  0.00    +0.000 A 
ATOM      4  C   UNL     1      -0.992  11.926  19.583  0.00  0.00    +0.000 A 
ATOM      5  C   UNL     1      -2.143  11.499  18.913  0.00  0.00    +0.000 A 
ATOM      6  C   UNL     1      -2.082  10.429  18.016  0.00  0.00    +0.000 A 
ATOM      7  C   UNL     1      -0.840   9.804  17.805  0.00  0.00    +0.000 A 
ATOM      8  C   UNL     1       0.330  10.199  18.497  0.00  0.00    +0.000 A 
BRANCH   6   9
ATOM      9  C   UNL     1      -3.316   9.911  17.311  0.00  0.00    +0.000 C 
ATOM     10  F   UNL     1      -4.293  10.849  17.169  0.00  0.00    +0.000 F 
ATOM     11  F   UNL     1      -3.051   9.453  16.057  0.00  0.00    +0.000 F 
ATOM     12  F   UNL     1      -3.894   8.872  17.977  0.00  0.00    +0.000 F 
ENDBRANCH   6   9
BRANCH   3  13
ATOM     13  O   UNL     1       1.279  11.768  20.148  0.00  0.00    +0.000 OA
BRANCH  13  17
ATOM     14  C   UNL     1       1.658  14.255  21.286  0.00  0.00    +0.000 C 
ATOM     15  C   UNL     1       2.409  13.858  20.048  0.00  0.00    +0.000 C 
ATOM     16  O   UNL     1       3.356  14.513  19.618  0.00  0.00    +0.000 OA
ATOM     17  N   UNL     1       1.999  12.729  19.410  0.00  0.00    +0.000 N 
ATOM     18  H   UNL     1       2.724  12.338  18.822  0.00  0.00    +0.000 HD
ENDBRANCH  13  17
ENDBRANCH   3  13
ENDBRANCH   1   8
BRANCH   1  19
ATOM     19  N   UNL     1       1.749   8.244  19.083  0.00  0.00    +0.000 NA
ATOM     20  C   UNL     1       2.634   7.361  18.766  0.00  0.00    +0.000 A 
ATOM     21  S   UNL     1       3.847   7.541  17.474  0.00  0.00    +0.000 S 
ATOM     22  C   UNL     1       4.423   5.897  17.693  0.00  0.00    +0.000 A 
ATOM     23  C   UNL     1       3.827   5.356  18.769  0.00  0.00    +0.000 A 
ATOM     24  N   UNL     1       2.865   6.138  19.400  0.00  0.00    +0.000 N 
BRANCH  22  25
ATOM     25  C   UNL     1       5.383   5.264  16.703  0.00  0.00    +0.000 C 
ATOM     26  C   UNL     1       5.015   3.789  16.457  0.00  0.00    +0.000 C 
ATOM     27  C   UNL     1       5.373   5.996  15.346  0.00  0.00    +0.000 C 
ATOM     28  C   UNL     1       6.817   5.353  17.270  0.00  0.00    +0.000 C 
ENDBRANCH  22  25
BRANCH  24  29
ATOM     29  C   UNL     1       2.308   5.752  20.700  0.00  0.00    +0.000 C 
BRANCH  29  30
ATOM     30  C   UNL     1       1.324   4.583  20.664  0.00  0.00    +0.000 C 
ATOM     31  C   UNL     1       1.222   3.893  19.307  0.00  0.00    +0.000 C 
ATOM     32  C   UNL     1       1.800   2.517  19.533  0.00  0.00    +0.000 C 
ATOM     33  C   UNL     1       1.597   2.297  21.011  0.00  0.00    +0.000 C 
ATOM     34  O   UNL     1       1.765   3.582  21.612  0.00  0.00    +0.000 OA
ENDBRANCH  29  30
ENDBRANCH  24  29
ENDBRANCH   1  19
TORSDOF 8
ENDMDL
MODEL 5
REMARK VINA RESULT:      -8.2      1.474      2.137
REMARK  Name = 
REMARK  12 active torsions:
REMARK  status: ('A' for Active; 'I' for Inactive)
REMARK    1  A    between atoms: C_1  and  C_2
REMARK    2  A    between atoms: N_4  and  O_5
REMARK    3  A    between atoms: O_5  and  C_6
REMARK    4  A    between atoms: C_9  and  C_10
REMARK    5  A    between atoms: C_15  and  C_16
REMARK    6  A    between atoms: C_16  and  N_18
REMARK    7  A    between atoms: C_21  and  C_22
REMARK    8  A    between atoms: C_22  and  C_23
REMARK    9  A    between atoms: C_22  and  C_24
REMARK   10  A    between atoms: C_22  and  C_25
REMARK   11  A    between atoms: N_27  and  C_28
REMARK   12  A    between atoms: C_28  and  C_29
REMARK                            x       y       z     vdW  Elec       q    Type
REMARK                         _______ _______ _______ _____ _____    ______ ____
ROOT
ATOM      1  C   UNL     1       1.517   9.301  18.259  0.00  0.00    +0.000 C 
ATOM      2  O   UNL     1       2.236   9.557  17.297  0.00  0.00    +0.000 OA
ENDROOT
BRANCH   1   8
ATOM      3  C   UNL     1       0.233  11.300  19.287  0.00  0.00    +0.000 A 
ATOM      4  C   UNL     1      -0.996  11.951  19.477  0.00  0.00    +0.000 A 
ATOM      5  C   UNL     1      -2.157  11.500  18.841  0.00  0.00    +0.000 A 
ATOM      6  C   UNL     1      -2.112  10.388  17.995  0.00  0.00    +0.000 A 
ATOM      7  C   UNL     1      -0.876   9.747  17.799  0.00  0.00    +0.000 A 
ATOM      8  C   UNL     1       0.304  10.168  18.459  0.00  0.00    +0.000 A 
BRANCH   6   9
ATOM      9  C   UNL     1      -3.357   9.845  17.329  0.00  0.00    +0.000 C 
ATOM     10  F   UNL     1      -3.135   9.358  16.077  0.00  0.00    +0.000 F 
ATOM     11  F   UNL     1      -3.925   8.826  18.031  0.00  0.00    +0.000 F 
ATOM     12  F   UNL     1      -4.325  10.793  17.192  0.00  0.00    +0.000 F 
ENDBRANCH   6   9
BRANCH   3  13
ATOM     13  O   UNL     1       1.280  11.807  20.024  0.00  0.00    +0.000 OA
BRANCH  13  17
ATOM     14  C   UNL     1       2.897  13.142  18.228  0.00  0.00    +0.000 C 
ATOM     15  C   UNL     1       1.810  13.868  18.965  0.00  0.00    +0.000 C 
ATOM     16  O   UNL     1       1.457  15.005  18.657  0.00  0.00    +0.000 OA
ATOM     17  N   UNL     1       1.220  13.215  20.001  0.00  0.00    +0.000 N 
ATOM     18  H   UNL     1       0.305  13.591  20.219  0.00  0.00    +0.000 HD
ENDBRANCH  13  17
ENDBRANCH   3  13
ENDBRANCH   1   8
BRANCH   1  19
ATOM     19  N   UNL     1       1.697   8.209  19.093  0.00  0.00    +0.000 NA
ATOM     20  C   UNL     1       2.579   7.313  18.803  0.00  0.00    +0.000 A 
ATOM     21  S   UNL     1       3.808   7.460  17.523  0.00  0.00    +0.000 S 
ATOM     22  C   UNL     1       4.368   5.816  17.778  0.00  0.00    +0.000 A 
ATOM     23  C   UNL     1       3.755   5.300  18.856  0.00  0.00    +0.000 A 
ATOM     24  N   UNL     1       2.792   6.100  19.462  0.00  0.00    +0.000 N 
BRANCH  22  25
ATOM     25  C   UNL     1       5.334   5.157  16.811  0.00  0.00    +0.000 C 
ATOM     26  C   UNL     1       4.906   3.707  16.519  0.00  0.00    +0.000 C 
ATOM     27  C   UNL     1       5.412   5.917  15.472  0.00  0.00    +0.000 C 
ATOM     28  C   UNL     1       6.748   5.166  17.434  0.00  0.00    +0.000 C 
ENDBRANCH  22  25
BRANCH  24  29
ATOM     29  C   UNL     1       2.216   5.742  20.761  0.00  0.00    +0.000 C 
BRANCH  29  30
ATOM     30  C   UNL     1       1.428   4.432  20.785  0.00  0.00    +0.000 C 
ATOM     31  C   UNL     1       0.890   4.002  19.423  0.00  0.00    +0.000 C 
ATOM     32  C   UNL     1       1.658   2.746  19.090  0.00  0.00    +0.000 C 
ATOM     33  C   UNL     1       2.061   2.219  20.444  0.00  0.00    +0.000 C 
ATOM     34  O   UNL     1       2.305   3.377  21.244  0.00  0.00    +0.000 OA
ENDBRANCH  29  30
ENDBRANCH  24  29
ENDBRANCH   1  19
TORSDOF 8
ENDMDL
MODEL 6
REMARK VINA RESULT:      -8.1      3.116      4.213
REMARK  Name = 
REMARK  12 active torsions:
REMARK  status: ('A' for Active; 'I' for Inactive)
REMARK    1  A    between atoms: C_1  and  C_2
REMARK    2  A    between atoms: N_4  and  O_5
REMARK    3  A    between atoms: O_5  and  C_6
REMARK    4  A    between atoms: C_9  and  C_10
REMARK    5  A    between atoms: C_15  and  C_16
REMARK    6  A    between atoms: C_16  and  N_18
REMARK    7  A    between atoms: C_21  and  C_22
REMARK    8  A    between atoms: C_22  and  C_23
REMARK    9  A    between atoms: C_22  and  C_24
REMARK   10  A    between atoms: C_22  and  C_25
REMARK   11  A    between atoms: N_27  and  C_28
REMARK   12  A    between atoms: C_28  and  C_29
REMARK                            x       y       z     vdW  Elec       q    Type
REMARK                         _______ _______ _______ _____ _____    ______ ____
ROOT
ATOM      1  C   UNL     1       1.571   8.571  18.001  0.00  0.00    +0.000 C 
ATOM      2  O   UNL     1       2.248   9.253  17.237  0.00  0.00    +0.000 OA
ENDROOT
BRANCH   1   8
ATOM      3  C   UNL     1      -0.519  10.064  18.320  0.00  0.00    +0.000 A 
ATOM      4  C   UNL     1      -1.347  10.777  19.202  0.00  0.00    +0.000 A 
ATOM      5  C   UNL     1      -1.152  10.713  20.585  0.00  0.00    +0.000 A 
ATOM      6  C   UNL     1      -0.124   9.928  21.117  0.00  0.00    +0.000 A 
ATOM      7  C   UNL     1       0.695   9.208  20.229  0.00  0.00    +0.000 A 
ATOM      8  C   UNL     1       0.534   9.285  18.824  0.00  0.00    +0.000 A 
BRANCH   6   9
ATOM      9  C   UNL     1       0.146   9.874  22.604  0.00  0.00    +0.000 C 
ATOM     10  F   UNL     1      -0.523   8.873  23.241  0.00  0.00    +0.000 F 
ATOM     11  F   UNL     1       1.463   9.686  22.892  0.00  0.00    +0.000 F 
ATOM     12  F   UNL     1      -0.217  11.024  23.238  0.00  0.00    +0.000 F 
ENDBRANCH   6   9
BRANCH   3  13
ATOM     13  O   UNL     1      -0.781  10.270  16.983  0.00  0.00    +0.000 OA
BRANCH  13  17
ATOM     14  C   UNL     1      -2.731   9.838  15.077  0.00  0.00    +0.000 C 
ATOM     15  C   UNL     1      -2.897  10.913  16.111  0.00  0.00    +0.000 C 
ATOM     16  O   UNL     1      -3.968  11.491  16.288  0.00  0.00    +0.000 OA
ATOM     17  N   UNL     1      -1.805  11.230  16.857  0.00  0.00    +0.000 N 
ATOM     18  H   UNL     1      -2.055  11.682  17.728  0.00  0.00    +0.000 HD
ENDBRANCH  13  17
ENDBRANCH   3  13
ENDBRANCH   1   8
BRANCH   1  19
ATOM     19  N   UNL     1       1.632   7.188  18.067  0.00  0.00    +0.000 NA
ATOM     20  C   UNL     1       2.765   6.585  17.932  0.00  0.00    +0.000 A 
ATOM     21  S   UNL     1       4.357   7.384  17.913  0.00  0.00    +0.000 S 
ATOM     22  C   UNL     1       5.183   5.878  17.549  0.00  0.00    +0.000 A 
ATOM     23  C   UNL     1       4.304   4.863  17.607  0.00  0.00    +0.000 A 
ATOM     24  N   UNL     1       2.977   5.207  17.844  0.00  0.00    +0.000 N 
BRANCH  22  25
ATOM     25  C   UNL     1       6.649   5.862  17.159  0.00  0.00    +0.000 C 
ATOM     26  C   UNL     1       7.435   4.875  18.041  0.00  0.00    +0.000 C 
ATOM     27  C   UNL     1       6.846   5.454  15.685  0.00  0.00    +0.000 C 
ATOM     28  C   UNL     1       7.227   7.285  17.329  0.00  0.00    +0.000 C 
ENDBRANCH  22  25
BRANCH  24  29
ATOM     29  C   UNL     1       1.971   4.186  18.145  0.00  0.00    +0.000 C 
BRANCH  29  30
ATOM     30  C   UNL     1       1.384   4.246  19.556  0.00  0.00    +0.000 C 
ATOM     31  C   UNL     1       0.757   2.938  20.029  0.00  0.00    +0.000 C 
ATOM     32  C   UNL     1       1.651   2.470  21.151  0.00  0.00    +0.000 C 
ATOM     33  C   UNL     1       2.280   3.748  21.646  0.00  0.00    +0.000 C 
ATOM     34  O   UNL     1       2.450   4.561  20.483  0.00  0.00    +0.000 OA
ENDBRANCH  29  30
ENDBRANCH  24  29
ENDBRANCH   1  19
TORSDOF 8
ENDMDL
MODEL 7
REMARK VINA RESULT:      -8.1      0.831      1.336
REMARK  Name = 
REMARK  12 active torsions:
REMARK  status: ('A' for Active; 'I' for Inactive)
REMARK    1  A    between atoms: C_1  and  C_2
REMARK    2  A    between atoms: N_4  and  O_5
REMARK    3  A    between atoms: O_5  and  C_6
REMARK    4  A    between atoms: C_9  and  C_10
REMARK    5  A    between atoms: C_15  and  C_16
REMARK    6  A    between atoms: C_16  and  N_18
REMARK    7  A    between atoms: C_21  and  C_22
REMARK    8  A    between atoms: C_22  and  C_23
REMARK    9  A    between atoms: C_22  and  C_24
REMARK   10  A    between atoms: C_22  and  C_25
REMARK   11  A    between atoms: N_27  and  C_28
REMARK   12  A    between atoms: C_28  and  C_29
REMARK                            x       y       z     vdW  Elec       q    Type
REMARK                         _______ _______ _______ _____ _____    ______ ____
ROOT
ATOM      1  C   UNL     1       1.286   9.413  18.320  0.00  0.00    +0.000 C 
ATOM      2  O   UNL     1       2.103   9.808  17.491  0.00  0.00    +0.000 OA
ENDROOT
BRANCH   1   8
ATOM      3  C   UNL     1      -0.539  10.846  19.467  0.00  0.00    +0.000 A 
ATOM      4  C   UNL     1      -1.844  11.363  19.427  0.00  0.00    +0.000 A 
ATOM      5  C   UNL     1      -2.655  11.186  18.302  0.00  0.00    +0.000 A 
ATOM      6  C   UNL     1      -2.174  10.491  17.187  0.00  0.00    +0.000 A 
ATOM      7  C   UNL     1      -0.863   9.986  17.230  0.00  0.00    +0.000 A 
ATOM      8  C   UNL     1      -0.037  10.125  18.372  0.00  0.00    +0.000 A 
BRANCH   6   9
ATOM      9  C   UNL     1      -3.041  10.241  15.973  0.00  0.00    +0.000 C 
ATOM     10  F   UNL     1      -4.363  10.109  16.268  0.00  0.00    +0.000 F 
ATOM     11  F   UNL     1      -2.961  11.244  15.056  0.00  0.00    +0.000 F 
ATOM     12  F   UNL     1      -2.691   9.101  15.315  0.00  0.00    +0.000 F 
ENDBRANCH   6   9
BRANCH   3  13
ATOM     13  O   UNL     1       0.125  11.034  20.660  0.00  0.00    +0.000 OA
BRANCH  13  17
ATOM     14  C   UNL     1      -0.761  10.041  23.079  0.00  0.00    +0.000 C 
ATOM     15  C   UNL     1      -0.867  11.505  22.769  0.00  0.00    +0.000 C 
ATOM     16  O   UNL     1      -1.144  12.339  23.629  0.00  0.00    +0.000 OA
ATOM     17  N   UNL     1      -0.641  11.885  21.483  0.00  0.00    +0.000 N 
ATOM     18  H   UNL     1      -0.388  12.863  21.411  0.00  0.00    +0.000 HD
ENDBRANCH  13  17
ENDBRANCH   3  13
ENDBRANCH   1   8
BRANCH   1  19
ATOM     19  N   UNL     1       1.472   8.298  19.122  0.00  0.00    +0.000 NA
ATOM     20  C   UNL     1       2.384   7.435  18.825  0.00  0.00    +0.000 A 
ATOM     21  S   UNL     1       3.643   7.656  17.585  0.00  0.00    +0.000 S 
ATOM     22  C   UNL     1       4.237   6.018  17.801  0.00  0.00    +0.000 A 
ATOM     23  C   UNL     1       3.609   5.451  18.843  0.00  0.00    +0.000 A 
ATOM     24  N   UNL     1       2.610   6.206  19.449  0.00  0.00    +0.000 N 
BRANCH  22  25
ATOM     25  C   UNL     1       5.245   5.417  16.839  0.00  0.00    +0.000 C 
ATOM     26  C   UNL     1       5.252   6.189  15.507  0.00  0.00    +0.000 C 
ATOM     27  C   UNL     1       6.675   5.440  17.417  0.00  0.00    +0.000 C 
ATOM     28  C   UNL     1       4.871   3.940  16.582  0.00  0.00    +0.000 C 
ENDBRANCH  22  25
BRANCH  24  29
ATOM     29  C   UNL     1       2.010   5.790  20.719  0.00  0.00    +0.000 C 
BRANCH  29  30
ATOM     30  C   UNL     1       1.566   4.328  20.781  0.00  0.00    +0.000 C 
ATOM     31  C   UNL     1       0.748   3.872  19.576  0.00  0.00    +0.000 C 
ATOM     32  C   UNL     1       1.631   2.868  18.875  0.00  0.00    +0.000 C 
ATOM     33  C   UNL     1       2.526   2.366  19.979  0.00  0.00    +0.000 C 
ATOM     34  O   UNL     1       2.746   3.492  20.831  0.00  0.00    +0.000 OA
ENDBRANCH  29  30
ENDBRANCH  24  29
ENDBRANCH   1  19
TORSDOF 8
ENDMDL
MODEL 8
REMARK VINA RESULT:      -8.1      3.285      4.132
REMARK  Name = 
REMARK  12 active torsions:
REMARK  status: ('A' for Active; 'I' for Inactive)
REMARK    1  A    between atoms: C_1  and  C_2
REMARK    2  A    between atoms: N_4  and  O_5
REMARK    3  A    between atoms: O_5  and  C_6
REMARK    4  A    between atoms: C_9  and  C_10
REMARK    5  A    between atoms: C_15  and  C_16
REMARK    6  A    between atoms: C_16  and  N_18
REMARK    7  A    between atoms: C_21  and  C_22
REMARK    8  A    between atoms: C_22  and  C_23
REMARK    9  A    between atoms: C_22  and  C_24
REMARK   10  A    between atoms: C_22  and  C_25
REMARK   11  A    between atoms: N_27  and  C_28
REMARK   12  A    between atoms: C_28  and  C_29
REMARK                            x       y       z     vdW  Elec       q    Type
REMARK                         _______ _______ _______ _____ _____    ______ ____
ROOT
ATOM      1  C   UNL     1       1.820   8.659  18.552  0.00  0.00    +0.000 C 
ATOM      2  O   UNL     1       1.930   8.909  17.354  0.00  0.00    +0.000 OA
ENDROOT
BRANCH   1   8
ATOM      3  C   UNL     1       1.395  11.124  19.220  0.00  0.00    +0.000 A 
ATOM      4  C   UNL     1       0.920  12.028  20.183  0.00  0.00    +0.000 A 
ATOM      5  C   UNL     1       0.291  11.578  21.348  0.00  0.00    +0.000 A 
ATOM      6  C   UNL     1       0.119  10.208  21.573  0.00  0.00    +0.000 A 
ATOM      7  C   UNL     1       0.587   9.308  20.599  0.00  0.00    +0.000 A 
ATOM      8  C   UNL     1       1.256   9.742  19.429  0.00  0.00    +0.000 A 
BRANCH   6   9
ATOM      9  C   UNL     1      -0.513   9.685  22.843  0.00  0.00    +0.000 C 
ATOM     10  F   UNL     1      -1.090   8.460  22.698  0.00  0.00    +0.000 F 
ATOM     11  F   UNL     1       0.381   9.559  23.861  0.00  0.00    +0.000 F 
ATOM     12  F   UNL     1      -1.497  10.506  23.306  0.00  0.00    +0.000 F 
ENDBRANCH   6   9
BRANCH   3  13
ATOM     13  O   UNL     1       2.053  11.699  18.156  0.00  0.00    +0.000 OA
BRANCH  13  17
ATOM     14  C   UNL     1       3.938  13.648  18.677  0.00  0.00    +0.000 C 
ATOM     15  C   UNL     1       2.623  14.005  18.049  0.00  0.00    +0.000 C 
ATOM     16  O   UNL     1       2.412  15.111  17.555  0.00  0.00    +0.000 OA
ATOM     17  N   UNL     1       1.657  13.048  18.045  0.00  0.00    +0.000 N 
ATOM     18  H   UNL     1       0.957  13.214  17.333  0.00  0.00    +0.000 HD
ENDBRANCH  13  17
ENDBRANCH   3  13
ENDBRANCH   1   8
BRANCH   1  19
ATOM     19  N   UNL     1       2.082   7.420  19.113  0.00  0.00    +0.000 NA
ATOM     20  C   UNL     1       3.178   6.801  18.828  0.00  0.00    +0.000 A 
ATOM     21  S   UNL     1       4.556   7.505  17.947  0.00  0.00    +0.000 S 
ATOM     22  C   UNL     1       5.408   5.970  17.918  0.00  0.00    +0.000 A 
ATOM     23  C   UNL     1       4.739   5.076  18.663  0.00  0.00    +0.000 A 
ATOM     24  N   UNL     1       3.530   5.501  19.203  0.00  0.00    +0.000 N 
BRANCH  22  25
ATOM     25  C   UNL     1       6.655   5.782  17.073  0.00  0.00    +0.000 C 
ATOM     26  C   UNL     1       7.519   7.056  17.089  0.00  0.00    +0.000 C 
ATOM     27  C   UNL     1       7.517   4.607  17.578  0.00  0.00    +0.000 C 
ATOM     28  C   UNL     1       6.232   5.460  15.622  0.00  0.00    +0.000 C 
ENDBRANCH  22  25
BRANCH  24  29
ATOM     29  C   UNL     1       2.821   4.699  20.204  0.00  0.00    +0.000 C 
BRANCH  29  30
ATOM     30  C   UNL     1       2.199   3.405  19.678  0.00  0.00    +0.000 C 
ATOM     31  C   UNL     1       1.594   3.524  18.282  0.00  0.00    +0.000 C 
ATOM     32  C   UNL     1       2.472   2.659  17.411  0.00  0.00    +0.000 C 
ATOM     33  C   UNL     1       3.057   1.669  18.387  0.00  0.00    +0.000 C 
ATOM     34  O   UNL     1       3.234   2.396  19.604  0.00  0.00    +0.000 OA
ENDBRANCH  29  30
ENDBRANCH  24  29
ENDBRANCH   1  19
TORSDOF 8
ENDMDL
MODEL 9
REMARK VINA RESULT:      -8.1      0.873      1.210
REMARK  Name = 
REMARK  12 active torsions:
REMARK  status: ('A' for Active; 'I' for Inactive)
REMARK    1  A    between atoms: C_1  and  C_2
REMARK    2  A    between atoms: N_4  and  O_5
REMARK    3  A    between atoms: O_5  and  C_6
REMARK    4  A    between atoms: C_9  and  C_10
REMARK    5  A    between atoms: C_15  and  C_16
REMARK    6  A    between atoms: C_16  and  N_18
REMARK    7  A    between atoms: C_21  and  C_22
REMARK    8  A    between atoms: C_22  and  C_23
REMARK    9  A    between atoms: C_22  and  C_24
REMARK   10  A    between atoms: C_22  and  C_25
REMARK   11  A    between atoms: N_27  and  C_28
REMARK   12  A    between atoms: C_28  and  C_29
REMARK                            x       y       z     vdW  Elec       q    Type
REMARK                         _______ _______ _______ _____ _____    ______ ____
ROOT
ATOM      1  C   UNL     1       1.291   9.202  18.186  0.00  0.00    +0.000 C 
ATOM      2  O   UNL     1       2.014   9.489  17.235  0.00  0.00    +0.000 OA
ENDROOT
BRANCH   1   8
ATOM      3  C   UNL     1      -0.305  10.743  19.519  0.00  0.00    +0.000 A 
ATOM      4  C   UNL     1      -1.561  11.365  19.602  0.00  0.00    +0.000 A 
ATOM      5  C   UNL     1      -2.476  11.289  18.547  0.00  0.00    +0.000 A 
ATOM      6  C   UNL     1      -2.150  10.590  17.380  0.00  0.00    +0.000 A 
ATOM      7  C   UNL     1      -0.887   9.979  17.298  0.00  0.00    +0.000 A 
ATOM      8  C   UNL     1       0.041  10.017  18.368  0.00  0.00    +0.000 A 
BRANCH   6   9
ATOM      9  C   UNL     1      -3.133  10.447  16.240  0.00  0.00    +0.000 C 
ATOM     10  F   UNL     1      -3.169   9.194  15.708  0.00  0.00    +0.000 F 
ATOM     11  F   UNL     1      -4.412  10.734  16.610  0.00  0.00    +0.000 F 
ATOM     12  F   UNL     1      -2.847  11.282  15.202  0.00  0.00    +0.000 F 
ENDBRANCH   6   9
BRANCH   3  13
ATOM     13  O   UNL     1       0.469  10.841  20.654  0.00  0.00    +0.000 OA
BRANCH  13  17
ATOM     14  C   UNL     1      -0.858  10.686  23.070  0.00  0.00    +0.000 C 
ATOM     15  C   UNL     1      -0.389   9.442  22.374  0.00  0.00    +0.000 C 
ATOM     16  O   UNL     1      -0.749   8.320  22.725  0.00  0.00    +0.000 OA
ATOM     17  N   UNL     1       0.461   9.602  21.324  0.00  0.00    +0.000 N 
ATOM     18  H   UNL     1       0.460   8.799  20.706  0.00  0.00    +0.000 HD
ENDBRANCH  13  17
ENDBRANCH   3  13
ENDBRANCH   1   8
BRANCH   1  19
ATOM     19  N   UNL     1       1.504   8.118  19.023  0.00  0.00    +0.000 NA
ATOM     20  C   UNL     1       2.522   7.348  18.835  0.00  0.00    +0.000 A 
ATOM     21  S   UNL     1       3.872   7.684  17.723  0.00  0.00    +0.000 S 
ATOM     22  C   UNL     1       4.601   6.115  18.027  0.00  0.00    +0.000 A 
ATOM     23  C   UNL     1       3.930   5.496  19.012  0.00  0.00    +0.000 A 
ATOM     24  N   UNL     1       2.804   6.152  19.501  0.00  0.00    +0.000 N 
BRANCH  22  25
ATOM     25  C   UNL     1       5.756   5.610  17.182  0.00  0.00    +0.000 C 
ATOM     26  C   UNL     1       6.343   4.320  17.782  0.00  0.00    +0.000 C 
ATOM     27  C   UNL     1       5.319   5.314  15.733  0.00  0.00    +0.000 C 
ATOM     28  C   UNL     1       6.848   6.701  17.126  0.00  0.00    +0.000 C 
ENDBRANCH  22  25
BRANCH  24  29
ATOM     29  C   UNL     1       2.122   5.689  20.712  0.00  0.00    +0.000 C 
BRANCH  29  30
ATOM     30  C   UNL     1       1.863   4.184  20.777  0.00  0.00    +0.000 C 
ATOM     31  C   UNL     1       0.666   3.720  19.951  0.00  0.00    +0.000 C 
ATOM     32  C   UNL     1       1.267   2.884  18.847  0.00  0.00    +0.000 C 
ATOM     33  C   UNL     1       2.571   2.415  19.440  0.00  0.00    +0.000 C 
ATOM     34  O   UNL     1       3.025   3.495  20.258  0.00  0.00    +0.000 OA
ENDBRANCH  29  30
ENDBRANCH  24  29
ENDBRANCH   1  19
TORSDOF 8
ENDMDL
