MODEL 1
REMARK VINA RESULT:      -8.4      0.000      0.000
REMARK  Name = 
REMARK  8 active torsions:
REMARK  status: ('A' for Active; 'I' for Inactive)
REMARK    1  A    between atoms: O_1  and  N_2
REMARK    2  A    between atoms: C_3  and  C_4
REMARK    3  A    between atoms: N_7  and  C_8
REMARK    4  A    between atoms: C_8  and  C_9
REMARK    5  A    between atoms: C_9  and  C_10
REMARK    6  A    between atoms: C_10  and  C_11
REMARK    7  A    between atoms: C_11  and  N_12
REMARK    8  A    between atoms: N_12  and  C_13
REMARK                            x       y       z     vdW  Elec       q    Type
REMARK                         _______ _______ _______ _____ _____    ______ ____
ROOT
ATOM      1  N   UNL     1       2.792   7.333  18.693  0.00  0.00    +0.000 N 
ATOM      2  H   UNL     1       2.477   7.353  19.659  0.00  0.00    +0.000 HD
ENDROOT
BRANCH   1   3
ATOM      3  C   UNL     1       3.140   5.972  18.324  0.00  0.00    +0.000 A 
ATOM      4  C   UNL     1       4.094   5.645  17.292  0.00  0.00    +0.000 A 
ATOM      5  C   UNL     1       4.343   4.292  17.058  0.00  0.00    +0.000 A 
ATOM      6  N   UNL     1       3.777   3.294  17.751  0.00  0.00    +0.000 NA
ATOM      7  C   UNL     1       2.938   3.564  18.717  0.00  0.00    +0.000 A 
ATOM      8  C   UNL     1       2.447   2.411  19.305  0.00  0.00    +0.000 A 
ATOM      9  C   UNL     1       1.526   2.469  20.318  0.00  0.00    +0.000 A 
ATOM     10  C   UNL     1       1.127   3.711  20.784  0.00  0.00    +0.000 A 
ATOM     11  C   UNL     1       1.630   4.895  20.194  0.00  0.00    +0.000 A 
ATOM     12  C   UNL     1       2.556   4.863  19.103  0.00  0.00    +0.000 A 
ATOM     13  C   UNL     1       5.199   3.732  15.979  0.00  0.00    +0.000 C 
ATOM     14  C   UNL     1       6.049   4.663  15.163  0.00  0.00    +0.000 C 
ATOM     15  C   UNL     1       5.847   6.147  15.376  0.00  0.00    +0.000 C 
ATOM     16  C   UNL     1       4.861   6.631  16.450  0.00  0.00    +0.000 C 
ENDBRANCH   1   3
BRANCH   1  17
ATOM     17  C   UNL     1       1.888   8.085  17.805  0.00  0.00    +0.000 C 
BRANCH  17  18
ATOM     18  C   UNL     1       1.927   9.634  17.912  0.00  0.00    +0.000 C 
BRANCH  18  19
ATOM     19  C   UNL     1       0.723  10.109  18.780  0.00  0.00    +0.000 C 
BRANCH  19  20
ATOM     20  C   UNL     1       0.678   9.623  20.240  0.00  0.00    +0.000 C 
BRANCH  20  24
ATOM     21  C   UNL     1      -2.124  11.949  22.498  0.00  0.00    +0.000 A 
ATOM     22  C   UNL     1      -1.928  12.198  21.144  0.00  0.00    +0.000 A 
ATOM     23  C   UNL     1      -0.985  11.455  20.442  0.00  0.00    +0.000 A 
ATOM     24  N   UNL     1      -0.281  10.464  21.046  0.00  0.00    +0.000 N 
ATOM     25  C   UNL     1      -0.415  10.265  22.385  0.00  0.00    +0.000 A 
ATOM     26  C   UNL     1      -1.336  10.998  23.134  0.00  0.00    +0.000 A 
BRANCH  21  28
ATOM     27  N   UNL     1      -3.879  12.046  24.157  0.00  0.00    +0.000 NA
ATOM     28  C   UNL     1      -3.178  12.656  23.254  0.00  0.00    +0.000 C 
BRANCH  27  29
ATOM     29  O   UNL     1      -4.760  12.973  24.734  0.00  0.00    +0.000 OA
ATOM     30  H   UNL     1      -5.180  12.460  25.456  0.00  0.00    +0.000 HD
ENDBRANCH  27  29
ENDBRANCH  21  28
ENDBRANCH  20  24
ENDBRANCH  19  20
ENDBRANCH  18  19
ENDBRANCH  17  18
ENDBRANCH   1  17
TORSDOF 8
ENDMDL
MODEL 2
REMARK VINA RESULT:      -8.2      2.595      4.554
REMARK  Name = 
REMARK  8 active torsions:
REMARK  status: ('A' for Active; 'I' for Inactive)
REMARK    1  A    between atoms: O_1  and  N_2
REMARK    2  A    between atoms: C_3  and  C_4
REMARK    3  A    between atoms: N_7  and  C_8
REMARK    4  A    between atoms: C_8  and  C_9
REMARK    5  A    between atoms: C_9  and  C_10
REMARK    6  A    between atoms: C_10  and  C_11
REMARK    7  A    between atoms: C_11  and  N_12
REMARK    8  A    between atoms: N_12  and  C_13
REMARK                            x       y       z     vdW  Elec       q    Type
REMARK                         _______ _______ _______ _____ _____    ______ ____
ROOT
ATOM      1  N   UNL     1       3.373   6.868  19.649  0.00  0.00    +0.000 N 
ATOM      2  H   UNL     1       3.446   6.639  20.636  0.00  0.00    +0.000 HD
ENDROOT
BRANCH   1   3
ATOM      3  C   UNL     1       3.579   5.667  18.857  0.00  0.00    +0.000 A 
ATOM      4  C   UNL     1       2.728   4.506  18.935  0.00  0.00    +0.000 A 
ATOM      5  C   UNL     1       3.036   3.431  18.101  0.00  0.00    +0.000 A 
ATOM      6  N   UNL     1       4.046   3.429  17.221  0.00  0.00    +0.000 NA
ATOM      7  C   UNL     1       4.811   4.484  17.103  0.00  0.00    +0.000 A 
ATOM      8  C   UNL     1       5.806   4.292  16.160  0.00  0.00    +0.000 A 
ATOM      9  C   UNL     1       6.738   5.264  15.905  0.00  0.00    +0.000 A 
ATOM     10  C   UNL     1       6.639   6.473  16.575  0.00  0.00    +0.000 A 
ATOM     11  C   UNL     1       5.620   6.680  17.535  0.00  0.00    +0.000 A 
ATOM     12  C   UNL     1       4.663   5.665  17.856  0.00  0.00    +0.000 A 
ATOM     13  C   UNL     1       2.363   2.105  18.095  0.00  0.00    +0.000 C 
ATOM     14  C   UNL     1       1.109   1.918  18.898  0.00  0.00    +0.000 C 
ATOM     15  C   UNL     1       0.701   3.051  19.813  0.00  0.00    +0.000 C 
ATOM     16  C   UNL     1       1.522   4.350  19.825  0.00  0.00    +0.000 C 
ENDBRANCH   1   3
BRANCH   1  17
ATOM     17  C   UNL     1       2.191   7.697  19.362  0.00  0.00    +0.000 C 
BRANCH  17  18
ATOM     18  C   UNL     1       2.006   8.173  17.894  0.00  0.00    +0.000 C 
BRANCH  18  19
ATOM     19  C   UNL     1       1.597   9.677  17.902  0.00  0.00    +0.000 C 
BRANCH  19  20
ATOM     20  C   UNL     1       0.774  10.172  19.105  0.00  0.00    +0.000 C 
BRANCH  20  24
ATOM     21  C   UNL     1      -3.181  11.225  17.836  0.00  0.00    +0.000 A 
ATOM     22  C   UNL     1      -2.615  11.824  18.957  0.00  0.00    +0.000 A 
ATOM     23  C   UNL     1      -1.346  11.437  19.370  0.00  0.00    +0.000 A 
ATOM     24  N   UNL     1      -0.631  10.514  18.677  0.00  0.00    +0.000 N 
ATOM     25  C   UNL     1      -1.208   9.872  17.624  0.00  0.00    +0.000 A 
ATOM     26  C   UNL     1      -2.485  10.214  17.183  0.00  0.00    +0.000 A 
BRANCH  21  28
ATOM     27  N   UNL     1      -5.597  11.191  17.782  0.00  0.00    +0.000 NA
ATOM     28  C   UNL     1      -4.489  11.673  17.315  0.00  0.00    +0.000 C 
BRANCH  27  29
ATOM     29  O   UNL     1      -6.665  11.833  17.137  0.00  0.00    +0.000 OA
ATOM     30  H   UNL     1      -7.395  11.755  17.786  0.00  0.00    +0.000 HD
ENDBRANCH  27  29
ENDBRANCH  21  28
ENDBRANCH  20  24
ENDBRANCH  19  20
ENDBRANCH  18  19
ENDBRANCH  17  18
ENDBRANCH   1  17
TORSDOF 8
ENDMDL
MODEL 3
REMARK VINA RESULT:      -8.1      2.671      4.663
REMARK  Name = 
REMARK  8 active torsions:
REMARK  status: ('A' for Active; 'I' for Inactive)
REMARK    1  A    between atoms: O_1  and  N_2
REMARK    2  A    between atoms: C_3  and  C_4
REMARK    3  A    between atoms: N_7  and  C_8
REMARK    4  A    between atoms: C_8  and  C_9
REMARK    5  A    between atoms: C_9  and  C_10
REMARK    6  A    between atoms: C_10  and  C_11
REMARK    7  A    between atoms: C_11  and  N_12
REMARK    8  A    between atoms: N_12  and  C_13
REMARK                            x       y       z     vdW  Elec       q    Type
REMARK                         _______ _______ _______ _____ _____    ______ ____
ROOT
ATOM      1  N   UNL     1       2.195   6.850  18.199  0.00  0.00    +0.000 N 
ATOM      2  H   UNL     1       2.285   6.988  17.196  0.00  0.00    +0.000 HD
ENDROOT
BRANCH   1   3
ATOM      3  C   UNL     1       3.124   5.820  18.632  0.00  0.00    +0.000 A 
ATOM      4  C   UNL     1       2.747   4.707  19.467  0.00  0.00    +0.000 A 
ATOM      5  C   UNL     1       3.741   3.783  19.789  0.00  0.00    +0.000 A 
ATOM      6  N   UNL     1       5.004   3.855  19.345  0.00  0.00    +0.000 NA
ATOM      7  C   UNL     1       5.364   4.834  18.555  0.00  0.00    +0.000 A 
ATOM      8  C   UNL     1       6.702   4.751  18.214  0.00  0.00    +0.000 A 
ATOM      9  C   UNL     1       7.291   5.699  17.419  0.00  0.00    +0.000 A 
ATOM     10  C   UNL     1       6.508   6.725  16.915  0.00  0.00    +0.000 A 
ATOM     11  C   UNL     1       5.137   6.812  17.252  0.00  0.00    +0.000 A 
ATOM     12  C   UNL     1       4.507   5.863  18.120  0.00  0.00    +0.000 A 
ATOM     13  C   UNL     1       3.601   2.630  20.717  0.00  0.00    +0.000 C 
ATOM     14  C   UNL     1       2.237   2.265  21.228  0.00  0.00    +0.000 C 
ATOM     15  C   UNL     1       1.103   3.212  20.902  0.00  0.00    +0.000 C 
ATOM     16  C   UNL     1       1.369   4.438  20.015  0.00  0.00    +0.000 C 
ENDBRANCH   1   3
BRANCH   1  17
ATOM     17  C   UNL     1       2.183   8.128  18.930  0.00  0.00    +0.000 C 
BRANCH  17  18
ATOM     18  C   UNL     1       1.751   8.080  20.421  0.00  0.00    +0.000 C 
BRANCH  18  19
ATOM     19  C   UNL     1       0.502   8.993  20.612  0.00  0.00    +0.000 C 
BRANCH  19  20
ATOM     20  C   UNL     1       0.581  10.417  20.033  0.00  0.00    +0.000 C 
BRANCH  20  24
ATOM     21  C   UNL     1      -3.010  11.237  17.843  0.00  0.00    +0.000 A 
ATOM     22  C   UNL     1      -2.057  10.360  17.335  0.00  0.00    +0.000 A 
ATOM     23  C   UNL     1      -0.883  10.140  18.046  0.00  0.00    +0.000 A 
ATOM     24  N   UNL     1      -0.667  10.736  19.247  0.00  0.00    +0.000 N 
ATOM     25  C   UNL     1      -1.562  11.650  19.713  0.00  0.00    +0.000 A 
ATOM     26  C   UNL     1      -2.745  11.916  19.026  0.00  0.00    +0.000 A 
BRANCH  21  28
ATOM     27  N   UNL     1      -5.302  12.002  17.758  0.00  0.00    +0.000 NA
ATOM     28  C   UNL     1      -4.306  11.427  17.160  0.00  0.00    +0.000 C 
BRANCH  27  29
ATOM     29  O   UNL     1      -6.372  12.084  16.856  0.00  0.00    +0.000 OA
ATOM     30  H   UNL     1      -6.219  11.320  16.261  0.00  0.00    +0.000 HD
ENDBRANCH  27  29
ENDBRANCH  21  28
ENDBRANCH  20  24
ENDBRANCH  19  20
ENDBRANCH  18  19
ENDBRANCH  17  18
ENDBRANCH   1  17
TORSDOF 8
ENDMDL
MODEL 4
REMARK VINA RESULT:      -8.1      2.784      3.182
REMARK  Name = 
REMARK  8 active torsions:
REMARK  status: ('A' for Active; 'I' for Inactive)
REMARK    1  A    between atoms: O_1  and  N_2
REMARK    2  A    between atoms: C_3  and  C_4
REMARK    3  A    between atoms: N_7  and  C_8
REMARK    4  A    between atoms: C_8  and  C_9
REMARK    5  A    between atoms: C_9  and  C_10
REMARK    6  A    between atoms: C_10  and  C_11
REMARK    7  A    between atoms: C_11  and  N_12
REMARK    8  A    between atoms: N_12  and  C_13
REMARK                            x       y       z     vdW  Elec       q    Type
REMARK                         _______ _______ _______ _____ _____    ______ ____
ROOT
ATOM      1  N   UNL     1       1.985   6.756  18.182  0.00  0.00    +0.000 N 
ATOM      2  H   UNL     1       1.849   6.770  17.175  0.00  0.00    +0.000 HD
ENDROOT
BRANCH   1   3
ATOM      3  C   UNL     1       2.966   5.740  18.525  0.00  0.00    +0.000 A 
ATOM      4  C   UNL     1       4.340   5.779  18.089  0.00  0.00    +0.000 A 
ATOM      5  C   UNL     1       5.174   4.743  18.510  0.00  0.00    +0.000 A 
ATOM      6  N   UNL     1       4.782   3.744  19.313  0.00  0.00    +0.000 NA
ATOM      7  C   UNL     1       3.551   3.704  19.753  0.00  0.00    +0.000 A 
ATOM      8  C   UNL     1       3.329   2.596  20.552  0.00  0.00    +0.000 A 
ATOM      9  C   UNL     1       2.093   2.347  21.090  0.00  0.00    +0.000 A 
ATOM     10  C   UNL     1       1.072   3.255  20.862  0.00  0.00    +0.000 A 
ATOM     11  C   UNL     1       1.294   4.395  20.053  0.00  0.00    +0.000 A 
ATOM     12  C   UNL     1       2.561   4.655  19.439  0.00  0.00    +0.000 A 
ATOM     13  C   UNL     1       6.585   4.528  18.094  0.00  0.00    +0.000 C 
ATOM     14  C   UNL     1       7.286   5.599  17.308  0.00  0.00    +0.000 C 
ATOM     15  C   UNL     1       6.448   6.765  16.832  0.00  0.00    +0.000 C 
ATOM     16  C   UNL     1       4.967   6.847  17.230  0.00  0.00    +0.000 C 
ENDBRANCH   1   3
BRANCH   1  17
ATOM     17  C   UNL     1       2.167   8.110  18.731  0.00  0.00    +0.000 C 
BRANCH  17  18
ATOM     18  C   UNL     1       1.930   9.299  17.759  0.00  0.00    +0.000 C 
BRANCH  18  19
ATOM     19  C   UNL     1       1.286  10.476  18.552  0.00  0.00    +0.000 C 
BRANCH  19  20
ATOM     20  C   UNL     1       0.154  10.122  19.534  0.00  0.00    +0.000 C 
BRANCH  20  24
ATOM     21  C   UNL     1      -3.600  11.307  17.841  0.00  0.00    +0.000 A 
ATOM     22  C   UNL     1      -3.084  11.969  18.950  0.00  0.00    +0.000 A 
ATOM     23  C   UNL     1      -1.884  11.541  19.504  0.00  0.00    +0.000 A 
ATOM     24  N   UNL     1      -1.184  10.513  18.958  0.00  0.00    +0.000 N 
ATOM     25  C   UNL     1      -1.719   9.816  17.919  0.00  0.00    +0.000 A 
ATOM     26  C   UNL     1      -2.929  10.197  17.341  0.00  0.00    +0.000 A 
BRANCH  21  28
ATOM     27  N   UNL     1      -5.988  11.663  17.731  0.00  0.00    +0.000 NA
ATOM     28  C   UNL     1      -4.826  11.789  17.172  0.00  0.00    +0.000 C 
BRANCH  27  29
ATOM     29  O   UNL     1      -6.948  12.249  16.892  0.00  0.00    +0.000 OA
ATOM     30  H   UNL     1      -6.765  13.208  16.983  0.00  0.00    +0.000 HD
ENDBRANCH  27  29
ENDBRANCH  21  28
ENDBRANCH  20  24
ENDBRANCH  19  20
ENDBRANCH  18  19
ENDBRANCH  17  18
ENDBRANCH   1  17
TORSDOF 8
ENDMDL
MODEL 5
REMARK VINA RESULT:      -8.1      2.400      4.457
REMARK  Name = 
REMARK  8 active torsions:
REMARK  status: ('A' for Active; 'I' for Inactive)
REMARK    1  A    between atoms: O_1  and  N_2
REMARK    2  A    between atoms: C_3  and  C_4
REMARK    3  A    between atoms: N_7  and  C_8
REMARK    4  A    between atoms: C_8  and  C_9
REMARK    5  A    between atoms: C_9  and  C_10
REMARK    6  A    between atoms: C_10  and  C_11
REMARK    7  A    between atoms: C_11  and  N_12
REMARK    8  A    between atoms: N_12  and  C_13
REMARK                            x       y       z     vdW  Elec       q    Type
REMARK                         _______ _______ _______ _____ _____    ______ ____
ROOT
ATOM      1  N   UNL     1       3.410   7.264  18.281  0.00  0.00    +0.000 N 
ATOM      2  H   UNL     1       3.581   7.484  19.259  0.00  0.00    +0.000 HD
ENDROOT
BRANCH   1   3
ATOM      3  C   UNL     1       3.577   5.835  18.070  0.00  0.00    +0.000 A 
ATOM      4  C   UNL     1       2.883   4.830  18.837  0.00  0.00    +0.000 A 
ATOM      5  C   UNL     1       3.128   3.496  18.511  0.00  0.00    +0.000 A 
ATOM      6  N   UNL     1       3.939   3.103  17.519  0.00  0.00    +0.000 NA
ATOM      7  C   UNL     1       4.552   3.994  16.784  0.00  0.00    +0.000 A 
ATOM      8  C   UNL     1       5.353   3.402  15.824  0.00  0.00    +0.000 A 
ATOM      9  C   UNL     1       6.111   4.159  14.968  0.00  0.00    +0.000 A 
ATOM     10  C   UNL     1       6.023   5.539  15.046  0.00  0.00    +0.000 A 
ATOM     11  C   UNL     1       5.199   6.153  16.019  0.00  0.00    +0.000 A 
ATOM     12  C   UNL     1       4.435   5.387  16.957  0.00  0.00    +0.000 A 
ATOM     13  C   UNL     1       2.608   2.307  19.236  0.00  0.00    +0.000 C 
ATOM     14  C   UNL     1       1.564   2.497  20.298  0.00  0.00    +0.000 C 
ATOM     15  C   UNL     1       1.232   3.919  20.692  0.00  0.00    +0.000 C 
ATOM     16  C   UNL     1       1.900   5.087  19.950  0.00  0.00    +0.000 C 
ENDBRANCH   1   3
BRANCH   1  17
ATOM     17  C   UNL     1       2.182   7.902  17.780  0.00  0.00    +0.000 C 
BRANCH  17  18
ATOM     18  C   UNL     1       2.121   9.453  17.841  0.00  0.00    +0.000 C 
BRANCH  18  19
ATOM     19  C   UNL     1       1.074   9.874  18.916  0.00  0.00    +0.000 C 
BRANCH  19  20
ATOM     20  C   UNL     1       0.503  11.300  18.815  0.00  0.00    +0.000 C 
BRANCH  20  24
ATOM     21  C   UNL     1      -3.752  11.256  18.311  0.00  0.00    +0.000 A 
ATOM     22  C   UNL     1      -3.159  12.106  19.238  0.00  0.00    +0.000 A 
ATOM     23  C   UNL     1      -1.781  12.075  19.410  0.00  0.00    +0.000 A 
ATOM     24  N   UNL     1      -0.998  11.256  18.661  0.00  0.00    +0.000 N 
ATOM     25  C   UNL     1      -1.578  10.371  17.806  0.00  0.00    +0.000 A 
ATOM     26  C   UNL     1      -2.959  10.354  17.613  0.00  0.00    +0.000 A 
BRANCH  21  28
ATOM     27  N   UNL     1      -6.052  10.654  18.750  0.00  0.00    +0.000 NA
ATOM     28  C   UNL     1      -5.203  11.325  18.038  0.00  0.00    +0.000 C 
BRANCH  27  29
ATOM     29  O   UNL     1      -7.345  10.952  18.294  0.00  0.00    +0.000 OA
ATOM     30  H   UNL     1      -7.487  10.291  17.584  0.00  0.00    +0.000 HD
ENDBRANCH  27  29
ENDBRANCH  21  28
ENDBRANCH  20  24
ENDBRANCH  19  20
ENDBRANCH  18  19
ENDBRANCH  17  18
ENDBRANCH   1  17
TORSDOF 8
ENDMDL
MODEL 6
REMARK VINA RESULT:      -8.1      2.700      3.169
REMARK  Name = 
REMARK  8 active torsions:
REMARK  status: ('A' for Active; 'I' for Inactive)
REMARK    1  A    between atoms: O_1  and  N_2
REMARK    2  A    between atoms: C_3  and  C_4
REMARK    3  A    between atoms: N_7  and  C_8
REMARK    4  A    between atoms: C_8  and  C_9
REMARK    5  A    between atoms: C_9  and  C_10
REMARK    6  A    between atoms: C_10  and  C_11
REMARK    7  A    between atoms: C_11  and  N_12
REMARK    8  A    between atoms: N_12  and  C_13
REMARK                            x       y       z     vdW  Elec       q    Type
REMARK                         _______ _______ _______ _____ _____    ______ ____
ROOT
ATOM      1  N   UNL     1       3.336   6.647  19.884  0.00  0.00    +0.000 N 
ATOM      2  H   UNL     1       3.245   6.291  20.832  0.00  0.00    +0.000 HD
ENDROOT
BRANCH   1   3
ATOM      3  C   UNL     1       3.515   5.536  18.965  0.00  0.00    +0.000 A 
ATOM      4  C   UNL     1       4.609   5.444  18.029  0.00  0.00    +0.000 A 
ATOM      5  C   UNL     1       4.663   4.310  17.219  0.00  0.00    +0.000 A 
ATOM      6  N   UNL     1       3.785   3.299  17.283  0.00  0.00    +0.000 NA
ATOM      7  C   UNL     1       2.805   3.339  18.149  0.00  0.00    +0.000 A 
ATOM      8  C   UNL     1       1.996   2.220  18.058  0.00  0.00    +0.000 A 
ATOM      9  C   UNL     1       0.890   2.079  18.855  0.00  0.00    +0.000 A 
ATOM     10  C   UNL     1       0.619   3.058  19.797  0.00  0.00    +0.000 A 
ATOM     11  C   UNL     1       1.447   4.201  19.902  0.00  0.00    +0.000 A 
ATOM     12  C   UNL     1       2.580   4.398  19.050  0.00  0.00    +0.000 A 
ATOM     13  C   UNL     1       5.633   4.062  16.119  0.00  0.00    +0.000 C 
ATOM     14  C   UNL     1       6.800   4.992  15.952  0.00  0.00    +0.000 C 
ATOM     15  C   UNL     1       6.818   6.237  16.811  0.00  0.00    +0.000 C 
ATOM     16  C   UNL     1       5.712   6.456  17.854  0.00  0.00    +0.000 C 
ENDBRANCH   1   3
BRANCH   1  17
ATOM     17  C   UNL     1       2.304   7.648  19.572  0.00  0.00    +0.000 C 
BRANCH  17  18
ATOM     18  C   UNL     1       1.934   7.833  18.075  0.00  0.00    +0.000 C 
BRANCH  18  19
ATOM     19  C   UNL     1       1.963   9.354  17.733  0.00  0.00    +0.000 C 
BRANCH  19  20
ATOM     20  C   UNL     1       1.284  10.308  18.733  0.00  0.00    +0.000 C 
BRANCH  20  24
ATOM     21  C   UNL     1      -2.911  10.620  17.918  0.00  0.00    +0.000 A 
ATOM     22  C   UNL     1      -2.359  11.247  19.030  0.00  0.00    +0.000 A 
ATOM     23  C   UNL     1      -1.002  11.099  19.294  0.00  0.00    +0.000 A 
ATOM     24  N   UNL     1      -0.198  10.386  18.464  0.00  0.00    +0.000 N 
ATOM     25  C   UNL     1      -0.746   9.710  17.416  0.00  0.00    +0.000 A 
ATOM     26  C   UNL     1      -2.105   9.815  17.123  0.00  0.00    +0.000 A 
BRANCH  21  28
ATOM     27  N   UNL     1      -4.785  12.009  17.285  0.00  0.00    +0.000 NA
ATOM     28  C   UNL     1      -4.329  10.827  17.557  0.00  0.00    +0.000 C 
BRANCH  27  29
ATOM     29  O   UNL     1      -6.138  11.890  16.933  0.00  0.00    +0.000 OA
ATOM     30  H   UNL     1      -6.117  11.260  16.183  0.00  0.00    +0.000 HD
ENDBRANCH  27  29
ENDBRANCH  21  28
ENDBRANCH  20  24
ENDBRANCH  19  20
ENDBRANCH  18  19
ENDBRANCH  17  18
ENDBRANCH   1  17
TORSDOF 8
ENDMDL
MODEL 7
REMARK VINA RESULT:      -8.0      3.084      3.937
REMARK  Name = 
REMARK  8 active torsions:
REMARK  status: ('A' for Active; 'I' for Inactive)
REMARK    1  A    between atoms: O_1  and  N_2
REMARK    2  A    between atoms: C_3  and  C_4
REMARK    3  A    between atoms: N_7  and  C_8
REMARK    4  A    between atoms: C_8  and  C_9
REMARK    5  A    between atoms: C_9  and  C_10
REMARK    6  A    between atoms: C_10  and  C_11
REMARK    7  A    between atoms: C_11  and  N_12
REMARK    8  A    between atoms: N_12  and  C_13
REMARK                            x       y       z     vdW  Elec       q    Type
REMARK                         _______ _______ _______ _____ _____    ______ ____
ROOT
ATOM      1  N   UNL     1       2.952   6.806  20.041  0.00  0.00    +0.000 N 
ATOM      2  H   UNL     1       2.958   6.416  20.980  0.00  0.00    +0.000 HD
ENDROOT
BRANCH   1   3
ATOM      3  C   UNL     1       3.101   5.735  19.070  0.00  0.00    +0.000 A 
ATOM      4  C   UNL     1       4.074   5.754  18.006  0.00  0.00    +0.000 A 
ATOM      5  C   UNL     1       4.114   4.647  17.158  0.00  0.00    +0.000 A 
ATOM      6  N   UNL     1       3.331   3.568  17.294  0.00  0.00    +0.000 NA
ATOM      7  C   UNL     1       2.465   3.509  18.274  0.00  0.00    +0.000 A 
ATOM      8  C   UNL     1       1.739   2.332  18.244  0.00  0.00    +0.000 A 
ATOM      9  C   UNL     1       0.754   2.084  19.165  0.00  0.00    +0.000 A 
ATOM     10  C   UNL     1       0.528   3.015  20.165  0.00  0.00    +0.000 A 
ATOM     11  C   UNL     1       1.272   4.218  20.207  0.00  0.00    +0.000 A 
ATOM     12  C   UNL     1       2.273   4.525  19.230  0.00  0.00    +0.000 A 
ATOM     13  C   UNL     1       4.957   4.504  15.941  0.00  0.00    +0.000 C 
ATOM     14  C   UNL     1       6.020   5.528  15.664  0.00  0.00    +0.000 C 
ATOM     15  C   UNL     1       6.049   6.749  16.556  0.00  0.00    +0.000 C 
ATOM     16  C   UNL     1       5.066   6.854  17.732  0.00  0.00    +0.000 C 
ENDBRANCH   1   3
BRANCH   1  17
ATOM     17  C   UNL     1       1.854   7.769  19.854  0.00  0.00    +0.000 C 
BRANCH  17  18
ATOM     18  C   UNL     1       1.489   8.664  21.069  0.00  0.00    +0.000 C 
BRANCH  18  19
ATOM     19  C   UNL     1      -0.017   9.053  20.973  0.00  0.00    +0.000 C 
BRANCH  19  20
ATOM     20  C   UNL     1      -0.341  10.526  20.664  0.00  0.00    +0.000 C 
BRANCH  20  24
ATOM     21  C   UNL     1      -2.428  10.772  16.930  0.00  0.00    +0.000 A 
ATOM     22  C   UNL     1      -1.358   9.898  17.085  0.00  0.00    +0.000 A 
ATOM     23  C   UNL     1      -0.673   9.865  18.293  0.00  0.00    +0.000 A 
ATOM     24  N   UNL     1      -1.054  10.642  19.339  0.00  0.00    +0.000 N 
ATOM     25  C   UNL     1      -2.054  11.550  19.170  0.00  0.00    +0.000 A 
ATOM     26  C   UNL     1      -2.759  11.632  17.970  0.00  0.00    +0.000 A 
BRANCH  21  28
ATOM     27  N   UNL     1      -2.939   9.994  14.699  0.00  0.00    +0.000 NA
ATOM     28  C   UNL     1      -3.235  10.771  15.692  0.00  0.00    +0.000 C 
BRANCH  27  29
ATOM     29  O   UNL     1      -3.900  10.175  13.693  0.00  0.00    +0.000 OA
ATOM     30  H   UNL     1      -4.132  11.124  13.778  0.00  0.00    +0.000 HD
ENDBRANCH  27  29
ENDBRANCH  21  28
ENDBRANCH  20  24
ENDBRANCH  19  20
ENDBRANCH  18  19
ENDBRANCH  17  18
ENDBRANCH   1  17
TORSDOF 8
ENDMDL
MODEL 8
REMARK VINA RESULT:      -8.0      0.599      1.069
REMARK  Name = 
REMARK  8 active torsions:
REMARK  status: ('A' for Active; 'I' for Inactive)
REMARK    1  A    between atoms: O_1  and  N_2
REMARK    2  A    between atoms: C_3  and  C_4
REMARK    3  A    between atoms: N_7  and  C_8
REMARK    4  A    between atoms: C_8  and  C_9
REMARK    5  A    between atoms: C_9  and  C_10
REMARK    6  A    between atoms: C_10  and  C_11
REMARK    7  A    between atoms: C_11  and  N_12
REMARK    8  A    between atoms: N_12  and  C_13
REMARK                            x       y       z     vdW  Elec       q    Type
REMARK                         _______ _______ _______ _____ _____    ______ ____
ROOT
ATOM      1  N   UNL     1       2.577   7.348  18.930  0.00  0.00    +0.000 N 
ATOM      2  H   UNL     1       2.182   7.320  19.865  0.00  0.00    +0.000 HD
ENDROOT
BRANCH   1   3
ATOM      3  C   UNL     1       2.991   6.011  18.538  0.00  0.00    +0.000 A 
ATOM      4  C   UNL     1       3.894   5.744  17.445  0.00  0.00    +0.000 A 
ATOM      5  C   UNL     1       4.216   4.411  17.195  0.00  0.00    +0.000 A 
ATOM      6  N   UNL     1       3.765   3.380  17.922  0.00  0.00    +0.000 NA
ATOM      7  C   UNL     1       2.975   3.597  18.942  0.00  0.00    +0.000 A 
ATOM      8  C   UNL     1       2.602   2.416  19.560  0.00  0.00    +0.000 A 
ATOM      9  C   UNL     1       1.747   2.417  20.632  0.00  0.00    +0.000 A 
ATOM     10  C   UNL     1       1.299   3.631  21.125  0.00  0.00    +0.000 A 
ATOM     11  C   UNL     1       1.682   4.844  20.503  0.00  0.00    +0.000 A 
ATOM     12  C   UNL     1       2.534   4.870  19.353  0.00  0.00    +0.000 A 
ATOM     13  C   UNL     1       5.034   3.904  16.061  0.00  0.00    +0.000 C 
ATOM     14  C   UNL     1       5.766   4.886  15.191  0.00  0.00    +0.000 C 
ATOM     15  C   UNL     1       5.479   6.354  15.418  0.00  0.00    +0.000 C 
ATOM     16  C   UNL     1       4.536   6.776  16.555  0.00  0.00    +0.000 C 
ENDBRANCH   1   3
BRANCH   1  17
ATOM     17  C   UNL     1       1.733   8.116  17.999  0.00  0.00    +0.000 C 
BRANCH  17  18
ATOM     18  C   UNL     1       1.794   9.664  18.109  0.00  0.00    +0.000 C 
BRANCH  18  19
ATOM     19  C   UNL     1       0.685  10.143  19.094  0.00  0.00    +0.000 C 
BRANCH  19  20
ATOM     20  C   UNL     1       0.962  11.435  19.884  0.00  0.00    +0.000 C 
BRANCH  20  24
ATOM     21  C   UNL     1      -2.172  12.286  22.680  0.00  0.00    +0.000 A 
ATOM     22  C   UNL     1      -1.279  11.246  22.914  0.00  0.00    +0.000 A 
ATOM     23  C   UNL     1      -0.295  10.966  21.974  0.00  0.00    +0.000 A 
ATOM     24  N   UNL     1      -0.165  11.714  20.848  0.00  0.00    +0.000 N 
ATOM     25  C   UNL     1      -1.079  12.685  20.579  0.00  0.00    +0.000 A 
ATOM     26  C   UNL     1      -2.094  12.991  21.485  0.00  0.00    +0.000 A 
BRANCH  21  28
ATOM     27  N   UNL     1      -4.305  12.048  23.792  0.00  0.00    +0.000 NA
ATOM     28  C   UNL     1      -3.173  12.671  23.697  0.00  0.00    +0.000 C 
BRANCH  27  29
ATOM     29  O   UNL     1      -5.022  12.595  24.867  0.00  0.00    +0.000 OA
ATOM     30  H   UNL     1      -4.379  13.216  25.268  0.00  0.00    +0.000 HD
ENDBRANCH  27  29
ENDBRANCH  21  28
ENDBRANCH  20  24
ENDBRANCH  19  20
ENDBRANCH  18  19
ENDBRANCH  17  18
ENDBRANCH   1  17
TORSDOF 8
ENDMDL
MODEL 9
REMARK VINA RESULT:      -8.0      1.274      3.764
REMARK  Name = 
REMARK  8 active torsions:
REMARK  status: ('A' for Active; 'I' for Inactive)
REMARK    1  A    between atoms: O_1  and  N_2
REMARK    2  A    between atoms: C_3  and  C_4
REMARK    3  A    between atoms: N_7  and  C_8
REMARK    4  A    between atoms: C_8  and  C_9
REMARK    5  A    between atoms: C_9  and  C_10
REMARK    6  A    between atoms: C_10  and  C_11
REMARK    7  A    between atoms: C_11  and  N_12
REMARK    8  A    between atoms: N_12  and  C_13
REMARK                            x       y       z     vdW  Elec       q    Type
REMARK                         _______ _______ _______ _____ _____    ______ ____
ROOT
ATOM      1  N   UNL     1       2.287   6.801  18.012  0.00  0.00    +0.000 N 
ATOM      2  H   UNL     1       2.496   6.992  17.036  0.00  0.00    +0.000 HD
ENDROOT
BRANCH   1   3
ATOM      3  C   UNL     1       3.194   5.780  18.510  0.00  0.00    +0.000 A 
ATOM      4  C   UNL     1       2.782   4.701  19.374  0.00  0.00    +0.000 A 
ATOM      5  C   UNL     1       3.759   3.783  19.759  0.00  0.00    +0.000 A 
ATOM      6  N   UNL     1       5.035   3.829  19.351  0.00  0.00    +0.000 NA
ATOM      7  C   UNL     1       5.427   4.776  18.538  0.00  0.00    +0.000 A 
ATOM      8  C   UNL     1       6.774   4.670  18.241  0.00  0.00    +0.000 A 
ATOM      9  C   UNL     1       7.395   5.585  17.430  0.00  0.00    +0.000 A 
ATOM     10  C   UNL     1       6.636   6.597  16.866  0.00  0.00    +0.000 A 
ATOM     11  C   UNL     1       5.256   6.707  17.158  0.00  0.00    +0.000 A 
ATOM     12  C   UNL     1       4.592   5.795  18.040  0.00  0.00    +0.000 A 
ATOM     13  C   UNL     1       3.581   2.665  20.723  0.00  0.00    +0.000 C 
ATOM     14  C   UNL     1       2.199   2.329  21.204  0.00  0.00    +0.000 C 
ATOM     15  C   UNL     1       1.083   3.271  20.810  0.00  0.00    +0.000 C 
ATOM     16  C   UNL     1       1.386   4.462  19.888  0.00  0.00    +0.000 C 
ENDBRANCH   1   3
BRANCH   1  17
ATOM     17  C   UNL     1       2.137   8.039  18.795  0.00  0.00    +0.000 C 
BRANCH  17  18
ATOM     18  C   UNL     1       2.099   9.373  17.999  0.00  0.00    +0.000 C 
BRANCH  18  19
ATOM     19  C   UNL     1       0.805  10.152  18.384  0.00  0.00    +0.000 C 
BRANCH  19  20
ATOM     20  C   UNL     1       0.985  11.462  19.172  0.00  0.00    +0.000 C 
BRANCH  20  24
ATOM     21  C   UNL     1      -1.822  11.774  22.394  0.00  0.00    +0.000 A 
ATOM     22  C   UNL     1      -0.762  10.877  22.466  0.00  0.00    +0.000 A 
ATOM     23  C   UNL     1       0.113  10.768  21.391  0.00  0.00    +0.000 A 
ATOM     24  N   UNL     1      -0.026  11.548  20.289  0.00  0.00    +0.000 N 
ATOM     25  C   UNL     1      -1.103  12.373  20.183  0.00  0.00    +0.000 A 
ATOM     26  C   UNL     1      -2.017  12.504  21.228  0.00  0.00    +0.000 A 
BRANCH  21  28
ATOM     27  N   UNL     1      -3.996  12.131  23.390  0.00  0.00    +0.000 NA
ATOM     28  C   UNL     1      -2.719  11.982  23.550  0.00  0.00    +0.000 C 
BRANCH  27  29
ATOM     29  O   UNL     1      -4.588  12.260  24.655  0.00  0.00    +0.000 OA
ATOM     30  H   UNL     1      -5.313  11.601  24.628  0.00  0.00    +0.000 HD
ENDBRANCH  27  29
ENDBRANCH  21  28
ENDBRANCH  20  24
ENDBRANCH  19  20
ENDBRANCH  18  19
ENDBRANCH  17  18
ENDBRANCH   1  17
TORSDOF 8
ENDMDL
