MODEL 1
REMARK VINA RESULT:      -7.0      0.000      0.000
REMARK  Name = 
REMARK  7 active torsions:
REMARK  status: ('A' for Active; 'I' for Inactive)
REMARK    1  A    between atoms: C_2  and  O_3
REMARK    2  A    between atoms: C_2  and  C_4
REMARK    3  A    between atoms: C_4  and  C_5
REMARK    4  A    between atoms: C_5  and  C_6
REMARK    5  A    between atoms: C_6  and  C_7
REMARK    6  A    between atoms: N_9  and  C_10
REMARK    7  A    between atoms: C_13  and  C_14
REMARK                            x       y       z     vdW  Elec       q    Type
REMARK                         _______ _______ _______ _____ _____    ______ ____
ROOT
ATOM      1  C   UNL     1       4.559   4.360  18.328  0.00  0.00    +0.000 C 
ATOM      2  O   UNL     1       4.462   3.154  18.109  0.00  0.00    +0.000 OA
ATOM      3  N   UNL     1       5.132   5.266  17.450  0.00  0.00    +0.000 N 
ATOM      4  H   UNL     1       5.517   6.113  17.851  0.00  0.00    +0.000 HD
ENDROOT
BRANCH   3   5
ATOM      5  C   UNL     1       5.559   4.915  16.150  0.00  0.00    +0.000 A 
ATOM      6  C   UNL     1       6.880   5.108  15.733  0.00  0.00    +0.000 A 
ATOM      7  C   UNL     1       7.283   4.741  14.441  0.00  0.00    +0.000 A 
ATOM      8  C   UNL     1       6.360   4.191  13.543  0.00  0.00    +0.000 A 
ATOM      9  C   UNL     1       5.035   4.003  13.968  0.00  0.00    +0.000 A 
ATOM     10  C   UNL     1       4.645   4.332  15.273  0.00  0.00    +0.000 A 
BRANCH   8  11
ATOM     11  C   UNL     1       6.772   3.807  12.141  0.00  0.00    +0.000 C 
ATOM     12  F   UNL     1       7.496   2.656  12.077  0.00  0.00    +0.000 F 
ATOM     13  F   UNL     1       5.702   3.618  11.317  0.00  0.00    +0.000 F 
ATOM     14  F   UNL     1       7.537   4.764  11.543  0.00  0.00    +0.000 F 
ENDBRANCH   8  11
ENDBRANCH   3   5
BRANCH   1  15
ATOM     15  C   UNL     1       4.051   4.995  19.620  0.00  0.00    +0.000 C 
BRANCH  15  16
ATOM     16  C   UNL     1       2.590   5.539  19.566  0.00  0.00    +0.000 C 
ATOM     17  C   UNL     1       1.733   5.032  20.751  0.00  0.00    +0.000 C 
ATOM     18  C   UNL     1       1.217   3.656  20.359  0.00  0.00    +0.000 C 
ATOM     19  C   UNL     1       1.209   3.622  18.838  0.00  0.00    +0.000 C 
ATOM     20  C   UNL     1       1.830   4.932  18.362  0.00  0.00    +0.000 C 
BRANCH  16  21
ATOM     21  C   UNL     1       2.531   7.088  19.514  0.00  0.00    +0.000 C 
BRANCH  21  23
ATOM     22  O   UNL     1       3.631   7.633  17.405  0.00  0.00    +0.000 OA
ATOM     23  C   UNL     1       2.660   7.711  18.140  0.00  0.00    +0.000 C 
BRANCH  23  24
ATOM     24  O   UNL     1       1.546   8.397  17.788  0.00  0.00    +0.000 OA
ATOM     25  H   UNL     1       0.761   8.164  18.318  0.00  0.00    +0.000 HD
ENDBRANCH  23  24
ENDBRANCH  21  23
ENDBRANCH  16  21
ENDBRANCH  15  16
ENDBRANCH   1  15
TORSDOF 7
ENDMDL
MODEL 2
REMARK VINA RESULT:      -6.9      4.950      7.411
REMARK  Name = 
REMARK  7 active torsions:
REMARK  status: ('A' for Active; 'I' for Inactive)
REMARK    1  A    between atoms: C_2  and  O_3
REMARK    2  A    between atoms: C_2  and  C_4
REMARK    3  A    between atoms: C_4  and  C_5
REMARK    4  A    between atoms: C_5  and  C_6
REMARK    5  A    between atoms: C_6  and  C_7
REMARK    6  A    between atoms: N_9  and  C_10
REMARK    7  A    between atoms: C_13  and  C_14
REMARK                            x       y       z     vdW  Elec       q    Type
REMARK                         _______ _______ _______ _____ _____    ______ ____
ROOT
ATOM      1  C   UNL     1       3.792   4.873  17.762  0.00  0.00    +0.000 C 
ATOM      2  O   UNL     1       2.676   4.584  17.335  0.00  0.00    +0.000 OA
ATOM      3  N   UNL     1       4.088   6.051  18.428  0.00  0.00    +0.000 N 
ATOM      4  H   UNL     1       5.048   6.373  18.386  0.00  0.00    +0.000 HD
ENDROOT
BRANCH   3   5
ATOM      5  C   UNL     1       3.105   6.997  18.795  0.00  0.00    +0.000 A 
ATOM      6  C   UNL     1       2.436   6.926  20.020  0.00  0.00    +0.000 A 
ATOM      7  C   UNL     1       1.473   7.884  20.367  0.00  0.00    +0.000 A 
ATOM      8  C   UNL     1       1.153   8.918  19.478  0.00  0.00    +0.000 A 
ATOM      9  C   UNL     1       1.827   8.982  18.248  0.00  0.00    +0.000 A 
ATOM     10  C   UNL     1       2.820   8.047  17.922  0.00  0.00    +0.000 A 
BRANCH   8  11
ATOM     11  C   UNL     1       0.104   9.948  19.825  0.00  0.00    +0.000 C 
ATOM     12  F   UNL     1      -1.017   9.869  19.056  0.00  0.00    +0.000 F 
ATOM     13  F   UNL     1      -0.323   9.842  21.115  0.00  0.00    +0.000 F 
ATOM     14  F   UNL     1       0.563  11.224  19.688  0.00  0.00    +0.000 F 
ENDBRANCH   8  11
ENDBRANCH   3   5
BRANCH   1  15
ATOM     15  C   UNL     1       4.993   3.945  17.594  0.00  0.00    +0.000 C 
BRANCH  15  16
ATOM     16  C   UNL     1       6.216   4.564  16.851  0.00  0.00    +0.000 C 
ATOM     17  C   UNL     1       5.912   5.979  16.302  0.00  0.00    +0.000 C 
ATOM     18  C   UNL     1       5.217   5.786  14.963  0.00  0.00    +0.000 C 
ATOM     19  C   UNL     1       5.656   4.425  14.447  0.00  0.00    +0.000 C 
ATOM     20  C   UNL     1       6.505   3.788  15.543  0.00  0.00    +0.000 C 
BRANCH  16  21
ATOM     21  C   UNL     1       7.488   4.618  17.737  0.00  0.00    +0.000 C 
BRANCH  21  23
ATOM     22  O   UNL     1       8.094   6.795  18.658  0.00  0.00    +0.000 OA
ATOM     23  C   UNL     1       7.527   5.721  18.774  0.00  0.00    +0.000 C 
BRANCH  23  24
ATOM     24  O   UNL     1       6.844   5.387  19.896  0.00  0.00    +0.000 OA
ATOM     25  H   UNL     1       6.000   4.932  19.718  0.00  0.00    +0.000 HD
ENDBRANCH  23  24
ENDBRANCH  21  23
ENDBRANCH  16  21
ENDBRANCH  15  16
ENDBRANCH   1  15
TORSDOF 7
ENDMDL
MODEL 3
REMARK VINA RESULT:      -6.9      0.100      1.010
REMARK  Name = 
REMARK  7 active torsions:
REMARK  status: ('A' for Active; 'I' for Inactive)
REMARK    1  A    between atoms: C_2  and  O_3
REMARK    2  A    between atoms: C_2  and  C_4
REMARK    3  A    between atoms: C_4  and  C_5
REMARK    4  A    between atoms: C_5  and  C_6
REMARK    5  A    between atoms: C_6  and  C_7
REMARK    6  A    between atoms: N_9  and  C_10
REMARK    7  A    between atoms: C_13  and  C_14
REMARK                            x       y       z     vdW  Elec       q    Type
REMARK                         _______ _______ _______ _____ _____    ______ ____
ROOT
ATOM      1  C   UNL     1       4.519   4.248  18.288  0.00  0.00    +0.000 C 
ATOM      2  O   UNL     1       4.410   3.046  18.054  0.00  0.00    +0.000 OA
ATOM      3  N   UNL     1       5.084   5.162  17.413  0.00  0.00    +0.000 N 
ATOM      4  H   UNL     1       5.481   6.000  17.820  0.00  0.00    +0.000 HD
ENDROOT
BRANCH   3   5
ATOM      5  C   UNL     1       5.488   4.826  16.102  0.00  0.00    +0.000 A 
ATOM      6  C   UNL     1       4.605   4.248  15.185  0.00  0.00    +0.000 A 
ATOM      7  C   UNL     1       5.027   3.935  13.885  0.00  0.00    +0.000 A 
ATOM      8  C   UNL     1       6.349   4.180  13.493  0.00  0.00    +0.000 A 
ATOM      9  C   UNL     1       7.231   4.758  14.420  0.00  0.00    +0.000 A 
ATOM     10  C   UNL     1       6.795   5.109  15.705  0.00  0.00    +0.000 A 
BRANCH   8  11
ATOM     11  C   UNL     1       6.827   3.831  12.103  0.00  0.00    +0.000 C 
ATOM     12  F   UNL     1       7.569   2.689  12.049  0.00  0.00    +0.000 F 
ATOM     13  F   UNL     1       5.798   3.645  11.230  0.00  0.00    +0.000 F 
ATOM     14  F   UNL     1       7.606   4.809  11.561  0.00  0.00    +0.000 F 
ENDBRANCH   8  11
ENDBRANCH   3   5
BRANCH   1  15
ATOM     15  C   UNL     1       4.036   4.869  19.596  0.00  0.00    +0.000 C 
BRANCH  15  16
ATOM     16  C   UNL     1       2.586   5.442  19.567  0.00  0.00    +0.000 C 
ATOM     17  C   UNL     1       1.731   4.936  20.753  0.00  0.00    +0.000 C 
ATOM     18  C   UNL     1       1.184   3.576  20.347  0.00  0.00    +0.000 C 
ATOM     19  C   UNL     1       1.158   3.565  18.827  0.00  0.00    +0.000 C 
ATOM     20  C   UNL     1       1.801   4.869  18.363  0.00  0.00    +0.000 C 
BRANCH  16  21
ATOM     21  C   UNL     1       2.558   6.993  19.538  0.00  0.00    +0.000 C 
BRANCH  21  23
ATOM     22  O   UNL     1       3.671   7.585  17.449  0.00  0.00    +0.000 OA
ATOM     23  C   UNL     1       2.689   7.634  18.173  0.00  0.00    +0.000 C 
BRANCH  23  24
ATOM     24  O   UNL     1       1.565   8.300  17.814  0.00  0.00    +0.000 OA
ATOM     25  H   UNL     1       0.888   8.329  18.516  0.00  0.00    +0.000 HD
ENDBRANCH  23  24
ENDBRANCH  21  23
ENDBRANCH  16  21
ENDBRANCH  15  16
ENDBRANCH   1  15
TORSDOF 7
ENDMDL
MODEL 4
REMARK VINA RESULT:      -6.9      5.913      8.059
REMARK  Name = 
REMARK  7 active torsions:
REMARK  status: ('A' for Active; 'I' for Inactive)
REMARK    1  A    between atoms: C_2  and  O_3
REMARK    2  A    between atoms: C_2  and  C_4
REMARK    3  A    between atoms: C_4  and  C_5
REMARK    4  A    between atoms: C_5  and  C_6
REMARK    5  A    between atoms: C_6  and  C_7
REMARK    6  A    between atoms: N_9  and  C_10
REMARK    7  A    between atoms: C_13  and  C_14
REMARK                            x       y       z     vdW  Elec       q    Type
REMARK                         _______ _______ _______ _____ _____    ______ ____
ROOT
ATOM      1  C   UNL     1       2.187   5.618  20.219  0.00  0.00    +0.000 C 
ATOM      2  O   UNL     1       1.023   5.294  20.446  0.00  0.00    +0.000 OA
ATOM      3  N   UNL     1       2.600   6.919  19.981  0.00  0.00    +0.000 N 
ATOM      4  H   UNL     1       3.445   7.039  19.435  0.00  0.00    +0.000 HD
ENDROOT
BRANCH   3   5
ATOM      5  C   UNL     1       1.740   8.033  20.094  0.00  0.00    +0.000 A 
ATOM      6  C   UNL     1       1.190   8.417  21.320  0.00  0.00    +0.000 A 
ATOM      7  C   UNL     1       0.348   9.535  21.408  0.00  0.00    +0.000 A 
ATOM      8  C   UNL     1       0.031  10.273  20.260  0.00  0.00    +0.000 A 
ATOM      9  C   UNL     1       0.585   9.880  19.032  0.00  0.00    +0.000 A 
ATOM     10  C   UNL     1       1.460   8.787  18.954  0.00  0.00    +0.000 A 
BRANCH   8  11
ATOM     11  C   UNL     1      -0.890  11.468  20.332  0.00  0.00    +0.000 C 
ATOM     12  F   UNL     1      -1.387  11.704  21.578  0.00  0.00    +0.000 F 
ATOM     13  F   UNL     1      -0.274  12.624  19.954  0.00  0.00    +0.000 F 
ATOM     14  F   UNL     1      -1.973  11.339  19.515  0.00  0.00    +0.000 F 
ENDBRANCH   8  11
ENDBRANCH   3   5
BRANCH   1  15
ATOM     15  C   UNL     1       3.320   4.595  20.172  0.00  0.00    +0.000 C 
BRANCH  15  16
ATOM     16  C   UNL     1       3.760   4.153  18.743  0.00  0.00    +0.000 C 
ATOM     17  C   UNL     1       2.570   4.100  17.754  0.00  0.00    +0.000 C 
ATOM     18  C   UNL     1       1.901   2.749  17.949  0.00  0.00    +0.000 C 
ATOM     19  C   UNL     1       2.969   1.822  18.510  0.00  0.00    +0.000 C 
ATOM     20  C   UNL     1       4.213   2.673  18.749  0.00  0.00    +0.000 C 
BRANCH  16  21
ATOM     21  C   UNL     1       4.877   5.055  18.155  0.00  0.00    +0.000 C 
BRANCH  21  23
ATOM     22  O   UNL     1       6.635   5.234  19.838  0.00  0.00    +0.000 OA
ATOM     23  C   UNL     1       6.261   4.861  18.738  0.00  0.00    +0.000 C 
BRANCH  23  24
ATOM     24  O   UNL     1       7.084   4.208  17.883  0.00  0.00    +0.000 OA
ATOM     25  H   UNL     1       8.021   4.218  18.158  0.00  0.00    +0.000 HD
ENDBRANCH  23  24
ENDBRANCH  21  23
ENDBRANCH  16  21
ENDBRANCH  15  16
ENDBRANCH   1  15
TORSDOF 7
ENDMDL
MODEL 5
REMARK VINA RESULT:      -6.9      5.378      7.905
REMARK  Name = 
REMARK  7 active torsions:
REMARK  status: ('A' for Active; 'I' for Inactive)
REMARK    1  A    between atoms: C_2  and  O_3
REMARK    2  A    between atoms: C_2  and  C_4
REMARK    3  A    between atoms: C_4  and  C_5
REMARK    4  A    between atoms: C_5  and  C_6
REMARK    5  A    between atoms: C_6  and  C_7
REMARK    6  A    between atoms: N_9  and  C_10
REMARK    7  A    between atoms: C_13  and  C_14
REMARK                            x       y       z     vdW  Elec       q    Type
REMARK                         _______ _______ _______ _____ _____    ______ ____
ROOT
ATOM      1  C   UNL     1       4.085   5.509  18.528  0.00  0.00    +0.000 C 
ATOM      2  O   UNL     1       4.294   5.527  19.740  0.00  0.00    +0.000 OA
ATOM      3  N   UNL     1       3.170   6.327  17.885  0.00  0.00    +0.000 N 
ATOM      4  H   UNL     1       2.788   5.988  17.010  0.00  0.00    +0.000 HD
ENDROOT
BRANCH   3   5
ATOM      5  C   UNL     1       2.463   7.358  18.542  0.00  0.00    +0.000 A 
ATOM      6  C   UNL     1       2.082   8.527  17.877  0.00  0.00    +0.000 A 
ATOM      7  C   UNL     1       1.369   9.532  18.547  0.00  0.00    +0.000 A 
ATOM      8  C   UNL     1       1.045   9.384  19.902  0.00  0.00    +0.000 A 
ATOM      9  C   UNL     1       1.434   8.208  20.564  0.00  0.00    +0.000 A 
ATOM     10  C   UNL     1       2.109   7.188  19.880  0.00  0.00    +0.000 A 
BRANCH   8  11
ATOM     11  C   UNL     1       0.296  10.464  20.646  0.00  0.00    +0.000 C 
ATOM     12  F   UNL     1       0.205  10.244  21.987  0.00  0.00    +0.000 F 
ATOM     13  F   UNL     1       0.876  11.690  20.509  0.00  0.00    +0.000 F 
ATOM     14  F   UNL     1      -0.986  10.606  20.204  0.00  0.00    +0.000 F 
ENDBRANCH   8  11
ENDBRANCH   3   5
BRANCH   1  15
ATOM     15  C   UNL     1       4.826   4.559  17.590  0.00  0.00    +0.000 C 
BRANCH  15  16
ATOM     16  C   UNL     1       5.995   5.200  16.780  0.00  0.00    +0.000 C 
ATOM     17  C   UNL     1       7.320   4.417  16.947  0.00  0.00    +0.000 C 
ATOM     18  C   UNL     1       7.960   4.914  18.233  0.00  0.00    +0.000 C 
ATOM     19  C   UNL     1       7.418   6.316  18.465  0.00  0.00    +0.000 C 
ATOM     20  C   UNL     1       6.379   6.574  17.378  0.00  0.00    +0.000 C 
BRANCH  16  21
ATOM     21  C   UNL     1       5.668   5.342  15.270  0.00  0.00    +0.000 C 
BRANCH  21  23
ATOM     22  O   UNL     1       7.711   5.406  13.937  0.00  0.00    +0.000 OA
ATOM     23  C   UNL     1       6.714   4.810  14.312  0.00  0.00    +0.000 C 
BRANCH  23  24
ATOM     24  O   UNL     1       6.425   3.556  13.890  0.00  0.00    +0.000 OA
ATOM     25  H   UNL     1       5.957   3.531  13.034  0.00  0.00    +0.000 HD
ENDBRANCH  23  24
ENDBRANCH  21  23
ENDBRANCH  16  21
ENDBRANCH  15  16
ENDBRANCH   1  15
TORSDOF 7
ENDMDL
MODEL 6
REMARK VINA RESULT:      -6.8      6.007      8.196
REMARK  Name = 
REMARK  7 active torsions:
REMARK  status: ('A' for Active; 'I' for Inactive)
REMARK    1  A    between atoms: C_2  and  O_3
REMARK    2  A    between atoms: C_2  and  C_4
REMARK    3  A    between atoms: C_4  and  C_5
REMARK    4  A    between atoms: C_5  and  C_6
REMARK    5  A    between atoms: C_6  and  C_7
REMARK    6  A    between atoms: N_9  and  C_10
REMARK    7  A    between atoms: C_13  and  C_14
REMARK                            x       y       z     vdW  Elec       q    Type
REMARK                         _______ _______ _______ _____ _____    ______ ____
ROOT
ATOM      1  C   UNL     1       2.155   5.663  20.280  0.00  0.00    +0.000 C 
ATOM      2  O   UNL     1       0.993   5.331  20.508  0.00  0.00    +0.000 OA
ATOM      3  N   UNL     1       2.562   6.970  20.064  0.00  0.00    +0.000 N 
ATOM      4  H   UNL     1       3.402   7.103  19.514  0.00  0.00    +0.000 HD
ENDROOT
BRANCH   3   5
ATOM      5  C   UNL     1       1.699   8.079  20.204  0.00  0.00    +0.000 A 
ATOM      6  C   UNL     1       1.331   8.868  19.110  0.00  0.00    +0.000 A 
ATOM      7  C   UNL     1       0.463   9.957  19.272  0.00  0.00    +0.000 A 
ATOM      8  C   UNL     1      -0.033  10.282  20.541  0.00  0.00    +0.000 A 
ATOM      9  C   UNL     1       0.342   9.487  21.636  0.00  0.00    +0.000 A 
ATOM     10  C   UNL     1       1.176   8.374  21.464  0.00  0.00    +0.000 A 
BRANCH   8  11
ATOM     11  C   UNL     1      -0.954  11.463  20.739  0.00  0.00    +0.000 C 
ATOM     12  F   UNL     1      -1.585  11.471  21.945  0.00  0.00    +0.000 F 
ATOM     13  F   UNL     1      -0.296  12.655  20.657  0.00  0.00    +0.000 F 
ATOM     14  F   UNL     1      -1.940  11.516  19.800  0.00  0.00    +0.000 F 
ENDBRANCH   8  11
ENDBRANCH   3   5
BRANCH   1  15
ATOM     15  C   UNL     1       3.291   4.646  20.204  0.00  0.00    +0.000 C 
BRANCH  15  16
ATOM     16  C   UNL     1       3.695   4.202  18.765  0.00  0.00    +0.000 C 
ATOM     17  C   UNL     1       2.488   4.190  17.796  0.00  0.00    +0.000 C 
ATOM     18  C   UNL     1       1.785   2.855  17.993  0.00  0.00    +0.000 C 
ATOM     19  C   UNL     1       2.836   1.896  18.530  0.00  0.00    +0.000 C 
ATOM     20  C   UNL     1       4.106   2.711  18.753  0.00  0.00    +0.000 C 
BRANCH  16  21
ATOM     21  C   UNL     1       4.826   5.078  18.165  0.00  0.00    +0.000 C 
BRANCH  21  23
ATOM     22  O   UNL     1       6.586   5.299  19.841  0.00  0.00    +0.000 OA
ATOM     23  C   UNL     1       6.204   4.879  18.760  0.00  0.00    +0.000 C 
BRANCH  23  24
ATOM     24  O   UNL     1       7.012   4.162  17.942  0.00  0.00    +0.000 OA
ATOM     25  H   UNL     1       7.853   4.611  17.733  0.00  0.00    +0.000 HD
ENDBRANCH  23  24
ENDBRANCH  21  23
ENDBRANCH  16  21
ENDBRANCH  15  16
ENDBRANCH   1  15
TORSDOF 7
ENDMDL
MODEL 7
REMARK VINA RESULT:      -6.8      5.356      7.511
REMARK  Name = 
REMARK  7 active torsions:
REMARK  status: ('A' for Active; 'I' for Inactive)
REMARK    1  A    between atoms: C_2  and  O_3
REMARK    2  A    between atoms: C_2  and  C_4
REMARK    3  A    between atoms: C_4  and  C_5
REMARK    4  A    between atoms: C_5  and  C_6
REMARK    5  A    between atoms: C_6  and  C_7
REMARK    6  A    between atoms: N_9  and  C_10
REMARK    7  A    between atoms: C_13  and  C_14
REMARK                            x       y       z     vdW  Elec       q    Type
REMARK                         _______ _______ _______ _____ _____    ______ ____
ROOT
ATOM      1  C   UNL     1       2.456   5.641  19.905  0.00  0.00    +0.000 C 
ATOM      2  O   UNL     1       1.480   5.539  20.645  0.00  0.00    +0.000 OA
ATOM      3  N   UNL     1       2.742   6.763  19.145  0.00  0.00    +0.000 N 
ATOM      4  H   UNL     1       3.297   6.622  18.309  0.00  0.00    +0.000 HD
ENDROOT
BRANCH   3   5
ATOM      5  C   UNL     1       2.002   7.963  19.234  0.00  0.00    +0.000 A 
ATOM      6  C   UNL     1       1.528   8.447  20.457  0.00  0.00    +0.000 A 
ATOM      7  C   UNL     1       0.806   9.647  20.522  0.00  0.00    +0.000 A 
ATOM      8  C   UNL     1       0.532  10.369  19.353  0.00  0.00    +0.000 A 
ATOM      9  C   UNL     1       1.008   9.876  18.128  0.00  0.00    +0.000 A 
ATOM     10  C   UNL     1       1.766   8.699  18.072  0.00  0.00    +0.000 A 
BRANCH   8  11
ATOM     11  C   UNL     1      -0.262  11.654  19.400  0.00  0.00    +0.000 C 
ATOM     12  F   UNL     1      -0.050  12.468  18.329  0.00  0.00    +0.000 F 
ATOM     13  F   UNL     1      -1.607  11.434  19.439  0.00  0.00    +0.000 F 
ATOM     14  F   UNL     1       0.026  12.403  20.502  0.00  0.00    +0.000 F 
ENDBRANCH   8  11
ENDBRANCH   3   5
BRANCH   1  15
ATOM     15  C   UNL     1       3.473   4.513  19.740  0.00  0.00    +0.000 C 
BRANCH  15  16
ATOM     16  C   UNL     1       3.355   3.697  18.417  0.00  0.00    +0.000 C 
ATOM     17  C   UNL     1       1.935   3.775  17.805  0.00  0.00    +0.000 C 
ATOM     18  C   UNL     1       1.098   2.719  18.512  0.00  0.00    +0.000 C 
ATOM     19  C   UNL     1       2.075   1.668  19.015  0.00  0.00    +0.000 C 
ATOM     20  C   UNL     1       3.478   2.181  18.702  0.00  0.00    +0.000 C 
BRANCH  16  21
ATOM     21  C   UNL     1       4.397   4.131  17.353  0.00  0.00    +0.000 C 
BRANCH  21  23
ATOM     22  O   UNL     1       5.699   6.117  17.914  0.00  0.00    +0.000 OA
ATOM     23  C   UNL     1       5.593   4.901  17.872  0.00  0.00    +0.000 C 
BRANCH  23  24
ATOM     24  O   UNL     1       6.580   4.079  18.302  0.00  0.00    +0.000 OA
ATOM     25  H   UNL     1       6.429   3.724  19.198  0.00  0.00    +0.000 HD
ENDBRANCH  23  24
ENDBRANCH  21  23
ENDBRANCH  16  21
ENDBRANCH  15  16
ENDBRANCH   1  15
TORSDOF 7
ENDMDL
MODEL 8
REMARK VINA RESULT:      -6.8      5.396      7.548
REMARK  Name = 
REMARK  7 active torsions:
REMARK  status: ('A' for Active; 'I' for Inactive)
REMARK    1  A    between atoms: C_2  and  O_3
REMARK    2  A    between atoms: C_2  and  C_4
REMARK    3  A    between atoms: C_4  and  C_5
REMARK    4  A    between atoms: C_5  and  C_6
REMARK    5  A    between atoms: C_6  and  C_7
REMARK    6  A    between atoms: N_9  and  C_10
REMARK    7  A    between atoms: C_13  and  C_14
REMARK                            x       y       z     vdW  Elec       q    Type
REMARK                         _______ _______ _______ _____ _____    ______ ____
ROOT
ATOM      1  C   UNL     1       2.447   5.640  19.893  0.00  0.00    +0.000 C 
ATOM      2  O   UNL     1       1.450   5.541  20.606  0.00  0.00    +0.000 OA
ATOM      3  N   UNL     1       2.763   6.765  19.150  0.00  0.00    +0.000 N 
ATOM      4  H   UNL     1       3.340   6.625  18.329  0.00  0.00    +0.000 HD
ENDROOT
BRANCH   3   5
ATOM      5  C   UNL     1       2.029   7.970  19.226  0.00  0.00    +0.000 A 
ATOM      6  C   UNL     1       1.761   8.741  18.091  0.00  0.00    +0.000 A 
ATOM      7  C   UNL     1       1.020   9.927  18.189  0.00  0.00    +0.000 A 
ATOM      8  C   UNL     1       0.554  10.367  19.435  0.00  0.00    +0.000 A 
ATOM      9  C   UNL     1       0.830   9.589  20.571  0.00  0.00    +0.000 A 
ATOM     10  C   UNL     1       1.534   8.382  20.463  0.00  0.00    +0.000 A 
BRANCH   8  11
ATOM     11  C   UNL     1      -0.229  11.652  19.564  0.00  0.00    +0.000 C 
ATOM     12  F   UNL     1      -0.441  12.287  18.378  0.00  0.00    +0.000 F 
ATOM     13  F   UNL     1      -1.464  11.458  20.107  0.00  0.00    +0.000 F 
ATOM     14  F   UNL     1       0.393  12.560  20.369  0.00  0.00    +0.000 F 
ENDBRANCH   8  11
ENDBRANCH   3   5
BRANCH   1  15
ATOM     15  C   UNL     1       3.460   4.506  19.750  0.00  0.00    +0.000 C 
BRANCH  15  16
ATOM     16  C   UNL     1       3.346   3.672  18.437  0.00  0.00    +0.000 C 
ATOM     17  C   UNL     1       1.933   3.755  17.812  0.00  0.00    +0.000 C 
ATOM     18  C   UNL     1       1.079   2.718  18.525  0.00  0.00    +0.000 C 
ATOM     19  C   UNL     1       2.041   1.665  19.052  0.00  0.00    +0.000 C 
ATOM     20  C   UNL     1       3.451   2.159  18.745  0.00  0.00    +0.000 C 
BRANCH  16  21
ATOM     21  C   UNL     1       4.402   4.081  17.377  0.00  0.00    +0.000 C 
BRANCH  21  23
ATOM     22  O   UNL     1       5.673   6.088  17.934  0.00  0.00    +0.000 OA
ATOM     23  C   UNL     1       5.587   4.871  17.891  0.00  0.00    +0.000 C 
BRANCH  23  24
ATOM     24  O   UNL     1       6.589   4.065  18.317  0.00  0.00    +0.000 OA
ATOM     25  H   UNL     1       6.294   3.369  18.934  0.00  0.00    +0.000 HD
ENDBRANCH  23  24
ENDBRANCH  21  23
ENDBRANCH  16  21
ENDBRANCH  15  16
ENDBRANCH   1  15
TORSDOF 7
ENDMDL
MODEL 9
REMARK VINA RESULT:      -6.8      5.229      7.753
REMARK  Name = 
REMARK  7 active torsions:
REMARK  status: ('A' for Active; 'I' for Inactive)
REMARK    1  A    between atoms: C_2  and  O_3
REMARK    2  A    between atoms: C_2  and  C_4
REMARK    3  A    between atoms: C_4  and  C_5
REMARK    4  A    between atoms: C_5  and  C_6
REMARK    5  A    between atoms: C_6  and  C_7
REMARK    6  A    between atoms: N_9  and  C_10
REMARK    7  A    between atoms: C_13  and  C_14
REMARK                            x       y       z     vdW  Elec       q    Type
REMARK                         _______ _______ _______ _____ _____    ______ ____
ROOT
ATOM      1  C   UNL     1       3.523   5.378  17.807  0.00  0.00    +0.000 C 
ATOM      2  O   UNL     1       2.400   4.951  17.547  0.00  0.00    +0.000 OA
ATOM      3  N   UNL     1       3.781   6.663  18.258  0.00  0.00    +0.000 N 
ATOM      4  H   UNL     1       4.702   7.039  18.068  0.00  0.00    +0.000 HD
ENDROOT
BRANCH   3   5
ATOM      5  C   UNL     1       2.761   7.585  18.583  0.00  0.00    +0.000 A 
ATOM      6  C   UNL     1       2.307   8.534  17.663  0.00  0.00    +0.000 A 
ATOM      7  C   UNL     1       1.285   9.431  18.004  0.00  0.00    +0.000 A 
ATOM      8  C   UNL     1       0.717   9.400  19.285  0.00  0.00    +0.000 A 
ATOM      9  C   UNL     1       1.180   8.446  20.205  0.00  0.00    +0.000 A 
ATOM     10  C   UNL     1       2.172   7.523  19.846  0.00  0.00    +0.000 A 
BRANCH   8  11
ATOM     11  C   UNL     1      -0.371  10.371  19.678  0.00  0.00    +0.000 C 
ATOM     12  F   UNL     1       0.010  11.677  19.614  0.00  0.00    +0.000 F 
ATOM     13  F   UNL     1      -1.474  10.267  18.884  0.00  0.00    +0.000 F 
ATOM     14  F   UNL     1      -0.809  10.172  20.953  0.00  0.00    +0.000 F 
ENDBRANCH   8  11
ENDBRANCH   3   5
BRANCH   1  15
ATOM     15  C   UNL     1       4.776   4.519  17.652  0.00  0.00    +0.000 C 
BRANCH  15  16
ATOM     16  C   UNL     1       5.926   5.162  16.818  0.00  0.00    +0.000 C 
ATOM     17  C   UNL     1       7.262   4.395  16.973  0.00  0.00    +0.000 C 
ATOM     18  C   UNL     1       7.916   4.913  18.245  0.00  0.00    +0.000 C 
ATOM     19  C   UNL     1       7.363   6.312  18.468  0.00  0.00    +0.000 C 
ATOM     20  C   UNL     1       6.305   6.547  17.394  0.00  0.00    +0.000 C 
BRANCH  16  21
ATOM     21  C   UNL     1       5.576   5.283  15.311  0.00  0.00    +0.000 C 
BRANCH  21  23
ATOM     22  O   UNL     1       7.645   5.398  14.023  0.00  0.00    +0.000 OA
ATOM     23  C   UNL     1       6.633   4.796  14.343  0.00  0.00    +0.000 C 
BRANCH  23  24
ATOM     24  O   UNL     1       6.335   3.573  13.840  0.00  0.00    +0.000 OA
ATOM     25  H   UNL     1       7.000   2.891  14.055  0.00  0.00    +0.000 HD
ENDBRANCH  23  24
ENDBRANCH  21  23
ENDBRANCH  16  21
ENDBRANCH  15  16
ENDBRANCH   1  15
TORSDOF 7
ENDMDL
