MODEL 1
REMARK VINA RESULT:      -6.6      0.000      0.000
REMARK  Name = 
REMARK  12 active torsions:
REMARK  status: ('A' for Active; 'I' for Inactive)
REMARK    1  A    between atoms: C_1  and  C_2
REMARK    2  A    between atoms: C_2  and  C_3
REMARK    3  A    between atoms: C_3  and  C_4
REMARK    4  A    between atoms: C_4  and  C_5
REMARK    5  A    between atoms: C_5  and  C_6
REMARK    6  A    between atoms: C_6  and  C_7
REMARK    7  A    between atoms: C_11  and  C_12
REMARK    8  A    between atoms: N_14  and  C_15
REMARK    9  A    between atoms: C_15  and  C_16
REMARK   10  A    between atoms: N_18  and  C_19
REMARK   11  A    between atoms: C_31  and  C_32
REMARK   12  A    between atoms: N_34  and  O_35
REMARK                            x       y       z     vdW  Elec       q    Type
REMARK                         _______ _______ _______ _____ _____    ______ ____
ROOT
ATOM      1  C   UNL     1      -4.599  11.854  18.047  0.00  0.00    +0.000 C 
ATOM      2  C   UNL     1      -4.776  12.375  19.817  0.00  0.00    +0.000 C 
ATOM      3  O   UNL     1      -5.958  12.566  20.166  0.00  0.00    +0.000 OA
ATOM      4  N   UNL     1      -3.805  12.451  20.923  0.00  0.00    +0.000 N 
ATOM      5  C   UNL     1      -3.439  13.125  22.585  0.00  0.00    +0.000 C 
ATOM      6  C   UNL     1      -2.545  12.024  23.260  0.00  0.00    +0.000 C 
ATOM      7  C   UNL     1      -1.127  12.039  22.702  0.00  0.00    +0.000 A 
ATOM      8  C   UNL     1      -0.688  13.123  21.924  0.00  0.00    +0.000 A 
ATOM      9  C   UNL     1      -0.282  12.832  20.642  0.00  0.00    +0.000 A 
ATOM     10  C   UNL     1      -0.051  11.501  20.346  0.00  0.00    +0.000 A 
ATOM     11  C   UNL     1       0.041  10.523  21.339  0.00  0.00    +0.000 A 
ATOM     12  C   UNL     1      -0.533  10.788  22.551  0.00  0.00    +0.000 A 
ATOM     13  O   UNL     1      -0.230  11.088  19.056  0.00  0.00    +0.000 OA
ATOM     14  C   UNL     1      -1.458  10.348  19.067  0.00  0.00    +0.000 C 
ATOM     15  C   UNL     1      -1.804  10.048  17.653  0.00  0.00    +0.000 C 
ATOM     16  C   UNL     1      -3.214   9.500  17.633  0.00  0.00    +0.000 C 
ATOM     17  C   UNL     1      -4.176  10.552  17.133  0.00  0.00    +0.000 C 
ATOM     18  H   UNL     1      -4.287  11.685  21.387  0.00  0.00    +0.000 HD
ENDROOT
BRANCH   5  19
ATOM     19  C   UNL     1      -2.807  14.603  23.465  0.00  0.00    +0.000 C 
ATOM     20  O   UNL     1      -2.510  14.533  24.659  0.00  0.00    +0.000 OA
ATOM     21  N   UNL     1      -2.608  15.834  22.728  0.00  0.00    +0.000 N 
ATOM     22  H   UNL     1      -2.811  15.963  21.738  0.00  0.00    +0.000 HD
BRANCH  21  23
ATOM     23  C   UNL     1      -2.156  17.266  23.266  0.00  0.00    +0.000 C 
BRANCH  23  24
ATOM     24  C   UNL     1      -2.079  17.486  24.860  0.00  0.00    +0.000 C 
ATOM     25  O   UNL     1      -3.006  18.027  25.469  0.00  0.00    +0.000 OA
ATOM     26  N   UNL     1      -0.935  17.027  25.532  0.00  0.00    +0.000 N 
ATOM     27  C   UNL     1      -0.692  17.146  26.985  0.00  0.00    +0.000 C 
ATOM     28  H   UNL     1      -0.159  16.648  25.004  0.00  0.00    +0.000 HD
ENDBRANCH  23  24
ENDBRANCH  21  23
ENDBRANCH   5  19
BRANCH  17  29
ATOM     29  C   UNL     1      -3.619  10.922  15.667  0.00  0.00    +0.000 C 
ATOM     30  O   UNL     1      -2.767  11.790  15.462  0.00  0.00    +0.000 OA
ATOM     31  N   UNL     1      -4.069  10.118  14.625  0.00  0.00    +0.000 N 
ATOM     32  H   UNL     1      -4.679   9.318  14.730  0.00  0.00    +0.000 HD
BRANCH  31  33
ATOM     33  O   UNL     1      -3.426  10.216  13.367  0.00  0.00    +0.000 OA
ATOM     34  H   UNL     1      -2.903   9.392  13.309  0.00  0.00    +0.000 HD
ENDBRANCH  31  33
ENDBRANCH  17  29
BRANCH   1  35
ATOM     35  C   UNL     1      -5.932  12.251  17.144  0.00  0.00    +0.000 C 
BRANCH  35  36
ATOM     36  C   UNL     1      -6.949  13.503  17.177  0.00  0.00    +0.000 C 
BRANCH  36  37
ATOM     37  C   UNL     1      -6.933  14.990  16.674  0.00  0.00    +0.000 C 
BRANCH  37  38
ATOM     38  C   UNL     1      -6.718  16.217  17.560  0.00  0.00    +0.000 C 
BRANCH  38  40
ATOM     39  C   UNL     1      -6.758  15.998  20.078  0.00  0.00    +0.000 C 
ATOM     40  C   UNL     1      -7.538  16.379  18.839  0.00  0.00    +0.000 C 
ENDBRANCH  38  40
ENDBRANCH  37  38
ENDBRANCH  36  37
ENDBRANCH  35  36
ENDBRANCH   1  35
TORSDOF 10
ENDMDL
MODEL 2
REMARK VINA RESULT:      -6.6      3.725      8.137
REMARK  Name = 
REMARK  12 active torsions:
REMARK  status: ('A' for Active; 'I' for Inactive)
REMARK    1  A    between atoms: C_1  and  C_2
REMARK    2  A    between atoms: C_2  and  C_3
REMARK    3  A    between atoms: C_3  and  C_4
REMARK    4  A    between atoms: C_4  and  C_5
REMARK    5  A    between atoms: C_5  and  C_6
REMARK    6  A    between atoms: C_6  and  C_7
REMARK    7  A    between atoms: C_11  and  C_12
REMARK    8  A    between atoms: N_14  and  C_15
REMARK    9  A    between atoms: C_15  and  C_16
REMARK   10  A    between atoms: N_18  and  C_19
REMARK   11  A    between atoms: C_31  and  C_32
REMARK   12  A    between atoms: N_34  and  O_35
REMARK                            x       y       z     vdW  Elec       q    Type
REMARK                         _______ _______ _______ _____ _____    ______ ____
ROOT
ATOM      1  C   UNL     1       0.840  13.803  20.969  0.00  0.00    +0.000 C 
ATOM      2  C   UNL     1      -0.417  12.915  22.000  0.00  0.00    +0.000 C 
ATOM      3  O   UNL     1      -0.134  11.719  22.215  0.00  0.00    +0.000 OA
ATOM      4  N   UNL     1      -1.599  13.393  22.740  0.00  0.00    +0.000 N 
ATOM      5  C   UNL     1      -3.172  12.936  23.559  0.00  0.00    +0.000 C 
ATOM      6  C   UNL     1      -3.315  13.975  24.728  0.00  0.00    +0.000 C 
ATOM      7  C   UNL     1      -3.731  15.345  24.206  0.00  0.00    +0.000 A 
ATOM      8  C   UNL     1      -4.201  15.484  22.890  0.00  0.00    +0.000 A 
ATOM      9  C   UNL     1      -3.487  16.329  22.071  0.00  0.00    +0.000 A 
ATOM     10  C   UNL     1      -2.586  17.181  22.684  0.00  0.00    +0.000 A 
ATOM     11  C   UNL     1      -2.580  17.389  24.064  0.00  0.00    +0.000 A 
ATOM     12  C   UNL     1      -3.150  16.431  24.857  0.00  0.00    +0.000 A 
ATOM     13  O   UNL     1      -1.490  17.578  21.972  0.00  0.00    +0.000 OA
ATOM     14  C   UNL     1      -0.395  16.839  22.527  0.00  0.00    +0.000 C 
ATOM     15  C   UNL     1       0.785  17.082  21.657  0.00  0.00    +0.000 C 
ATOM     16  C   UNL     1       1.871  16.113  22.078  0.00  0.00    +0.000 C 
ATOM     17  C   UNL     1       1.979  14.986  21.078  0.00  0.00    +0.000 C 
ATOM     18  H   UNL     1      -1.130  13.172  23.615  0.00  0.00    +0.000 HD
ENDROOT
BRANCH   5  19
ATOM     19  C   UNL     1      -4.944  12.591  23.248  0.00  0.00    +0.000 C 
ATOM     20  O   UNL     1      -5.711  12.392  24.191  0.00  0.00    +0.000 OA
ATOM     21  N   UNL     1      -5.441  12.611  21.887  0.00  0.00    +0.000 N 
ATOM     22  H   UNL     1      -4.874  12.786  21.059  0.00  0.00    +0.000 HD
BRANCH  21  23
ATOM     23  C   UNL     1      -6.901  12.266  21.345  0.00  0.00    +0.000 C 
BRANCH  23  24
ATOM     24  C   UNL     1      -7.099  10.892  20.527  0.00  0.00    +0.000 C 
ATOM     25  O   UNL     1      -6.852  10.833  19.320  0.00  0.00    +0.000 OA
ATOM     26  N   UNL     1      -7.546   9.765  21.236  0.00  0.00    +0.000 N 
ATOM     27  C   UNL     1      -7.786   8.428  20.652  0.00  0.00    +0.000 C 
ATOM     28  H   UNL     1      -7.808   9.853  22.210  0.00  0.00    +0.000 HD
ENDBRANCH  23  24
ENDBRANCH  21  23
ENDBRANCH   5  19
BRANCH  17  29
ATOM     29  C   UNL     1       2.299  15.731  19.685  0.00  0.00    +0.000 C 
ATOM     30  O   UNL     1       1.480  15.842  18.769  0.00  0.00    +0.000 OA
ATOM     31  N   UNL     1       3.536  16.362  19.603  0.00  0.00    +0.000 N 
ATOM     32  H   UNL     1       4.214  16.411  20.353  0.00  0.00    +0.000 HD
BRANCH  31  33
ATOM     33  O   UNL     1       3.775  17.247  18.525  0.00  0.00    +0.000 OA
ATOM     34  H   UNL     1       4.062  16.658  17.800  0.00  0.00    +0.000 HD
ENDBRANCH  31  33
ENDBRANCH  17  29
BRANCH   1  35
ATOM     35  C   UNL     1       1.789  12.754  20.102  0.00  0.00    +0.000 C 
BRANCH  35  36
ATOM     36  C   UNL     1       1.473  11.717  18.906  0.00  0.00    +0.000 C 
BRANCH  36  37
ATOM     37  C   UNL     1       0.985  10.230  18.795  0.00  0.00    +0.000 C 
BRANCH  37  38
ATOM     38  C   UNL     1       1.594   9.169  17.880  0.00  0.00    +0.000 C 
BRANCH  38  40
ATOM     39  C   UNL     1       3.422   7.434  17.683  0.00  0.00    +0.000 C 
ATOM     40  C   UNL     1       2.239   7.925  18.488  0.00  0.00    +0.000 C 
ENDBRANCH  38  40
ENDBRANCH  37  38
ENDBRANCH  36  37
ENDBRANCH  35  36
ENDBRANCH   1  35
TORSDOF 10
ENDMDL
MODEL 3
REMARK VINA RESULT:      -6.5     10.000     13.032
REMARK  Name = 
REMARK  12 active torsions:
REMARK  status: ('A' for Active; 'I' for Inactive)
REMARK    1  A    between atoms: C_1  and  C_2
REMARK    2  A    between atoms: C_2  and  C_3
REMARK    3  A    between atoms: C_3  and  C_4
REMARK    4  A    between atoms: C_4  and  C_5
REMARK    5  A    between atoms: C_5  and  C_6
REMARK    6  A    between atoms: C_6  and  C_7
REMARK    7  A    between atoms: C_11  and  C_12
REMARK    8  A    between atoms: N_14  and  C_15
REMARK    9  A    between atoms: C_15  and  C_16
REMARK   10  A    between atoms: N_18  and  C_19
REMARK   11  A    between atoms: C_31  and  C_32
REMARK   12  A    between atoms: N_34  and  O_35
REMARK                            x       y       z     vdW  Elec       q    Type
REMARK                         _______ _______ _______ _____ _____    ______ ____
ROOT
ATOM      1  C   UNL     1       9.821  12.255  19.965  0.00  0.00    +0.000 C 
ATOM      2  C   UNL     1       9.031  12.424  21.633  0.00  0.00    +0.000 C 
ATOM      3  O   UNL     1       8.750  11.332  22.166  0.00  0.00    +0.000 OA
ATOM      4  N   UNL     1       8.819  13.591  22.508  0.00  0.00    +0.000 N 
ATOM      5  C   UNL     1       7.911  14.272  23.945  0.00  0.00    +0.000 C 
ATOM      6  C   UNL     1       8.925  15.277  24.601  0.00  0.00    +0.000 C 
ATOM      7  C   UNL     1       9.040  16.561  23.787  0.00  0.00    +0.000 A 
ATOM      8  C   UNL     1       8.102  16.843  22.781  0.00  0.00    +0.000 A 
ATOM      9  C   UNL     1       8.599  16.993  21.506  0.00  0.00    +0.000 A 
ATOM     10  C   UNL     1       9.966  17.160  21.382  0.00  0.00    +0.000 A 
ATOM     11  C   UNL     1      10.783  17.440  22.480  0.00  0.00    +0.000 A 
ATOM     12  C   UNL     1      10.319  17.111  23.723  0.00  0.00    +0.000 A 
ATOM     13  O   UNL     1      10.565  16.734  20.231  0.00  0.00    +0.000 OA
ATOM     14  C   UNL     1      11.254  15.531  20.590  0.00  0.00    +0.000 C 
ATOM     15  C   UNL     1      11.754  14.918  19.332  0.00  0.00    +0.000 C 
ATOM     16  C   UNL     1      12.254  13.528  19.667  0.00  0.00    +0.000 C 
ATOM     17  C   UNL     1      11.260  12.491  19.201  0.00  0.00    +0.000 C 
ATOM     18  H   UNL     1       9.489  13.206  23.169  0.00  0.00    +0.000 HD
ENDROOT
BRANCH   5  19
ATOM     19  C   UNL     1       6.337  15.065  24.447  0.00  0.00    +0.000 C 
ATOM     20  O   UNL     1       6.105  15.279  25.638  0.00  0.00    +0.000 OA
ATOM     21  N   UNL     1       5.400  15.487  23.427  0.00  0.00    +0.000 N 
ATOM     22  H   UNL     1       5.531  15.363  22.424  0.00  0.00    +0.000 HD
BRANCH  21  23
ATOM     23  C   UNL     1       3.944  16.116  23.597  0.00  0.00    +0.000 C 
BRANCH  23  24
ATOM     24  C   UNL     1       2.935  16.038  22.344  0.00  0.00    +0.000 C 
ATOM     25  O   UNL     1       2.809  14.994  21.697  0.00  0.00    +0.000 OA
ATOM     26  N   UNL     1       2.195  17.187  22.024  0.00  0.00    +0.000 N 
ATOM     27  C   UNL     1       1.229  17.300  20.910  0.00  0.00    +0.000 C 
ATOM     28  H   UNL     1       2.364  18.051  22.524  0.00  0.00    +0.000 HD
ENDBRANCH  23  24
ENDBRANCH  21  23
ENDBRANCH   5  19
BRANCH  17  29
ATOM     29  C   UNL     1      11.136  12.755  17.616  0.00  0.00    +0.000 C 
ATOM     30  O   UNL     1      10.106  13.163  17.073  0.00  0.00    +0.000 OA
ATOM     31  N   UNL     1      12.308  12.609  16.882  0.00  0.00    +0.000 N 
ATOM     32  H   UNL     1      13.215  12.387  17.272  0.00  0.00    +0.000 HD
BRANCH  31  33
ATOM     33  O   UNL     1      12.333  13.075  15.545  0.00  0.00    +0.000 OA
ATOM     34  H   UNL     1      11.931  13.965  15.602  0.00  0.00    +0.000 HD
ENDBRANCH  31  33
ENDBRANCH  17  29
BRANCH   1  35
ATOM     35  C   UNL     1       9.523  10.773  19.281  0.00  0.00    +0.000 C 
BRANCH  35  36
ATOM     36  C   UNL     1       8.502  10.277  18.134  0.00  0.00    +0.000 C 
BRANCH  36  37
ATOM     37  C   UNL     1       7.880   8.907  17.687  0.00  0.00    +0.000 C 
BRANCH  37  38
ATOM     38  C   UNL     1       8.122   7.563  18.374  0.00  0.00    +0.000 C 
BRANCH  38  40
ATOM     39  C   UNL     1       7.387   5.184  18.810  0.00  0.00    +0.000 C 
ATOM     40  C   UNL     1       7.510   6.293  17.787  0.00  0.00    +0.000 C 
ENDBRANCH  38  40
ENDBRANCH  37  38
ENDBRANCH  36  37
ENDBRANCH  35  36
ENDBRANCH   1  35
TORSDOF 10
ENDMDL
MODEL 4
REMARK VINA RESULT:      -6.5      5.689      9.304
REMARK  Name = 
REMARK  12 active torsions:
REMARK  status: ('A' for Active; 'I' for Inactive)
REMARK    1  A    between atoms: C_1  and  C_2
REMARK    2  A    between atoms: C_2  and  C_3
REMARK    3  A    between atoms: C_3  and  C_4
REMARK    4  A    between atoms: C_4  and  C_5
REMARK    5  A    between atoms: C_5  and  C_6
REMARK    6  A    between atoms: C_6  and  C_7
REMARK    7  A    between atoms: C_11  and  C_12
REMARK    8  A    between atoms: N_14  and  C_15
REMARK    9  A    between atoms: C_15  and  C_16
REMARK   10  A    between atoms: N_18  and  C_19
REMARK   11  A    between atoms: C_31  and  C_32
REMARK   12  A    between atoms: N_34  and  O_35
REMARK                            x       y       z     vdW  Elec       q    Type
REMARK                         _______ _______ _______ _____ _____    ______ ____
ROOT
ATOM      1  C   UNL     1      -0.221  12.091  20.798  0.00  0.00    +0.000 C 
ATOM      2  C   UNL     1       1.217  12.359  19.661  0.00  0.00    +0.000 C 
ATOM      3  O   UNL     1       1.544  11.342  19.018  0.00  0.00    +0.000 OA
ATOM      4  N   UNL     1       1.941  13.579  19.259  0.00  0.00    +0.000 N 
ATOM      5  C   UNL     1       3.457  14.272  18.502  0.00  0.00    +0.000 C 
ATOM      6  C   UNL     1       2.967  15.581  17.785  0.00  0.00    +0.000 C 
ATOM      7  C   UNL     1       2.696  16.696  18.788  0.00  0.00    +0.000 A 
ATOM      8  C   UNL     1       3.148  16.577  20.113  0.00  0.00    +0.000 A 
ATOM      9  C   UNL     1       2.183  16.614  21.093  0.00  0.00    +0.000 A 
ATOM     10  C   UNL     1       0.930  17.067  20.722  0.00  0.00    +0.000 A 
ATOM     11  C   UNL     1       0.703  17.713  19.505  0.00  0.00    +0.000 A 
ATOM     12  C   UNL     1       1.602  17.506  18.495  0.00  0.00    +0.000 A 
ATOM     13  O   UNL     1      -0.154  16.598  21.409  0.00  0.00    +0.000 OA
ATOM     14  C   UNL     1      -0.784  15.666  20.522  0.00  0.00    +0.000 C 
ATOM     15  C   UNL     1      -1.851  14.976  21.294  0.00  0.00    +0.000 C 
ATOM     16  C   UNL     1      -2.348  13.819  20.454  0.00  0.00    +0.000 C 
ATOM     17  C   UNL     1      -1.800  12.516  20.986  0.00  0.00    +0.000 C 
ATOM     18  H   UNL     1       1.569  13.479  18.318  0.00  0.00    +0.000 HD
ENDROOT
BRANCH   5  19
ATOM     19  C   UNL     1       5.188  14.756  18.858  0.00  0.00    +0.000 C 
ATOM     20  O   UNL     1       5.556  14.927  20.021  0.00  0.00    +0.000 OA
ATOM     21  N   UNL     1       6.128  14.879  17.763  0.00  0.00    +0.000 N 
ATOM     22  H   UNL     1       5.904  14.735  16.779  0.00  0.00    +0.000 HD
BRANCH  21  23
ATOM     23  C   UNL     1       7.648  15.361  17.792  0.00  0.00    +0.000 C 
BRANCH  23  24
ATOM     24  C   UNL     1       8.772  14.293  18.229  0.00  0.00    +0.000 C 
ATOM     25  O   UNL     1       8.844  13.891  19.394  0.00  0.00    +0.000 OA
ATOM     26  N   UNL     1       9.652  13.825  17.241  0.00  0.00    +0.000 N 
ATOM     27  C   UNL     1      10.742  12.850  17.459  0.00  0.00    +0.000 C 
ATOM     28  H   UNL     1       9.619  14.218  16.309  0.00  0.00    +0.000 HD
ENDBRANCH  23  24
ENDBRANCH  21  23
ENDBRANCH   5  19
BRANCH  17  29
ATOM     29  C   UNL     1      -2.325  12.466  22.509  0.00  0.00    +0.000 C 
ATOM     30  O   UNL     1      -1.618  12.740  23.482  0.00  0.00    +0.000 OA
ATOM     31  N   UNL     1      -3.681  12.205  22.676  0.00  0.00    +0.000 N 
ATOM     32  H   UNL     1      -4.346  12.081  21.923  0.00  0.00    +0.000 HD
BRANCH  31  33
ATOM     33  O   UNL     1      -4.257  12.404  23.954  0.00  0.00    +0.000 OA
ATOM     34  H   UNL     1      -3.954  11.630  24.468  0.00  0.00    +0.000 HD
ENDBRANCH  31  33
ENDBRANCH  17  29
BRANCH   1  35
ATOM     35  C   UNL     1      -0.450  10.485  21.146  0.00  0.00    +0.000 C 
BRANCH  35  36
ATOM     36  C   UNL     1       0.528   9.332  21.710  0.00  0.00    +0.000 C 
BRANCH  36  37
ATOM     37  C   UNL     1       1.183   8.023  21.143  0.00  0.00    +0.000 C 
BRANCH  37  38
ATOM     38  C   UNL     1       1.927   7.916  19.812  0.00  0.00    +0.000 C 
BRANCH  38  40
ATOM     39  C   UNL     1       3.193   6.644  18.033  0.00  0.00    +0.000 C 
ATOM     40  C   UNL     1       2.576   6.593  19.413  0.00  0.00    +0.000 C 
ENDBRANCH  38  40
ENDBRANCH  37  38
ENDBRANCH  36  37
ENDBRANCH  35  36
ENDBRANCH   1  35
TORSDOF 10
ENDMDL
MODEL 5
REMARK VINA RESULT:      -6.4      6.955     11.319
REMARK  Name = 
REMARK  12 active torsions:
REMARK  status: ('A' for Active; 'I' for Inactive)
REMARK    1  A    between atoms: C_1  and  C_2
REMARK    2  A    between atoms: C_2  and  C_3
REMARK    3  A    between atoms: C_3  and  C_4
REMARK    4  A    between atoms: C_4  and  C_5
REMARK    5  A    between atoms: C_5  and  C_6
REMARK    6  A    between atoms: C_6  and  C_7
REMARK    7  A    between atoms: C_11  and  C_12
REMARK    8  A    between atoms: N_14  and  C_15
REMARK    9  A    between atoms: C_15  and  C_16
REMARK   10  A    between atoms: N_18  and  C_19
REMARK   11  A    between atoms: C_31  and  C_32
REMARK   12  A    between atoms: N_34  and  O_35
REMARK                            x       y       z     vdW  Elec       q    Type
REMARK                         _______ _______ _______ _____ _____    ______ ____
ROOT
ATOM      1  C   UNL     1       6.304  14.695  21.481  0.00  0.00    +0.000 C 
ATOM      2  C   UNL     1       4.614  14.234  22.087  0.00  0.00    +0.000 C 
ATOM      3  O   UNL     1       4.608  13.761  23.241  0.00  0.00    +0.000 OA
ATOM      4  N   UNL     1       3.270  14.467  21.527  0.00  0.00    +0.000 N 
ATOM      5  C   UNL     1       1.502  13.995  21.564  0.00  0.00    +0.000 C 
ATOM      6  C   UNL     1       0.740  15.322  21.210  0.00  0.00    +0.000 C 
ATOM      7  C   UNL     1       0.848  15.646  19.724  0.00  0.00    +0.000 A 
ATOM      8  C   UNL     1       1.316  14.675  18.824  0.00  0.00    +0.000 A 
ATOM      9  C   UNL     1       2.448  14.998  18.111  0.00  0.00    +0.000 A 
ATOM     10  C   UNL     1       2.830  16.327  18.110  0.00  0.00    +0.000 A 
ATOM     11  C   UNL     1       1.988  17.343  18.566  0.00  0.00    +0.000 A 
ATOM     12  C   UNL     1       0.976  16.999  19.419  0.00  0.00    +0.000 A 
ATOM     13  O   UNL     1       4.157  16.615  17.961  0.00  0.00    +0.000 OA
ATOM     14  C   UNL     1       4.603  17.011  19.264  0.00  0.00    +0.000 C 
ATOM     15  C   UNL     1       6.083  17.140  19.201  0.00  0.00    +0.000 C 
ATOM     16  C   UNL     1       6.588  17.304  20.619  0.00  0.00    +0.000 C 
ATOM     17  C   UNL     1       7.211  16.015  21.102  0.00  0.00    +0.000 C 
ATOM     18  H   UNL     1       3.071  15.104  22.295  0.00  0.00    +0.000 HD
ENDROOT
BRANCH   5  19
ATOM     19  C   UNL     1       0.293  12.776  20.921  0.00  0.00    +0.000 C 
ATOM     20  O   UNL     1      -0.874  12.795  21.315  0.00  0.00    +0.000 OA
ATOM     21  N   UNL     1       0.712  11.830  19.907  0.00  0.00    +0.000 N 
ATOM     22  H   UNL     1       1.652  11.766  19.519  0.00  0.00    +0.000 HD
BRANCH  21  23
ATOM     23  C   UNL     1      -0.108  10.629  19.252  0.00  0.00    +0.000 C 
BRANCH  23  24
ATOM     24  C   UNL     1      -1.198  10.986  18.122  0.00  0.00    +0.000 C 
ATOM     25  O   UNL     1      -1.709  12.109  18.066  0.00  0.00    +0.000 OA
ATOM     26  N   UNL     1      -1.535   9.987  17.195  0.00  0.00    +0.000 N 
ATOM     27  C   UNL     1      -2.514  10.133  16.097  0.00  0.00    +0.000 C 
ATOM     28  H   UNL     1      -1.157   9.054  17.301  0.00  0.00    +0.000 HD
ENDBRANCH  23  24
ENDBRANCH  21  23
ENDBRANCH   5  19
BRANCH  17  29
ATOM     29  C   UNL     1       8.388  15.729  20.039  0.00  0.00    +0.000 C 
ATOM     30  O   UNL     1       9.503  16.253  20.101  0.00  0.00    +0.000 OA
ATOM     31  N   UNL     1       8.123  14.750  19.087  0.00  0.00    +0.000 N 
ATOM     32  H   UNL     1       7.276  14.198  19.041  0.00  0.00    +0.000 HD
BRANCH  31  33
ATOM     33  O   UNL     1       9.193  14.266  18.296  0.00  0.00    +0.000 OA
ATOM     34  H   UNL     1       8.761  13.996  17.461  0.00  0.00    +0.000 HD
ENDBRANCH  31  33
ENDBRANCH  17  29
BRANCH   1  35
ATOM     35  C   UNL     1       7.502  13.922  22.329  0.00  0.00    +0.000 C 
BRANCH  35  36
ATOM     36  C   UNL     1       8.387  12.606  22.029  0.00  0.00    +0.000 C 
BRANCH  36  37
ATOM     37  C   UNL     1       9.864  12.311  21.587  0.00  0.00    +0.000 C 
BRANCH  37  38
ATOM     38  C   UNL     1      10.272  11.616  20.288  0.00  0.00    +0.000 C 
BRANCH  38  40
ATOM     39  C   UNL     1      11.671  11.734  18.186  0.00  0.00    +0.000 C 
ATOM     40  C   UNL     1      11.654  11.878  19.692  0.00  0.00    +0.000 C 
ENDBRANCH  38  40
ENDBRANCH  37  38
ENDBRANCH  36  37
ENDBRANCH  35  36
ENDBRANCH   1  35
TORSDOF 10
ENDMDL
MODEL 6
REMARK VINA RESULT:      -6.4      6.456      9.862
REMARK  Name = 
REMARK  12 active torsions:
REMARK  status: ('A' for Active; 'I' for Inactive)
REMARK    1  A    between atoms: C_1  and  C_2
REMARK    2  A    between atoms: C_2  and  C_3
REMARK    3  A    between atoms: C_3  and  C_4
REMARK    4  A    between atoms: C_4  and  C_5
REMARK    5  A    between atoms: C_5  and  C_6
REMARK    6  A    between atoms: C_6  and  C_7
REMARK    7  A    between atoms: C_11  and  C_12
REMARK    8  A    between atoms: N_14  and  C_15
REMARK    9  A    between atoms: C_15  and  C_16
REMARK   10  A    between atoms: N_18  and  C_19
REMARK   11  A    between atoms: C_31  and  C_32
REMARK   12  A    between atoms: N_34  and  O_35
REMARK                            x       y       z     vdW  Elec       q    Type
REMARK                         _______ _______ _______ _____ _____    ______ ____
ROOT
ATOM      1  C   UNL     1       1.072  12.442  20.004  0.00  0.00    +0.000 C 
ATOM      2  C   UNL     1       2.470  13.114  18.990  0.00  0.00    +0.000 C 
ATOM      3  O   UNL     1       2.544  12.618  17.848  0.00  0.00    +0.000 OA
ATOM      4  N   UNL     1       3.406  14.229  19.221  0.00  0.00    +0.000 N 
ATOM      5  C   UNL     1       4.988  15.015  18.739  0.00  0.00    +0.000 C 
ATOM      6  C   UNL     1       4.741  16.550  18.960  0.00  0.00    +0.000 C 
ATOM      7  C   UNL     1       4.761  16.909  20.441  0.00  0.00    +0.000 A 
ATOM      8  C   UNL     1       5.250  15.989  21.382  0.00  0.00    +0.000 A 
ATOM      9  C   UNL     1       4.369  15.588  22.360  0.00  0.00    +0.000 A 
ATOM     10  C   UNL     1       3.218  16.340  22.513  0.00  0.00    +0.000 A 
ATOM     11  C   UNL     1       3.063  17.592  21.914  0.00  0.00    +0.000 A 
ATOM     12  C   UNL     1       3.842  17.882  20.829  0.00  0.00    +0.000 A 
ATOM     13  O   UNL     1       2.100  15.715  22.989  0.00  0.00    +0.000 OA
ATOM     14  C   UNL     1       1.243  15.561  21.851  0.00  0.00    +0.000 C 
ATOM     15  C   UNL     1       0.101  14.708  22.273  0.00  0.00    +0.000 C 
ATOM     16  C   UNL     1      -0.669  14.327  21.027  0.00  0.00    +0.000 C 
ATOM     17  C   UNL     1      -0.373  12.894  20.649  0.00  0.00    +0.000 C 
ATOM     18  H   UNL     1       2.970  14.741  18.457  0.00  0.00    +0.000 HD
ENDROOT
BRANCH   5  19
ATOM     19  C   UNL     1       6.799  14.961  19.016  0.00  0.00    +0.000 C 
ATOM     20  O   UNL     1       7.258  14.374  19.997  0.00  0.00    +0.000 OA
ATOM     21  N   UNL     1       7.682  15.567  18.041  0.00  0.00    +0.000 N 
ATOM     22  H   UNL     1       7.379  16.052  17.197  0.00  0.00    +0.000 HD
BRANCH  21  23
ATOM     23  C   UNL     1       9.268  15.730  18.086  0.00  0.00    +0.000 C 
BRANCH  23  24
ATOM     24  C   UNL     1      10.167  14.394  18.052  0.00  0.00    +0.000 C 
ATOM     25  O   UNL     1      10.890  14.141  17.084  0.00  0.00    +0.000 OA
ATOM     26  N   UNL     1      10.114  13.539  19.165  0.00  0.00    +0.000 N 
ATOM     27  C   UNL     1      10.864  12.273  19.307  0.00  0.00    +0.000 C 
ATOM     28  H   UNL     1       9.464  13.731  19.917  0.00  0.00    +0.000 HD
ENDBRANCH  23  24
ENDBRANCH  21  23
ENDBRANCH   5  19
BRANCH  17  29
ATOM     29  C   UNL     1      -0.813  12.050  21.950  0.00  0.00    +0.000 C 
ATOM     30  O   UNL     1      -0.014  11.448  22.672  0.00  0.00    +0.000 OA
ATOM     31  N   UNL     1      -2.157  12.128  22.299  0.00  0.00    +0.000 N 
ATOM     32  H   UNL     1      -2.850  12.691  21.822  0.00  0.00    +0.000 HD
BRANCH  31  33
ATOM     33  O   UNL     1      -2.559  11.634  23.564  0.00  0.00    +0.000 OA
ATOM     34  H   UNL     1      -3.402  11.176  23.377  0.00  0.00    +0.000 HD
ENDBRANCH  31  33
ENDBRANCH  17  29
BRANCH   1  35
ATOM     35  C   UNL     1       0.536  10.979  19.434  0.00  0.00    +0.000 C 
BRANCH  35  36
ATOM     36  C   UNL     1       1.273   9.571  19.156  0.00  0.00    +0.000 C 
BRANCH  36  37
ATOM     37  C   UNL     1       1.732   8.762  17.892  0.00  0.00    +0.000 C 
BRANCH  37  38
ATOM     38  C   UNL     1       3.011   7.930  17.795  0.00  0.00    +0.000 C 
BRANCH  38  40
ATOM     39  C   UNL     1       2.467   6.102  19.453  0.00  0.00    +0.000 C 
ATOM     40  C   UNL     1       2.957   6.427  18.059  0.00  0.00    +0.000 C 
ENDBRANCH  38  40
ENDBRANCH  37  38
ENDBRANCH  36  37
ENDBRANCH  35  36
ENDBRANCH   1  35
TORSDOF 10
ENDMDL
MODEL 7
REMARK VINA RESULT:      -6.3      6.765     10.157
REMARK  Name = 
REMARK  12 active torsions:
REMARK  status: ('A' for Active; 'I' for Inactive)
REMARK    1  A    between atoms: C_1  and  C_2
REMARK    2  A    between atoms: C_2  and  C_3
REMARK    3  A    between atoms: C_3  and  C_4
REMARK    4  A    between atoms: C_4  and  C_5
REMARK    5  A    between atoms: C_5  and  C_6
REMARK    6  A    between atoms: C_6  and  C_7
REMARK    7  A    between atoms: C_11  and  C_12
REMARK    8  A    between atoms: N_14  and  C_15
REMARK    9  A    between atoms: C_15  and  C_16
REMARK   10  A    between atoms: N_18  and  C_19
REMARK   11  A    between atoms: C_31  and  C_32
REMARK   12  A    between atoms: N_34  and  O_35
REMARK                            x       y       z     vdW  Elec       q    Type
REMARK                         _______ _______ _______ _____ _____    ______ ____
ROOT
ATOM      1  C   UNL     1       3.984   6.091  17.906  0.00  0.00    +0.000 C 
ATOM      2  C   UNL     1       3.246   7.679  17.298  0.00  0.00    +0.000 C 
ATOM      3  O   UNL     1       3.475   7.908  16.093  0.00  0.00    +0.000 OA
ATOM      4  N   UNL     1       2.315   8.635  17.923  0.00  0.00    +0.000 N 
ATOM      5  C   UNL     1       1.608  10.323  17.880  0.00  0.00    +0.000 C 
ATOM      6  C   UNL     1       0.145  10.144  18.424  0.00  0.00    +0.000 C 
ATOM      7  C   UNL     1       0.136   9.942  19.935  0.00  0.00    +0.000 A 
ATOM      8  C   UNL     1       1.291  10.207  20.688  0.00  0.00    +0.000 A 
ATOM      9  C   UNL     1       1.811   9.152  21.403  0.00  0.00    +0.000 A 
ATOM     10  C   UNL     1       0.999   8.044  21.563  0.00  0.00    +0.000 A 
ATOM     11  C   UNL     1      -0.366   8.073  21.267  0.00  0.00    +0.000 A 
ATOM     12  C   UNL     1      -0.813   9.038  20.408  0.00  0.00    +0.000 A 
ATOM     13  O   UNL     1       1.597   6.824  21.708  0.00  0.00    +0.000 OA
ATOM     14  C   UNL     1       1.400   6.159  20.454  0.00  0.00    +0.000 C 
ATOM     15  C   UNL     1       2.204   4.910  20.488  0.00  0.00    +0.000 C 
ATOM     16  C   UNL     1       2.212   4.332  19.088  0.00  0.00    +0.000 C 
ATOM     17  C   UNL     1       3.544   4.592  18.425  0.00  0.00    +0.000 C 
ATOM     18  H   UNL     1       1.601   8.366  17.251  0.00  0.00    +0.000 HD
ENDROOT
BRANCH   5  19
ATOM     19  C   UNL     1       1.908  12.056  18.396  0.00  0.00    +0.000 C 
ATOM     20  O   UNL     1       3.045  12.424  18.696  0.00  0.00    +0.000 OA
ATOM     21  N   UNL     1       0.807  12.997  18.392  0.00  0.00    +0.000 N 
ATOM     22  H   UNL     1      -0.154  12.772  18.138  0.00  0.00    +0.000 HD
BRANCH  21  23
ATOM     23  C   UNL     1       0.783  14.518  18.869  0.00  0.00    +0.000 C 
BRANCH  23  24
ATOM     24  C   UNL     1       1.253  14.846  20.375  0.00  0.00    +0.000 C 
ATOM     25  O   UNL     1       0.426  15.112  21.252  0.00  0.00    +0.000 OA
ATOM     26  N   UNL     1       2.627  14.802  20.658  0.00  0.00    +0.000 N 
ATOM     27  C   UNL     1       3.238  15.077  21.976  0.00  0.00    +0.000 C 
ATOM     28  H   UNL     1       3.291  14.649  19.909  0.00  0.00    +0.000 HD
ENDBRANCH  23  24
ENDBRANCH  21  23
ENDBRANCH   5  19
BRANCH  17  29
ATOM     29  C   UNL     1       4.611   3.889  19.406  0.00  0.00    +0.000 C 
ATOM     30  O   UNL     1       5.395   4.518  20.122  0.00  0.00    +0.000 OA
ATOM     31  N   UNL     1       4.529   2.503  19.501  0.00  0.00    +0.000 N 
ATOM     32  H   UNL     1       3.840   1.929  19.033  0.00  0.00    +0.000 HD
BRANCH  31  33
ATOM     33  O   UNL     1       5.249   1.851  20.530  0.00  0.00    +0.000 OA
ATOM     34  H   UNL     1       4.639   1.150  20.833  0.00  0.00    +0.000 HD
ENDBRANCH  31  33
ENDBRANCH  17  29
BRANCH   1  35
ATOM     35  C   UNL     1       5.216   5.562  16.930  0.00  0.00    +0.000 C 
BRANCH  35  36
ATOM     36  C   UNL     1       5.244   4.714  15.557  0.00  0.00    +0.000 C 
BRANCH  36  37
ATOM     37  C   UNL     1       6.327   3.939  14.726  0.00  0.00    +0.000 C 
BRANCH  37  38
ATOM     38  C   UNL     1       6.746   4.277  13.295  0.00  0.00    +0.000 C 
BRANCH  38  40
ATOM     39  C   UNL     1       4.854   3.331  11.910  0.00  0.00    +0.000 C 
ATOM     40  C   UNL     1       6.348   3.346  12.151  0.00  0.00    +0.000 C 
ENDBRANCH  38  40
ENDBRANCH  37  38
ENDBRANCH  36  37
ENDBRANCH  35  36
ENDBRANCH   1  35
TORSDOF 10
ENDMDL
MODEL 8
REMARK VINA RESULT:      -6.3      6.121      8.983
REMARK  Name = 
REMARK  12 active torsions:
REMARK  status: ('A' for Active; 'I' for Inactive)
REMARK    1  A    between atoms: C_1  and  C_2
REMARK    2  A    between atoms: C_2  and  C_3
REMARK    3  A    between atoms: C_3  and  C_4
REMARK    4  A    between atoms: C_4  and  C_5
REMARK    5  A    between atoms: C_5  and  C_6
REMARK    6  A    between atoms: C_6  and  C_7
REMARK    7  A    between atoms: C_11  and  C_12
REMARK    8  A    between atoms: N_14  and  C_15
REMARK    9  A    between atoms: C_15  and  C_16
REMARK   10  A    between atoms: N_18  and  C_19
REMARK   11  A    between atoms: C_31  and  C_32
REMARK   12  A    between atoms: N_34  and  O_35
REMARK                            x       y       z     vdW  Elec       q    Type
REMARK                         _______ _______ _______ _____ _____    ______ ____
ROOT
ATOM      1  C   UNL     1       0.947  12.200  20.119  0.00  0.00    +0.000 C 
ATOM      2  C   UNL     1       2.257  13.000  19.083  0.00  0.00    +0.000 C 
ATOM      3  O   UNL     1       2.374  12.499  17.947  0.00  0.00    +0.000 OA
ATOM      4  N   UNL     1       3.073  14.211  19.290  0.00  0.00    +0.000 N 
ATOM      5  C   UNL     1       4.560  15.151  18.783  0.00  0.00    +0.000 C 
ATOM      6  C   UNL     1       4.154  16.655  18.986  0.00  0.00    +0.000 C 
ATOM      7  C   UNL     1       4.148  17.035  20.462  0.00  0.00    +0.000 A 
ATOM      8  C   UNL     1       4.739  16.185  21.410  0.00  0.00    +0.000 A 
ATOM      9  C   UNL     1       3.914  15.707  22.402  0.00  0.00    +0.000 A 
ATOM     10  C   UNL     1       2.691  16.336  22.556  0.00  0.00    +0.000 A 
ATOM     11  C   UNL     1       2.401  17.556  21.943  0.00  0.00    +0.000 A 
ATOM     12  C   UNL     1       3.136  17.912  20.846  0.00  0.00    +0.000 A 
ATOM     13  O   UNL     1       1.650  15.605  23.052  0.00  0.00    +0.000 OA
ATOM     14  C   UNL     1       0.804  15.345  21.924  0.00  0.00    +0.000 C 
ATOM     15  C   UNL     1      -0.238  14.383  22.368  0.00  0.00    +0.000 C 
ATOM     16  C   UNL     1      -0.975  13.905  21.134  0.00  0.00    +0.000 C 
ATOM     17  C   UNL     1      -0.533  12.507  20.773  0.00  0.00    +0.000 C 
ATOM     18  H   UNL     1       2.579  14.663  18.525  0.00  0.00    +0.000 HD
ENDROOT
BRANCH   5  19
ATOM     19  C   UNL     1       6.369  15.292  19.043  0.00  0.00    +0.000 C 
ATOM     20  O   UNL     1       6.959  14.469  19.745  0.00  0.00    +0.000 OA
ATOM     21  N   UNL     1       7.100  16.346  18.370  0.00  0.00    +0.000 N 
ATOM     22  H   UNL     1       6.686  17.050  17.761  0.00  0.00    +0.000 HD
BRANCH  21  23
ATOM     23  C   UNL     1       8.643  16.734  18.491  0.00  0.00    +0.000 C 
BRANCH  23  24
ATOM     24  C   UNL     1       9.717  15.812  17.723  0.00  0.00    +0.000 C 
ATOM     25  O   UNL     1      10.500  16.301  16.904  0.00  0.00    +0.000 OA
ATOM     26  N   UNL     1       9.744  14.442  18.030  0.00  0.00    +0.000 N 
ATOM     27  C   UNL     1      10.656  13.448  17.424  0.00  0.00    +0.000 C 
ATOM     28  H   UNL     1       9.049  14.051  18.653  0.00  0.00    +0.000 HD
ENDBRANCH  23  24
ENDBRANCH  21  23
ENDBRANCH   5  19
BRANCH  17  29
ATOM     29  C   UNL     1      -0.870  11.640  22.089  0.00  0.00    +0.000 C 
ATOM     30  O   UNL     1      -1.983  11.617  22.622  0.00  0.00    +0.000 OA
ATOM     31  N   UNL     1       0.144  10.803  22.544  0.00  0.00    +0.000 N 
ATOM     32  H   UNL     1       1.043  10.683  22.095  0.00  0.00    +0.000 HD
BRANCH  31  33
ATOM     33  O   UNL     1      -0.167   9.830  23.523  0.00  0.00    +0.000 OA
ATOM     34  H   UNL     1      -0.070  10.312  24.368  0.00  0.00    +0.000 HD
ENDBRANCH  31  33
ENDBRANCH  17  29
BRANCH   1  35
ATOM     35  C   UNL     1       0.562  10.680  19.574  0.00  0.00    +0.000 C 
BRANCH  35  36
ATOM     36  C   UNL     1      -0.198  10.146  18.255  0.00  0.00    +0.000 C 
BRANCH  36  37
ATOM     37  C   UNL     1      -1.682  10.091  17.746  0.00  0.00    +0.000 C 
BRANCH  37  38
ATOM     38  C   UNL     1      -2.341  11.132  16.841  0.00  0.00    +0.000 C 
BRANCH  38  40
ATOM     39  C   UNL     1      -3.045  10.114  14.637  0.00  0.00    +0.000 C 
ATOM     40  C   UNL     1      -3.507  10.723  15.942  0.00  0.00    +0.000 C 
ENDBRANCH  38  40
ENDBRANCH  37  38
ENDBRANCH  36  37
ENDBRANCH  35  36
ENDBRANCH   1  35
TORSDOF 10
ENDMDL
MODEL 9
REMARK VINA RESULT:      -6.3      3.259      7.178
REMARK  Name = 
REMARK  12 active torsions:
REMARK  status: ('A' for Active; 'I' for Inactive)
REMARK    1  A    between atoms: C_1  and  C_2
REMARK    2  A    between atoms: C_2  and  C_3
REMARK    3  A    between atoms: C_3  and  C_4
REMARK    4  A    between atoms: C_4  and  C_5
REMARK    5  A    between atoms: C_5  and  C_6
REMARK    6  A    between atoms: C_6  and  C_7
REMARK    7  A    between atoms: C_11  and  C_12
REMARK    8  A    between atoms: N_14  and  C_15
REMARK    9  A    between atoms: C_15  and  C_16
REMARK   10  A    between atoms: N_18  and  C_19
REMARK   11  A    between atoms: C_31  and  C_32
REMARK   12  A    between atoms: N_34  and  O_35
REMARK                            x       y       z     vdW  Elec       q    Type
REMARK                         _______ _______ _______ _____ _____    ______ ____
ROOT
ATOM      1  C   UNL     1      -4.489  12.135  19.406  0.00  0.00    +0.000 C 
ATOM      2  C   UNL     1      -2.990  11.719  18.399  0.00  0.00    +0.000 C 
ATOM      3  O   UNL     1      -3.241  11.483  17.201  0.00  0.00    +0.000 OA
ATOM      4  N   UNL     1      -1.550  11.768  18.712  0.00  0.00    +0.000 N 
ATOM      5  C   UNL     1       0.132  11.224  18.235  0.00  0.00    +0.000 C 
ATOM      6  C   UNL     1       1.061  12.415  18.667  0.00  0.00    +0.000 C 
ATOM      7  C   UNL     1       1.261  12.444  20.177  0.00  0.00    +0.000 A 
ATOM      8  C   UNL     1       0.886  11.339  20.959  0.00  0.00    +0.000 A 
ATOM      9  C   UNL     1      -0.060  11.571  21.932  0.00  0.00    +0.000 A 
ATOM     10  C   UNL     1      -0.316  12.891  22.253  0.00  0.00    +0.000 A 
ATOM     11  C   UNL     1       0.512  13.933  21.833  0.00  0.00    +0.000 A 
ATOM     12  C   UNL     1       1.313  13.714  20.746  0.00  0.00    +0.000 A 
ATOM     13  O   UNL     1      -1.561  13.210  22.716  0.00  0.00    +0.000 OA
ATOM     14  C   UNL     1      -2.207  13.878  21.625  0.00  0.00    +0.000 C 
ATOM     15  C   UNL     1      -3.631  14.067  22.006  0.00  0.00    +0.000 C 
ATOM     16  C   UNL     1      -4.376  14.533  20.773  0.00  0.00    +0.000 C 
ATOM     17  C   UNL     1      -5.189  13.398  20.196  0.00  0.00    +0.000 C 
ATOM     18  H   UNL     1      -1.442  12.534  18.050  0.00  0.00    +0.000 HD
ENDROOT
BRANCH   5  19
ATOM     19  C   UNL     1       1.327   9.843  18.386  0.00  0.00    +0.000 C 
ATOM     20  O   UNL     1       2.260   9.741  17.587  0.00  0.00    +0.000 OA
ATOM     21  N   UNL     1       1.195   8.909  19.485  0.00  0.00    +0.000 N 
ATOM     22  H   UNL     1       0.464   8.940  20.195  0.00  0.00    +0.000 HD
BRANCH  21  23
ATOM     23  C   UNL     1       2.040   7.592  19.793  0.00  0.00    +0.000 C 
BRANCH  23  24
ATOM     24  C   UNL     1       2.581   6.731  18.543  0.00  0.00    +0.000 C 
ATOM     25  O   UNL     1       1.881   5.854  18.028  0.00  0.00    +0.000 OA
ATOM     26  N   UNL     1       3.863   7.023  18.051  0.00  0.00    +0.000 N 
ATOM     27  C   UNL     1       4.521   6.337  16.919  0.00  0.00    +0.000 C 
ATOM     28  H   UNL     1       4.445   7.699  18.531  0.00  0.00    +0.000 HD
ENDBRANCH  23  24
ENDBRANCH  21  23
ENDBRANCH   5  19
BRANCH  17  29
ATOM     29  C   UNL     1      -6.167  12.967  21.402  0.00  0.00    +0.000 C 
ATOM     30  O   UNL     1      -6.002  11.951  22.082  0.00  0.00    +0.000 OA
ATOM     31  N   UNL     1      -7.168  13.877  21.729  0.00  0.00    +0.000 N 
ATOM     32  H   UNL     1      -7.297  14.780  21.292  0.00  0.00    +0.000 HD
BRANCH  31  33
ATOM     33  O   UNL     1      -7.888  13.689  22.933  0.00  0.00    +0.000 OA
ATOM     34  H   UNL     1      -7.891  14.576  23.343  0.00  0.00    +0.000 HD
ENDBRANCH  31  33
ENDBRANCH  17  29
BRANCH   1  35
ATOM     35  C   UNL     1      -5.888  11.606  18.688  0.00  0.00    +0.000 C 
BRANCH  35  36
ATOM     36  C   UNL     1      -6.818  12.211  17.516  0.00  0.00    +0.000 C 
BRANCH  36  37
ATOM     37  C   UNL     1      -7.729  13.476  17.331  0.00  0.00    +0.000 C 
BRANCH  37  38
ATOM     38  C   UNL     1      -7.650  14.749  18.174  0.00  0.00    +0.000 C 
BRANCH  38  40
ATOM     39  C   UNL     1      -7.206  16.296  16.226  0.00  0.00    +0.000 C 
ATOM     40  C   UNL     1      -6.861  15.950  17.658  0.00  0.00    +0.000 C 
ENDBRANCH  38  40
ENDBRANCH  37  38
ENDBRANCH  36  37
ENDBRANCH  35  36
ENDBRANCH   1  35
TORSDOF 10
ENDMDL
