MODEL 1
REMARK VINA RESULT:      -8.1      0.000      0.000
REMARK  Name = 
REMARK  7 active torsions:
REMARK  status: ('A' for Active; 'I' for Inactive)
REMARK    1  A    between atoms: C_1  and  O_2
REMARK    2  A    between atoms: O_2  and  C_3
REMARK    3  A    between atoms: C_6  and  C_7
REMARK    4  A    between atoms: C_7  and  N_8
REMARK    5  A    between atoms: N_11  and  C_12
REMARK    6  A    between atoms: C_15  and  C_16
REMARK    7  A    between atoms: N_18  and  O_19
REMARK                            x       y       z     vdW  Elec       q    Type
REMARK                         _______ _______ _______ _____ _____    ______ ____
ROOT
ATOM      1  N   UNL     1       0.982   9.911  19.393  0.00  0.00    +0.000 N 
ATOM      2  C   UNL     1       0.793   9.786  20.814  0.00  0.00    +0.000 C 
ATOM      3  C   UNL     1       1.000   8.299  21.056  0.00  0.00    +0.000 C 
ATOM      4  N   UNL     1       1.786   7.868  19.918  0.00  0.00    +0.000 N 
ATOM      5  C   UNL     1       1.678   8.820  18.876  0.00  0.00    +0.000 C 
ATOM      6  O   UNL     1       2.054   8.719  17.719  0.00  0.00    +0.000 OA
ENDROOT
BRANCH   4   7
ATOM      7  C   UNL     1       2.363   6.581  19.806  0.00  0.00    +0.000 A 
ATOM      8  C   UNL     1       3.472   6.364  18.979  0.00  0.00    +0.000 A 
ATOM      9  C   UNL     1       4.061   5.101  18.870  0.00  0.00    +0.000 A 
ATOM     10  C   UNL     1       3.534   4.020  19.579  0.00  0.00    +0.000 A 
ATOM     11  C   UNL     1       2.434   4.223  20.419  0.00  0.00    +0.000 A 
ATOM     12  C   UNL     1       1.860   5.495  20.538  0.00  0.00    +0.000 A 
BRANCH  10  13
ATOM     13  C   UNL     1       4.139   2.666  19.496  0.00  0.00    +0.000 C 
ATOM     14  O   UNL     1       4.822   2.213  20.412  0.00  0.00    +0.000 OA
ATOM     15  N   UNL     1       3.863   1.938  18.359  0.00  0.00    +0.000 N 
ATOM     16  H   UNL     1       3.065   2.126  17.763  0.00  0.00    +0.000 HD
BRANCH  15  17
ATOM     17  O   UNL     1       4.342   0.607  18.363  0.00  0.00    +0.000 OA
ATOM     18  H   UNL     1       4.561   0.469  19.310  0.00  0.00    +0.000 HD
ENDBRANCH  15  17
ENDBRANCH  10  13
ENDBRANCH   4   7
BRANCH   1  19
ATOM     19  C   UNL     1       0.484  11.019  18.606  0.00  0.00    +0.000 C 
BRANCH  19  23
ATOM     20  C   UNL     1      -3.767  10.754  17.807  0.00  0.00    +0.000 A 
ATOM     21  C   UNL     1      -3.272  11.719  18.685  0.00  0.00    +0.000 A 
ATOM     22  C   UNL     1      -1.902  11.806  18.955  0.00  0.00    +0.000 A 
ATOM     23  C   UNL     1      -1.005  10.915  18.356  0.00  0.00    +0.000 A 
ATOM     24  C   UNL     1      -1.515   9.932  17.494  0.00  0.00    +0.000 A 
ATOM     25  C   UNL     1      -2.886   9.847  17.224  0.00  0.00    +0.000 A 
BRANCH  20  27
ATOM     26  C   UNL     1      -5.902  11.039  18.784  0.00  0.00    +0.000 C 
ATOM     27  O   UNL     1      -5.124  10.767  17.623  0.00  0.00    +0.000 OA
ENDBRANCH  20  27
ENDBRANCH  19  23
ENDBRANCH   1  19
TORSDOF 6
ENDMDL
MODEL 2
REMARK VINA RESULT:      -7.6      0.716      1.290
REMARK  Name = 
REMARK  7 active torsions:
REMARK  status: ('A' for Active; 'I' for Inactive)
REMARK    1  A    between atoms: C_1  and  O_2
REMARK    2  A    between atoms: O_2  and  C_3
REMARK    3  A    between atoms: C_6  and  C_7
REMARK    4  A    between atoms: C_7  and  N_8
REMARK    5  A    between atoms: N_11  and  C_12
REMARK    6  A    between atoms: C_15  and  C_16
REMARK    7  A    between atoms: N_18  and  O_19
REMARK                            x       y       z     vdW  Elec       q    Type
REMARK                         _______ _______ _______ _____ _____    ______ ____
ROOT
ATOM      1  N   UNL     1       0.833  10.268  19.465  0.00  0.00    +0.000 N 
ATOM      2  C   UNL     1       0.748  10.100  20.892  0.00  0.00    +0.000 C 
ATOM      3  C   UNL     1       0.955   8.604  21.073  0.00  0.00    +0.000 C 
ATOM      4  N   UNL     1       1.650   8.201  19.868  0.00  0.00    +0.000 N 
ATOM      5  C   UNL     1       1.476   9.187  18.866  0.00  0.00    +0.000 C 
ATOM      6  O   UNL     1       1.764   9.118  17.681  0.00  0.00    +0.000 OA
ENDROOT
BRANCH   4   7
ATOM      7  C   UNL     1       2.202   6.914  19.674  0.00  0.00    +0.000 A 
ATOM      8  C   UNL     1       3.098   6.670  18.626  0.00  0.00    +0.000 A 
ATOM      9  C   UNL     1       3.663   5.405  18.432  0.00  0.00    +0.000 A 
ATOM     10  C   UNL     1       3.323   4.350  19.281  0.00  0.00    +0.000 A 
ATOM     11  C   UNL     1       2.439   4.581  20.340  0.00  0.00    +0.000 A 
ATOM     12  C   UNL     1       1.891   5.855  20.540  0.00  0.00    +0.000 A 
BRANCH  10  13
ATOM     13  C   UNL     1       3.910   2.996  19.113  0.00  0.00    +0.000 C 
ATOM     14  O   UNL     1       3.797   2.377  18.058  0.00  0.00    +0.000 OA
ATOM     15  N   UNL     1       4.613   2.493  20.186  0.00  0.00    +0.000 N 
ATOM     16  H   UNL     1       5.003   3.081  20.915  0.00  0.00    +0.000 HD
BRANCH  15  17
ATOM     17  O   UNL     1       5.270   1.262  19.955  0.00  0.00    +0.000 OA
ATOM     18  H   UNL     1       5.932   1.242  20.681  0.00  0.00    +0.000 HD
ENDBRANCH  15  17
ENDBRANCH  10  13
ENDBRANCH   4   7
BRANCH   1  19
ATOM     19  C   UNL     1       0.291  11.403  18.751  0.00  0.00    +0.000 C 
BRANCH  19  23
ATOM     20  C   UNL     1      -3.948  10.903  17.997  0.00  0.00    +0.000 A 
ATOM     21  C   UNL     1      -3.016  10.079  17.365  0.00  0.00    +0.000 A 
ATOM     22  C   UNL     1      -1.645  10.239  17.597  0.00  0.00    +0.000 A 
ATOM     23  C   UNL     1      -1.185  11.240  18.459  0.00  0.00    +0.000 A 
ATOM     24  C   UNL     1      -2.129  12.080  19.070  0.00  0.00    +0.000 A 
ATOM     25  C   UNL     1      -3.500  11.918  18.839  0.00  0.00    +0.000 A 
BRANCH  20  27
ATOM     26  C   UNL     1      -6.216  11.160  18.614  0.00  0.00    +0.000 C 
ATOM     27  O   UNL     1      -5.258  10.651  17.691  0.00  0.00    +0.000 OA
ENDBRANCH  20  27
ENDBRANCH  19  23
ENDBRANCH   1  19
TORSDOF 6
ENDMDL
MODEL 3
REMARK VINA RESULT:      -7.6      0.522      1.128
REMARK  Name = 
REMARK  7 active torsions:
REMARK  status: ('A' for Active; 'I' for Inactive)
REMARK    1  A    between atoms: C_1  and  O_2
REMARK    2  A    between atoms: O_2  and  C_3
REMARK    3  A    between atoms: C_6  and  C_7
REMARK    4  A    between atoms: C_7  and  N_8
REMARK    5  A    between atoms: N_11  and  C_12
REMARK    6  A    between atoms: C_15  and  C_16
REMARK    7  A    between atoms: N_18  and  O_19
REMARK                            x       y       z     vdW  Elec       q    Type
REMARK                         _______ _______ _______ _____ _____    ______ ____
ROOT
ATOM      1  N   UNL     1       1.115   9.883  19.351  0.00  0.00    +0.000 N 
ATOM      2  C   UNL     1       0.891   9.770  20.769  0.00  0.00    +0.000 C 
ATOM      3  C   UNL     1       1.066   8.281  21.024  0.00  0.00    +0.000 C 
ATOM      4  N   UNL     1       1.870   7.829  19.908  0.00  0.00    +0.000 N 
ATOM      5  C   UNL     1       1.803   8.776  18.858  0.00  0.00    +0.000 C 
ATOM      6  O   UNL     1       2.203   8.662  17.710  0.00  0.00    +0.000 OA
ENDROOT
BRANCH   4   7
ATOM      7  C   UNL     1       2.428   6.532  19.816  0.00  0.00    +0.000 A 
ATOM      8  C   UNL     1       1.851   5.456  20.501  0.00  0.00    +0.000 A 
ATOM      9  C   UNL     1       2.383   4.165  20.408  0.00  0.00    +0.000 A 
ATOM     10  C   UNL     1       3.522   3.933  19.634  0.00  0.00    +0.000 A 
ATOM     11  C   UNL     1       4.102   4.996  18.933  0.00  0.00    +0.000 A 
ATOM     12  C   UNL     1       3.553   6.282  19.017  0.00  0.00    +0.000 A 
BRANCH  10  13
ATOM     13  C   UNL     1       4.109   2.575  19.502  0.00  0.00    +0.000 C 
ATOM     14  O   UNL     1       4.837   2.106  20.373  0.00  0.00    +0.000 OA
ATOM     15  N   UNL     1       3.765   1.864  18.373  0.00  0.00    +0.000 N 
ATOM     16  H   UNL     1       2.937   2.067  17.824  0.00  0.00    +0.000 HD
BRANCH  15  17
ATOM     17  O   UNL     1       4.231   0.529  18.335  0.00  0.00    +0.000 OA
ATOM     18  H   UNL     1       4.789   0.528  17.526  0.00  0.00    +0.000 HD
ENDBRANCH  15  17
ENDBRANCH  10  13
ENDBRANCH   4   7
BRANCH   1  19
ATOM     19  C   UNL     1       0.654  10.993  18.547  0.00  0.00    +0.000 C 
BRANCH  19  23
ATOM     20  C   UNL     1      -3.641  11.551  18.713  0.00  0.00    +0.000 A 
ATOM     21  C   UNL     1      -2.797  12.326  19.509  0.00  0.00    +0.000 A 
ATOM     22  C   UNL     1      -1.409  12.147  19.467  0.00  0.00    +0.000 A 
ATOM     23  C   UNL     1      -0.846  11.175  18.633  0.00  0.00    +0.000 A 
ATOM     24  C   UNL     1      -1.705  10.384  17.854  0.00  0.00    +0.000 A 
ATOM     25  C   UNL     1      -3.092  10.566  17.896  0.00  0.00    +0.000 A 
BRANCH  20  27
ATOM     26  C   UNL     1      -5.824  11.207  17.871  0.00  0.00    +0.000 C 
ATOM     27  O   UNL     1      -4.978  11.818  18.840  0.00  0.00    +0.000 OA
ENDBRANCH  20  27
ENDBRANCH  19  23
ENDBRANCH   1  19
TORSDOF 6
ENDMDL
MODEL 4
REMARK VINA RESULT:      -7.5      3.325      9.016
REMARK  Name = 
REMARK  7 active torsions:
REMARK  status: ('A' for Active; 'I' for Inactive)
REMARK    1  A    between atoms: C_1  and  O_2
REMARK    2  A    between atoms: O_2  and  C_3
REMARK    3  A    between atoms: C_6  and  C_7
REMARK    4  A    between atoms: C_7  and  N_8
REMARK    5  A    between atoms: N_11  and  C_12
REMARK    6  A    between atoms: C_15  and  C_16
REMARK    7  A    between atoms: N_18  and  O_19
REMARK                            x       y       z     vdW  Elec       q    Type
REMARK                         _______ _______ _______ _____ _____    ______ ____
ROOT
ATOM      1  N   UNL     1       4.197   4.879  19.031  0.00  0.00    +0.000 N 
ATOM      2  C   UNL     1       3.089   4.240  19.692  0.00  0.00    +0.000 C 
ATOM      3  C   UNL     1       2.251   5.417  20.166  0.00  0.00    +0.000 C 
ATOM      4  N   UNL     1       2.650   6.503  19.295  0.00  0.00    +0.000 N 
ATOM      5  C   UNL     1       3.893   6.195  18.690  0.00  0.00    +0.000 C 
ATOM      6  O   UNL     1       4.618   6.930  18.038  0.00  0.00    +0.000 OA
ENDROOT
BRANCH   4   7
ATOM      7  C   UNL     1       2.002   7.759  19.259  0.00  0.00    +0.000 A 
ATOM      8  C   UNL     1       1.862   8.458  18.054  0.00  0.00    +0.000 A 
ATOM      9  C   UNL     1       1.210   9.695  18.002  0.00  0.00    +0.000 A 
ATOM     10  C   UNL     1       0.699  10.265  19.170  0.00  0.00    +0.000 A 
ATOM     11  C   UNL     1       0.820   9.573  20.379  0.00  0.00    +0.000 A 
ATOM     12  C   UNL     1       1.458   8.327  20.421  0.00  0.00    +0.000 A 
BRANCH  10  13
ATOM     13  C   UNL     1      -0.008  11.571  19.153  0.00  0.00    +0.000 C 
ATOM     14  O   UNL     1      -0.137  12.242  20.174  0.00  0.00    +0.000 OA
ATOM     15  N   UNL     1      -0.475  12.001  17.930  0.00  0.00    +0.000 N 
ATOM     16  H   UNL     1      -0.108  11.660  17.048  0.00  0.00    +0.000 HD
BRANCH  15  17
ATOM     17  O   UNL     1      -1.028  13.303  17.917  0.00  0.00    +0.000 OA
ATOM     18  H   UNL     1      -1.308  13.399  16.981  0.00  0.00    +0.000 HD
ENDBRANCH  15  17
ENDBRANCH  10  13
ENDBRANCH   4   7
BRANCH   1  19
ATOM     19  C   UNL     1       5.470   4.237  18.785  0.00  0.00    +0.000 C 
BRANCH  19  23
ATOM     20  C   UNL     1       6.568   4.448  14.598  0.00  0.00    +0.000 A 
ATOM     21  C   UNL     1       5.319   3.953  14.977  0.00  0.00    +0.000 A 
ATOM     22  C   UNL     1       4.960   3.874  16.327  0.00  0.00    +0.000 A 
ATOM     23  C   UNL     1       5.856   4.279  17.322  0.00  0.00    +0.000 A 
ATOM     24  C   UNL     1       7.119   4.752  16.932  0.00  0.00    +0.000 A 
ATOM     25  C   UNL     1       7.476   4.832  15.582  0.00  0.00    +0.000 A 
BRANCH  20  27
ATOM     26  C   UNL     1       6.165   3.457  12.489  0.00  0.00    +0.000 C 
ATOM     27  O   UNL     1       6.805   4.477  13.249  0.00  0.00    +0.000 OA
ENDBRANCH  20  27
ENDBRANCH  19  23
ENDBRANCH   1  19
TORSDOF 6
ENDMDL
MODEL 5
REMARK VINA RESULT:      -7.3      3.422      9.068
REMARK  Name = 
REMARK  7 active torsions:
REMARK  status: ('A' for Active; 'I' for Inactive)
REMARK    1  A    between atoms: C_1  and  O_2
REMARK    2  A    between atoms: O_2  and  C_3
REMARK    3  A    between atoms: C_6  and  C_7
REMARK    4  A    between atoms: C_7  and  N_8
REMARK    5  A    between atoms: N_11  and  C_12
REMARK    6  A    between atoms: C_15  and  C_16
REMARK    7  A    between atoms: N_18  and  O_19
REMARK                            x       y       z     vdW  Elec       q    Type
REMARK                         _______ _______ _______ _____ _____    ______ ____
ROOT
ATOM      1  N   UNL     1       4.548   5.002  18.844  0.00  0.00    +0.000 N 
ATOM      2  C   UNL     1       3.573   4.307  19.643  0.00  0.00    +0.000 C 
ATOM      3  C   UNL     1       2.682   5.431  20.149  0.00  0.00    +0.000 C 
ATOM      4  N   UNL     1       2.894   6.498  19.193  0.00  0.00    +0.000 N 
ATOM      5  C   UNL     1       4.093   6.267  18.477  0.00  0.00    +0.000 C 
ATOM      6  O   UNL     1       4.681   7.025  17.723  0.00  0.00    +0.000 OA
ENDROOT
BRANCH   4   7
ATOM      7  C   UNL     1       2.134   7.691  19.168  0.00  0.00    +0.000 A 
ATOM      8  C   UNL     1       1.517   8.171  20.330  0.00  0.00    +0.000 A 
ATOM      9  C   UNL     1       0.775   9.356  20.323  0.00  0.00    +0.000 A 
ATOM     10  C   UNL     1       0.623  10.079  19.138  0.00  0.00    +0.000 A 
ATOM     11  C   UNL     1       1.244   9.619  17.972  0.00  0.00    +0.000 A 
ATOM     12  C   UNL     1       2.001   8.441  17.990  0.00  0.00    +0.000 A 
BRANCH  10  13
ATOM     13  C   UNL     1      -0.148  11.347  19.094  0.00  0.00    +0.000 C 
ATOM     14  O   UNL     1      -0.047  12.189  19.983  0.00  0.00    +0.000 OA
ATOM     15  N   UNL     1      -0.951  11.541  17.990  0.00  0.00    +0.000 N 
ATOM     16  H   UNL     1      -0.809  11.053  17.113  0.00  0.00    +0.000 HD
BRANCH  15  17
ATOM     17  O   UNL     1      -1.572  12.809  17.910  0.00  0.00    +0.000 OA
ATOM     18  H   UNL     1      -0.813  13.419  18.042  0.00  0.00    +0.000 HD
ENDBRANCH  15  17
ENDBRANCH  10  13
ENDBRANCH   4   7
BRANCH   1  19
ATOM     19  C   UNL     1       5.843   4.458  18.497  0.00  0.00    +0.000 C 
BRANCH  19  23
ATOM     20  C   UNL     1       6.452   4.178  14.215  0.00  0.00    +0.000 A 
ATOM     21  C   UNL     1       7.382   4.838  15.019  0.00  0.00    +0.000 A 
ATOM     22  C   UNL     1       7.189   4.940  16.401  0.00  0.00    +0.000 A 
ATOM     23  C   UNL     1       6.049   4.391  16.999  0.00  0.00    +0.000 A 
ATOM     24  C   UNL     1       5.107   3.751  16.178  0.00  0.00    +0.000 A 
ATOM     25  C   UNL     1       5.303   3.648  14.796  0.00  0.00    +0.000 A 
BRANCH  20  27
ATOM     26  C   UNL     1       5.969   3.246  12.096  0.00  0.00    +0.000 C 
ATOM     27  O   UNL     1       6.750   4.144  12.879  0.00  0.00    +0.000 OA
ENDBRANCH  20  27
ENDBRANCH  19  23
ENDBRANCH   1  19
TORSDOF 6
ENDMDL
MODEL 6
REMARK VINA RESULT:      -7.3      2.402      4.122
REMARK  Name = 
REMARK  7 active torsions:
REMARK  status: ('A' for Active; 'I' for Inactive)
REMARK    1  A    between atoms: C_1  and  O_2
REMARK    2  A    between atoms: O_2  and  C_3
REMARK    3  A    between atoms: C_6  and  C_7
REMARK    4  A    between atoms: C_7  and  N_8
REMARK    5  A    between atoms: N_11  and  C_12
REMARK    6  A    between atoms: C_15  and  C_16
REMARK    7  A    between atoms: N_18  and  O_19
REMARK                            x       y       z     vdW  Elec       q    Type
REMARK                         _______ _______ _______ _____ _____    ______ ____
ROOT
ATOM      1  N   UNL     1       0.867   9.823  19.466  0.00  0.00    +0.000 N 
ATOM      2  C   UNL     1       0.916   9.810  20.904  0.00  0.00    +0.000 C 
ATOM      3  C   UNL     1       1.206   8.351  21.222  0.00  0.00    +0.000 C 
ATOM      4  N   UNL     1       1.810   7.844  20.008  0.00  0.00    +0.000 N 
ATOM      5  C   UNL     1       1.504   8.707  18.927  0.00  0.00    +0.000 C 
ATOM      6  O   UNL     1       1.690   8.519  17.735  0.00  0.00    +0.000 OA
ENDROOT
BRANCH   4   7
ATOM      7  C   UNL     1       2.401   6.564  19.901  0.00  0.00    +0.000 A 
ATOM      8  C   UNL     1       1.798   5.445  20.489  0.00  0.00    +0.000 A 
ATOM      9  C   UNL     1       2.364   4.171  20.379  0.00  0.00    +0.000 A 
ATOM     10  C   UNL     1       3.565   3.997  19.687  0.00  0.00    +0.000 A 
ATOM     11  C   UNL     1       4.173   5.102  19.083  0.00  0.00    +0.000 A 
ATOM     12  C   UNL     1       3.590   6.373  19.181  0.00  0.00    +0.000 A 
BRANCH  10  13
ATOM     13  C   UNL     1       4.190   2.658  19.540  0.00  0.00    +0.000 C 
ATOM     14  O   UNL     1       4.962   2.217  20.387  0.00  0.00    +0.000 OA
ATOM     15  N   UNL     1       3.831   1.931  18.426  0.00  0.00    +0.000 N 
ATOM     16  H   UNL     1       2.979   2.105  17.905  0.00  0.00    +0.000 HD
BRANCH  15  17
ATOM     17  O   UNL     1       4.339   0.612  18.376  0.00  0.00    +0.000 OA
ATOM     18  H   UNL     1       3.549   0.078  18.614  0.00  0.00    +0.000 HD
ENDBRANCH  15  17
ENDBRANCH  10  13
ENDBRANCH   4   7
BRANCH   1  19
ATOM     19  C   UNL     1       0.213  10.853  18.689  0.00  0.00    +0.000 C 
BRANCH  19  23
ATOM     20  C   UNL     1       2.353  14.622  18.699  0.00  0.00    +0.000 A 
ATOM     21  C   UNL     1       2.982  13.454  18.267  0.00  0.00    +0.000 A 
ATOM     22  C   UNL     1       2.300  12.231  18.268  0.00  0.00    +0.000 A 
ATOM     23  C   UNL     1       0.977  12.159  18.717  0.00  0.00    +0.000 A 
ATOM     24  C   UNL     1       0.361  13.335  19.173  0.00  0.00    +0.000 A 
ATOM     25  C   UNL     1       1.043  14.557  19.169  0.00  0.00    +0.000 A 
BRANCH  20  27
ATOM     26  C   UNL     1       4.470  15.570  18.238  0.00  0.00    +0.000 C 
ATOM     27  O   UNL     1       3.120  15.755  18.652  0.00  0.00    +0.000 OA
ENDBRANCH  20  27
ENDBRANCH  19  23
ENDBRANCH   1  19
TORSDOF 6
ENDMDL
MODEL 7
REMARK VINA RESULT:      -7.3      2.426      3.980
REMARK  Name = 
REMARK  7 active torsions:
REMARK  status: ('A' for Active; 'I' for Inactive)
REMARK    1  A    between atoms: C_1  and  O_2
REMARK    2  A    between atoms: O_2  and  C_3
REMARK    3  A    between atoms: C_6  and  C_7
REMARK    4  A    between atoms: C_7  and  N_8
REMARK    5  A    between atoms: N_11  and  C_12
REMARK    6  A    between atoms: C_15  and  C_16
REMARK    7  A    between atoms: N_18  and  O_19
REMARK                            x       y       z     vdW  Elec       q    Type
REMARK                         _______ _______ _______ _____ _____    ______ ____
ROOT
ATOM      1  N   UNL     1       0.893   9.804  19.399  0.00  0.00    +0.000 N 
ATOM      2  C   UNL     1       0.894   9.791  20.838  0.00  0.00    +0.000 C 
ATOM      3  C   UNL     1       1.166   8.330  21.165  0.00  0.00    +0.000 C 
ATOM      4  N   UNL     1       1.805   7.820  19.970  0.00  0.00    +0.000 N 
ATOM      5  C   UNL     1       1.540   8.684  18.881  0.00  0.00    +0.000 C 
ATOM      6  O   UNL     1       1.763   8.496  17.695  0.00  0.00    +0.000 OA
ENDROOT
BRANCH   4   7
ATOM      7  C   UNL     1       2.392   6.536  19.882  0.00  0.00    +0.000 A 
ATOM      8  C   UNL     1       1.905   5.472  20.652  0.00  0.00    +0.000 A 
ATOM      9  C   UNL     1       2.467   4.194  20.563  0.00  0.00    +0.000 A 
ATOM     10  C   UNL     1       3.547   3.962  19.709  0.00  0.00    +0.000 A 
ATOM     11  C   UNL     1       4.036   5.012  18.925  0.00  0.00    +0.000 A 
ATOM     12  C   UNL     1       3.457   6.285  19.004  0.00  0.00    +0.000 A 
BRANCH  10  13
ATOM     13  C   UNL     1       4.162   2.617  19.581  0.00  0.00    +0.000 C 
ATOM     14  O   UNL     1       4.868   2.149  20.470  0.00  0.00    +0.000 OA
ATOM     15  N   UNL     1       3.869   1.914  18.432  0.00  0.00    +0.000 N 
ATOM     16  H   UNL     1       3.057   2.109  17.857  0.00  0.00    +0.000 HD
BRANCH  15  17
ATOM     17  O   UNL     1       4.360   0.588  18.393  0.00  0.00    +0.000 OA
ATOM     18  H   UNL     1       5.264   0.713  18.028  0.00  0.00    +0.000 HD
ENDBRANCH  15  17
ENDBRANCH  10  13
ENDBRANCH   4   7
BRANCH   1  19
ATOM     19  C   UNL     1       0.271  10.839  18.602  0.00  0.00    +0.000 C 
BRANCH  19  23
ATOM     20  C   UNL     1       2.392  14.596  19.011  0.00  0.00    +0.000 A 
ATOM     21  C   UNL     1       1.086  14.467  19.486  0.00  0.00    +0.000 A 
ATOM     22  C   UNL     1       0.391  13.259  19.351  0.00  0.00    +0.000 A 
ATOM     23  C   UNL     1       0.993  12.163  18.723  0.00  0.00    +0.000 A 
ATOM     24  C   UNL     1       2.298  12.311  18.227  0.00  0.00    +0.000 A 
ATOM     25  C   UNL     1       2.992  13.518  18.365  0.00  0.00    +0.000 A 
BRANCH  20  27
ATOM     26  C   UNL     1       3.204  16.584  18.020  0.00  0.00    +0.000 C 
ATOM     27  O   UNL     1       2.968  15.824  19.201  0.00  0.00    +0.000 OA
ENDBRANCH  20  27
ENDBRANCH  19  23
ENDBRANCH   1  19
TORSDOF 6
ENDMDL
MODEL 8
REMARK VINA RESULT:      -7.2      1.213      2.045
REMARK  Name = 
REMARK  7 active torsions:
REMARK  status: ('A' for Active; 'I' for Inactive)
REMARK    1  A    between atoms: C_1  and  O_2
REMARK    2  A    between atoms: O_2  and  C_3
REMARK    3  A    between atoms: C_6  and  C_7
REMARK    4  A    between atoms: C_7  and  N_8
REMARK    5  A    between atoms: N_11  and  C_12
REMARK    6  A    between atoms: C_15  and  C_16
REMARK    7  A    between atoms: N_18  and  O_19
REMARK                            x       y       z     vdW  Elec       q    Type
REMARK                         _______ _______ _______ _____ _____    ______ ____
ROOT
ATOM      1  N   UNL     1       1.172   9.726  19.384  0.00  0.00    +0.000 N 
ATOM      2  C   UNL     1       1.599   9.805  18.011  0.00  0.00    +0.000 C 
ATOM      3  C   UNL     1       2.579   8.648  17.892  0.00  0.00    +0.000 C 
ATOM      4  N   UNL     1       2.200   7.759  18.970  0.00  0.00    +0.000 N 
ATOM      5  C   UNL     1       1.425   8.466  19.921  0.00  0.00    +0.000 C 
ATOM      6  O   UNL     1       1.077   8.102  21.033  0.00  0.00    +0.000 OA
ENDROOT
BRANCH   4   7
ATOM      7  C   UNL     1       2.734   6.460  19.141  0.00  0.00    +0.000 A 
ATOM      8  C   UNL     1       2.104   5.531  19.977  0.00  0.00    +0.000 A 
ATOM      9  C   UNL     1       2.613   4.239  20.143  0.00  0.00    +0.000 A 
ATOM     10  C   UNL     1       3.783   3.859  19.482  0.00  0.00    +0.000 A 
ATOM     11  C   UNL     1       4.417   4.772  18.633  0.00  0.00    +0.000 A 
ATOM     12  C   UNL     1       3.891   6.058  18.457  0.00  0.00    +0.000 A 
BRANCH  10  13
ATOM     13  C   UNL     1       4.348   2.493  19.625  0.00  0.00    +0.000 C 
ATOM     14  O   UNL     1       4.932   2.147  20.649  0.00  0.00    +0.000 OA
ATOM     15  N   UNL     1       4.150   1.632  18.568  0.00  0.00    +0.000 N 
ATOM     16  H   UNL     1       3.414   1.760  17.882  0.00  0.00    +0.000 HD
BRANCH  15  17
ATOM     17  O   UNL     1       4.582   0.302  18.782  0.00  0.00    +0.000 OA
ATOM     18  H   UNL     1       4.906   0.337  19.709  0.00  0.00    +0.000 HD
ENDBRANCH  15  17
ENDBRANCH  10  13
ENDBRANCH   4   7
BRANCH   1  19
ATOM     19  C   UNL     1       0.584  10.830  20.111  0.00  0.00    +0.000 C 
BRANCH  19  23
ATOM     20  C   UNL     1      -3.449  11.717  18.794  0.00  0.00    +0.000 A 
ATOM     21  C   UNL     1      -2.714  10.700  18.183  0.00  0.00    +0.000 A 
ATOM     22  C   UNL     1      -1.409  10.412  18.597  0.00  0.00    +0.000 A 
ATOM     23  C   UNL     1      -0.813  11.152  19.625  0.00  0.00    +0.000 A 
ATOM     24  C   UNL     1      -1.551  12.189  20.216  0.00  0.00    +0.000 A 
ATOM     25  C   UNL     1      -2.857  12.474  19.802  0.00  0.00    +0.000 A 
BRANCH  20  27
ATOM     26  C   UNL     1      -4.859  11.750  16.896  0.00  0.00    +0.000 C 
ATOM     27  O   UNL     1      -4.714  11.905  18.304  0.00  0.00    +0.000 OA
ENDBRANCH  20  27
ENDBRANCH  19  23
ENDBRANCH   1  19
TORSDOF 6
ENDMDL
MODEL 9
REMARK VINA RESULT:      -7.1      1.307      1.913
REMARK  Name = 
REMARK  7 active torsions:
REMARK  status: ('A' for Active; 'I' for Inactive)
REMARK    1  A    between atoms: C_1  and  O_2
REMARK    2  A    between atoms: O_2  and  C_3
REMARK    3  A    between atoms: C_6  and  C_7
REMARK    4  A    between atoms: C_7  and  N_8
REMARK    5  A    between atoms: N_11  and  C_12
REMARK    6  A    between atoms: C_15  and  C_16
REMARK    7  A    between atoms: N_18  and  O_19
REMARK                            x       y       z     vdW  Elec       q    Type
REMARK                         _______ _______ _______ _____ _____    ______ ____
ROOT
ATOM      1  N   UNL     1       1.279   9.621  19.173  0.00  0.00    +0.000 N 
ATOM      2  C   UNL     1       1.791   9.718  17.831  0.00  0.00    +0.000 C 
ATOM      3  C   UNL     1       2.711   8.512  17.728  0.00  0.00    +0.000 C 
ATOM      4  N   UNL     1       2.220   7.612  18.751  0.00  0.00    +0.000 N 
ATOM      5  C   UNL     1       1.430   8.332  19.680  0.00  0.00    +0.000 C 
ATOM      6  O   UNL     1       0.996   7.952  20.757  0.00  0.00    +0.000 OA
ENDROOT
BRANCH   4   7
ATOM      7  C   UNL     1       2.670   6.280  18.907  0.00  0.00    +0.000 A 
ATOM      8  C   UNL     1       2.421   5.574  20.090  0.00  0.00    +0.000 A 
ATOM      9  C   UNL     1       2.848   4.252  20.251  0.00  0.00    +0.000 A 
ATOM     10  C   UNL     1       3.554   3.615  19.228  0.00  0.00    +0.000 A 
ATOM     11  C   UNL     1       3.799   4.303  18.035  0.00  0.00    +0.000 A 
ATOM     12  C   UNL     1       3.352   5.621  17.873  0.00  0.00    +0.000 A 
BRANCH  10  13
ATOM     13  C   UNL     1       4.014   2.209  19.358  0.00  0.00    +0.000 C 
ATOM     14  O   UNL     1       3.546   1.315  18.658  0.00  0.00    +0.000 OA
ATOM     15  N   UNL     1       5.013   1.972  20.277  0.00  0.00    +0.000 N 
ATOM     16  H   UNL     1       5.636   2.698  20.614  0.00  0.00    +0.000 HD
BRANCH  15  17
ATOM     17  O   UNL     1       5.523   0.653  20.290  0.00  0.00    +0.000 OA
ATOM     18  H   UNL     1       4.737   0.125  20.026  0.00  0.00    +0.000 HD
ENDBRANCH  15  17
ENDBRANCH  10  13
ENDBRANCH   4   7
BRANCH   1  19
ATOM     19  C   UNL     1       0.711  10.732  19.903  0.00  0.00    +0.000 C 
BRANCH  19  23
ATOM     20  C   UNL     1      -3.328  11.618  18.606  0.00  0.00    +0.000 A 
ATOM     21  C   UNL     1      -2.774  12.289  19.696  0.00  0.00    +0.000 A 
ATOM     22  C   UNL     1      -1.473  12.004  20.126  0.00  0.00    +0.000 A 
ATOM     23  C   UNL     1      -0.711  11.027  19.476  0.00  0.00    +0.000 A 
ATOM     24  C   UNL     1      -1.287  10.340  18.396  0.00  0.00    +0.000 A 
ATOM     25  C   UNL     1      -2.587  10.628  17.966  0.00  0.00    +0.000 A 
BRANCH  20  27
ATOM     26  C   UNL     1      -5.581  10.946  18.347  0.00  0.00    +0.000 C 
ATOM     27  O   UNL     1      -4.607  11.983  18.279  0.00  0.00    +0.000 OA
ENDBRANCH  20  27
ENDBRANCH  19  23
ENDBRANCH   1  19
TORSDOF 6
ENDMDL
