MODEL 1
REMARK VINA RESULT:      -8.4      0.000      0.000
REMARK  Name = 
REMARK  1 active torsions:
REMARK  status: ('A' for Active; 'I' for Inactive)
REMARK    1  A    between atoms: N_11  and  C_12
REMARK                            x       y       z     vdW  Elec       q    Type
REMARK                         _______ _______ _______ _____ _____    ______ ____
ROOT
ATOM      1  S   UNL     1       7.561   5.653  19.003  0.00  0.00    +0.000 S 
ATOM      2  C   UNL     1       6.942   5.252  17.506  0.00  0.00    +0.000 A 
ATOM      3  O   UNL     1       7.767   5.558  16.454  0.00  0.00    +0.000 OA
ATOM      4  C   UNL     1       7.075   5.034  15.389  0.00  0.00    +0.000 A 
ATOM      5  C   UNL     1       7.614   5.083  14.107  0.00  0.00    +0.000 A 
ATOM      6  C   UNL     1       6.856   4.531  13.099  0.00  0.00    +0.000 A 
ATOM      7  C   UNL     1       5.607   3.955  13.409  0.00  0.00    +0.000 A 
ATOM      8 CL   UNL     1       4.675   3.310  12.097  0.00  0.00    +0.000 Cl
ATOM      9  C   UNL     1       5.089   3.894  14.733  0.00  0.00    +0.000 A 
ATOM     10  C   UNL     1       5.845   4.454  15.729  0.00  0.00    +0.000 A 
ATOM     11  N   UNL     1       5.732   4.623  17.124  0.00  0.00    +0.000 N 
ENDROOT
BRANCH  11  12
ATOM     12  C   UNL     1       4.823   4.107  18.155  0.00  0.00    +0.000 C 
ATOM     13  O   UNL     1       4.527   5.198  19.047  0.00  0.00    +0.000 OA
ATOM     14  C   UNL     1       3.700   6.201  18.451  0.00  0.00    +0.000 C 
ATOM     15  C   UNL     1       2.440   5.663  17.773  0.00  0.00    +0.000 C 
ATOM     16  C   UNL     1       2.290   4.189  18.006  0.00  0.00    +0.000 A 
ATOM     17  C   UNL     1       1.027   3.693  18.388  0.00  0.00    +0.000 A 
ATOM     18  C   UNL     1       0.915   2.444  18.982  0.00  0.00    +0.000 A 
ATOM     19  C   UNL     1       2.055   1.659  19.122  0.00  0.00    +0.000 A 
ATOM     20  C   UNL     1       3.307   2.118  18.662  0.00  0.00    +0.000 A 
ATOM     21  C   UNL     1       3.463   3.399  18.086  0.00  0.00    +0.000 A 
ENDBRANCH  11  12
TORSDOF 1
ENDMDL
MODEL 2
REMARK VINA RESULT:      -7.2      1.535      2.264
REMARK  Name = 
REMARK  1 active torsions:
REMARK  status: ('A' for Active; 'I' for Inactive)
REMARK    1  A    between atoms: N_11  and  C_12
REMARK                            x       y       z     vdW  Elec       q    Type
REMARK                         _______ _______ _______ _____ _____    ______ ____
ROOT
ATOM      1  S   UNL     1       6.085   5.399  19.323  0.00  0.00    +0.000 S 
ATOM      2  C   UNL     1       5.868   5.070  17.701  0.00  0.00    +0.000 A 
ATOM      3  O   UNL     1       7.001   5.204  16.941  0.00  0.00    +0.000 OA
ATOM      4  C   UNL     1       6.569   4.778  15.709  0.00  0.00    +0.000 A 
ATOM      5  C   UNL     1       7.456   4.701  14.640  0.00  0.00    +0.000 A 
ATOM      6  C   UNL     1       6.940   4.259  13.442  0.00  0.00    +0.000 A 
ATOM      7  C   UNL     1       5.577   3.912  13.362  0.00  0.00    +0.000 A 
ATOM      8 CL   UNL     1       4.969   3.400  11.822  0.00  0.00    +0.000 Cl
ATOM      9  C   UNL     1       4.695   3.974  14.478  0.00  0.00    +0.000 A 
ATOM     10  C   UNL     1       5.213   4.424  15.663  0.00  0.00    +0.000 A 
ATOM     11  N   UNL     1       4.731   4.646  16.970  0.00  0.00    +0.000 N 
ENDROOT
BRANCH  11  12
ATOM     12  C   UNL     1       3.489   4.318  17.680  0.00  0.00    +0.000 C 
ATOM     13  O   UNL     1       3.074   3.015  17.231  0.00  0.00    +0.000 OA
ATOM     14  C   UNL     1       3.925   1.963  17.697  0.00  0.00    +0.000 C 
ATOM     15  C   UNL     1       4.195   1.988  19.202  0.00  0.00    +0.000 C 
ATOM     16  C   UNL     1       3.384   3.053  19.879  0.00  0.00    +0.000 A 
ATOM     17  C   UNL     1       2.705   2.727  21.069  0.00  0.00    +0.000 A 
ATOM     18  C   UNL     1       1.658   3.520  21.518  0.00  0.00    +0.000 A 
ATOM     19  C   UNL     1       1.343   4.680  20.819  0.00  0.00    +0.000 A 
ATOM     20  C   UNL     1       2.079   5.054  19.674  0.00  0.00    +0.000 A 
ATOM     21  C   UNL     1       3.126   4.252  19.170  0.00  0.00    +0.000 A 
ENDBRANCH  11  12
TORSDOF 1
ENDMDL
MODEL 3
REMARK VINA RESULT:      -6.9      3.298      6.137
REMARK  Name = 
REMARK  1 active torsions:
REMARK  status: ('A' for Active; 'I' for Inactive)
REMARK    1  A    between atoms: N_11  and  C_12
REMARK                            x       y       z     vdW  Elec       q    Type
REMARK                         _______ _______ _______ _____ _____    ______ ____
ROOT
ATOM      1  S   UNL     1       2.592   3.094  21.550  0.00  0.00    +0.000 S 
ATOM      2  C   UNL     1       2.406   4.545  20.746  0.00  0.00    +0.000 A 
ATOM      3  O   UNL     1       1.464   5.377  21.293  0.00  0.00    +0.000 OA
ATOM      4  C   UNL     1       1.597   6.504  20.521  0.00  0.00    +0.000 A 
ATOM      5  C   UNL     1       0.840   7.639  20.794  0.00  0.00    +0.000 A 
ATOM      6  C   UNL     1       1.041   8.727  19.974  0.00  0.00    +0.000 A 
ATOM      7  C   UNL     1       1.981   8.639  18.927  0.00  0.00    +0.000 A 
ATOM      8 CL   UNL     1       2.165  10.022  17.898  0.00  0.00    +0.000 Cl
ATOM      9  C   UNL     1       2.762   7.474  18.683  0.00  0.00    +0.000 A 
ATOM     10  C   UNL     1       2.550   6.395  19.498  0.00  0.00    +0.000 A 
ATOM     11  N   UNL     1       3.068   5.088  19.617  0.00  0.00    +0.000 N 
ENDROOT
BRANCH  11  12
ATOM     12  C   UNL     1       4.202   4.370  19.023  0.00  0.00    +0.000 C 
ATOM     13  O   UNL     1       3.727   3.066  18.642  0.00  0.00    +0.000 OA
ATOM     14  C   UNL     1       2.828   3.098  17.530  0.00  0.00    +0.000 C 
ATOM     15  C   UNL     1       3.338   3.891  16.327  0.00  0.00    +0.000 C 
ATOM     16  C   UNL     1       4.748   4.353  16.543  0.00  0.00    +0.000 A 
ATOM     17  C   UNL     1       5.679   4.187  15.499  0.00  0.00    +0.000 A 
ATOM     18  C   UNL     1       7.041   4.227  15.761  0.00  0.00    +0.000 A 
ATOM     19  C   UNL     1       7.471   4.513  17.052  0.00  0.00    +0.000 A 
ATOM     20  C   UNL     1       6.540   4.766  18.083  0.00  0.00    +0.000 A 
ATOM     21  C   UNL     1       5.147   4.697  17.858  0.00  0.00    +0.000 A 
ENDBRANCH  11  12
TORSDOF 1
ENDMDL
MODEL 4
REMARK VINA RESULT:      -6.7      2.943      6.014
REMARK  Name = 
REMARK  1 active torsions:
REMARK  status: ('A' for Active; 'I' for Inactive)
REMARK    1  A    between atoms: N_11  and  C_12
REMARK                            x       y       z     vdW  Elec       q    Type
REMARK                         _______ _______ _______ _____ _____    ______ ____
ROOT
ATOM      1  S   UNL     1       2.154   8.055  18.160  0.00  0.00    +0.000 S 
ATOM      2  C   UNL     1       2.739   6.626  18.794  0.00  0.00    +0.000 A 
ATOM      3  O   UNL     1       2.093   6.205  19.928  0.00  0.00    +0.000 OA
ATOM      4  C   UNL     1       2.688   4.990  20.159  0.00  0.00    +0.000 A 
ATOM      5  C   UNL     1       2.264   4.187  21.214  0.00  0.00    +0.000 A 
ATOM      6  C   UNL     1       2.912   2.983  21.371  0.00  0.00    +0.000 A 
ATOM      7  C   UNL     1       3.943   2.631  20.477  0.00  0.00    +0.000 A 
ATOM      8 CL   UNL     1       4.754   1.122  20.744  0.00  0.00    +0.000 Cl
ATOM      9  C   UNL     1       4.342   3.458  19.389  0.00  0.00    +0.000 A 
ATOM     10  C   UNL     1       3.699   4.658  19.245  0.00  0.00    +0.000 A 
ATOM     11  N   UNL     1       3.763   5.751  18.357  0.00  0.00    +0.000 N 
ENDROOT
BRANCH  11  12
ATOM     12  C   UNL     1       4.436   6.001  17.076  0.00  0.00    +0.000 C 
ATOM     13  O   UNL     1       5.358   7.086  17.285  0.00  0.00    +0.000 OA
ATOM     14  C   UNL     1       6.477   6.724  18.100  0.00  0.00    +0.000 C 
ATOM     15  C   UNL     1       7.192   5.446  17.661  0.00  0.00    +0.000 C 
ATOM     16  C   UNL     1       6.626   4.925  16.373  0.00  0.00    +0.000 A 
ATOM     17  C   UNL     1       7.519   4.521  15.360  0.00  0.00    +0.000 A 
ATOM     18  C   UNL     1       7.084   4.407  14.048  0.00  0.00    +0.000 A 
ATOM     19  C   UNL     1       5.740   4.619  13.762  0.00  0.00    +0.000 A 
ATOM     20  C   UNL     1       4.826   4.940  14.789  0.00  0.00    +0.000 A 
ATOM     21  C   UNL     1       5.242   5.100  16.129  0.00  0.00    +0.000 A 
ENDBRANCH  11  12
TORSDOF 1
ENDMDL
MODEL 5
REMARK VINA RESULT:      -6.5      9.174     11.448
REMARK  Name = 
REMARK  1 active torsions:
REMARK  status: ('A' for Active; 'I' for Inactive)
REMARK    1  A    between atoms: N_11  and  C_12
REMARK                            x       y       z     vdW  Elec       q    Type
REMARK                         _______ _______ _______ _____ _____    ______ ____
ROOT
ATOM      1  S   UNL     1      -3.334  13.488  21.816  0.00  0.00    +0.000 S 
ATOM      2  C   UNL     1      -3.247  12.706  20.344  0.00  0.00    +0.000 A 
ATOM      3  O   UNL     1      -4.458  12.286  19.856  0.00  0.00    +0.000 OA
ATOM      4  C   UNL     1      -4.111  11.791  18.623  0.00  0.00    +0.000 A 
ATOM      5  C   UNL     1      -5.088  11.308  17.758  0.00  0.00    +0.000 A 
ATOM      6  C   UNL     1      -4.653  10.835  16.539  0.00  0.00    +0.000 A 
ATOM      7  C   UNL     1      -3.276  10.867  16.237  0.00  0.00    +0.000 A 
ATOM      8 CL   UNL     1      -2.778  10.223  14.707  0.00  0.00    +0.000 Cl
ATOM      9  C   UNL     1      -2.299  11.391  17.129  0.00  0.00    +0.000 A 
ATOM     10  C   UNL     1      -2.738  11.850  18.342  0.00  0.00    +0.000 A 
ATOM     11  N   UNL     1      -2.153  12.424  19.490  0.00  0.00    +0.000 N 
ENDROOT
BRANCH  11  12
ATOM     12  C   UNL     1      -0.821  12.948  19.816  0.00  0.00    +0.000 C 
ATOM     13  O   UNL     1      -0.220  12.031  20.749  0.00  0.00    +0.000 OA
ATOM     14  C   UNL     1       0.132  10.778  20.157  0.00  0.00    +0.000 C 
ATOM     15  C   UNL     1       0.946  10.893  18.867  0.00  0.00    +0.000 C 
ATOM     16  C   UNL     1       1.308  12.321  18.583  0.00  0.00    +0.000 A 
ATOM     17  C   UNL     1       2.633  12.617  18.206  0.00  0.00    +0.000 A 
ATOM     18  C   UNL     1       3.118  13.912  18.309  0.00  0.00    +0.000 A 
ATOM     19  C   UNL     1       2.256  14.925  18.715  0.00  0.00    +0.000 A 
ATOM     20  C   UNL     1       0.905  14.646  19.011  0.00  0.00    +0.000 A 
ATOM     21  C   UNL     1       0.388  13.333  18.951  0.00  0.00    +0.000 A 
ENDBRANCH  11  12
TORSDOF 1
ENDMDL
MODEL 6
REMARK VINA RESULT:      -6.4      3.316      6.411
REMARK  Name = 
REMARK  1 active torsions:
REMARK  status: ('A' for Active; 'I' for Inactive)
REMARK    1  A    between atoms: N_11  and  C_12
REMARK                            x       y       z     vdW  Elec       q    Type
REMARK                         _______ _______ _______ _____ _____    ______ ____
ROOT
ATOM      1  S   UNL     1       4.402   1.238  18.259  0.00  0.00    +0.000 S 
ATOM      2  C   UNL     1       3.601   2.613  18.762  0.00  0.00    +0.000 A 
ATOM      3  O   UNL     1       2.344   2.384  19.259  0.00  0.00    +0.000 OA
ATOM      4  C   UNL     1       1.975   3.636  19.687  0.00  0.00    +0.000 A 
ATOM      5  C   UNL     1       0.754   3.831  20.325  0.00  0.00    +0.000 A 
ATOM      6  C   UNL     1       0.466   5.116  20.725  0.00  0.00    +0.000 A 
ATOM      7  C   UNL     1       1.400   6.143  20.477  0.00  0.00    +0.000 A 
ATOM      8 CL   UNL     1       0.970   7.750  20.964  0.00  0.00    +0.000 Cl
ATOM      9  C   UNL     1       2.654   5.914  19.845  0.00  0.00    +0.000 A 
ATOM     10  C   UNL     1       2.929   4.634  19.442  0.00  0.00    +0.000 A 
ATOM     11  N   UNL     1       3.996   3.973  18.799  0.00  0.00    +0.000 N 
ENDROOT
BRANCH  11  12
ATOM     12  C   UNL     1       5.370   4.342  18.438  0.00  0.00    +0.000 C 
ATOM     13  O   UNL     1       5.539   4.039  17.041  0.00  0.00    +0.000 OA
ATOM     14  C   UNL     1       4.801   4.914  16.184  0.00  0.00    +0.000 C 
ATOM     15  C   UNL     1       5.004   6.402  16.472  0.00  0.00    +0.000 C 
ATOM     16  C   UNL     1       6.053   6.610  17.524  0.00  0.00    +0.000 A 
ATOM     17  C   UNL     1       7.039   7.593  17.306  0.00  0.00    +0.000 A 
ATOM     18  C   UNL     1       8.225   7.568  18.027  0.00  0.00    +0.000 A 
ATOM     19  C   UNL     1       8.389   6.608  19.020  0.00  0.00    +0.000 A 
ATOM     20  C   UNL     1       7.368   5.676  19.299  0.00  0.00    +0.000 A 
ATOM     21  C   UNL     1       6.164   5.650  18.560  0.00  0.00    +0.000 A 
ENDBRANCH  11  12
TORSDOF 1
ENDMDL
MODEL 7
REMARK VINA RESULT:      -6.3      4.806      6.321
REMARK  Name = 
REMARK  1 active torsions:
REMARK  status: ('A' for Active; 'I' for Inactive)
REMARK    1  A    between atoms: N_11  and  C_12
REMARK                            x       y       z     vdW  Elec       q    Type
REMARK                         _______ _______ _______ _____ _____    ______ ____
ROOT
ATOM      1  S   UNL     1       4.004   6.247  17.171  0.00  0.00    +0.000 S 
ATOM      2  C   UNL     1       3.104   6.994  18.363  0.00  0.00    +0.000 A 
ATOM      3  O   UNL     1       2.620   8.228  18.014  0.00  0.00    +0.000 OA
ATOM      4  C   UNL     1       1.851   8.550  19.105  0.00  0.00    +0.000 A 
ATOM      5  C   UNL     1       1.118   9.733  19.126  0.00  0.00    +0.000 A 
ATOM      6  C   UNL     1       0.370   9.974  20.257  0.00  0.00    +0.000 A 
ATOM      7  C   UNL     1       0.381   9.034  21.307  0.00  0.00    +0.000 A 
ATOM      8 CL   UNL     1      -0.545   9.406  22.724  0.00  0.00    +0.000 Cl
ATOM      9  C   UNL     1       1.119   7.818  21.251  0.00  0.00    +0.000 A 
ATOM     10  C   UNL     1       1.868   7.590  20.127  0.00  0.00    +0.000 A 
ATOM     11  N   UNL     1       2.723   6.571  19.659  0.00  0.00    +0.000 N 
ENDROOT
BRANCH  11  12
ATOM     12  C   UNL     1       3.045   5.210  20.105  0.00  0.00    +0.000 C 
ATOM     13  O   UNL     1       1.956   4.766  20.936  0.00  0.00    +0.000 OA
ATOM     14  C   UNL     1       0.753   4.520  20.202  0.00  0.00    +0.000 C 
ATOM     15  C   UNL     1       0.932   3.628  18.974  0.00  0.00    +0.000 C 
ATOM     16  C   UNL     1       2.333   3.096  18.892  0.00  0.00    +0.000 A 
ATOM     17  C   UNL     1       2.518   1.727  18.612  0.00  0.00    +0.000 A 
ATOM     18  C   UNL     1       3.726   1.110  18.902  0.00  0.00    +0.000 A 
ATOM     19  C   UNL     1       4.773   1.878  19.399  0.00  0.00    +0.000 A 
ATOM     20  C   UNL     1       4.618   3.266  19.600  0.00  0.00    +0.000 A 
ATOM     21  C   UNL     1       3.391   3.919  19.350  0.00  0.00    +0.000 A 
ENDBRANCH  11  12
TORSDOF 1
ENDMDL
MODEL 8
REMARK VINA RESULT:      -6.2      3.372      4.886
REMARK  Name = 
REMARK  1 active torsions:
REMARK  status: ('A' for Active; 'I' for Inactive)
REMARK    1  A    between atoms: N_11  and  C_12
REMARK                            x       y       z     vdW  Elec       q    Type
REMARK                         _______ _______ _______ _____ _____    ______ ____
ROOT
ATOM      1  S   UNL     1       2.370   3.058  17.449  0.00  0.00    +0.000 S 
ATOM      2  C   UNL     1       3.639   4.133  17.590  0.00  0.00    +0.000 A 
ATOM      3  O   UNL     1       4.871   3.586  17.342  0.00  0.00    +0.000 OA
ATOM      4  C   UNL     1       5.690   4.686  17.418  0.00  0.00    +0.000 A 
ATOM      5  C   UNL     1       7.053   4.568  17.162  0.00  0.00    +0.000 A 
ATOM      6  C   UNL     1       7.800   5.722  17.257  0.00  0.00    +0.000 A 
ATOM      7  C   UNL     1       7.162   6.932  17.596  0.00  0.00    +0.000 A 
ATOM      8 CL   UNL     1       8.154   8.346  17.742  0.00  0.00    +0.000 Cl
ATOM      9  C   UNL     1       5.761   7.031  17.828  0.00  0.00    +0.000 A 
ATOM     10  C   UNL     1       5.028   5.878  17.741  0.00  0.00    +0.000 A 
ATOM     11  N   UNL     1       3.673   5.516  17.891  0.00  0.00    +0.000 N 
ENDROOT
BRANCH  11  12
ATOM     12  C   UNL     1       2.416   6.262  18.032  0.00  0.00    +0.000 C 
ATOM     13  O   UNL     1       1.527   5.451  18.821  0.00  0.00    +0.000 OA
ATOM     14  C   UNL     1       1.925   5.352  20.191  0.00  0.00    +0.000 C 
ATOM     15  C   UNL     1       2.219   6.693  20.864  0.00  0.00    +0.000 C 
ATOM     16  C   UNL     1       1.890   7.838  19.952  0.00  0.00    +0.000 A 
ATOM     17  C   UNL     1       1.166   8.928  20.474  0.00  0.00    +0.000 A 
ATOM     18  C   UNL     1       0.509   9.805  19.623  0.00  0.00    +0.000 A 
ATOM     19  C   UNL     1       0.643   9.638  18.249  0.00  0.00    +0.000 A 
ATOM     20  C   UNL     1       1.438   8.598  17.722  0.00  0.00    +0.000 A 
ATOM     21  C   UNL     1       2.090   7.666  18.560  0.00  0.00    +0.000 A 
ENDBRANCH  11  12
TORSDOF 1
ENDMDL
MODEL 9
REMARK VINA RESULT:      -6.2      7.309      9.429
REMARK  Name = 
REMARK  1 active torsions:
REMARK  status: ('A' for Active; 'I' for Inactive)
REMARK    1  A    between atoms: N_11  and  C_12
REMARK                            x       y       z     vdW  Elec       q    Type
REMARK                         _______ _______ _______ _____ _____    ______ ____
ROOT
ATOM      1  S   UNL     1      -1.384  11.162  23.061  0.00  0.00    +0.000 S 
ATOM      2  C   UNL     1      -0.328  11.916  22.010  0.00  0.00    +0.000 A 
ATOM      3  O   UNL     1      -0.086  13.233  22.302  0.00  0.00    +0.000 OA
ATOM      4  C   UNL     1       0.871  13.559  21.372  0.00  0.00    +0.000 A 
ATOM      5  C   UNL     1       1.444  14.826  21.367  0.00  0.00    +0.000 A 
ATOM      6  C   UNL     1       2.399  15.066  20.404  0.00  0.00    +0.000 A 
ATOM      7  C   UNL     1       2.741  14.041  19.498  0.00  0.00    +0.000 A 
ATOM      8 CL   UNL     1       3.918  14.409  18.281  0.00  0.00    +0.000 Cl
ATOM      9  C   UNL     1       2.158  12.744  19.541  0.00  0.00    +0.000 A 
ATOM     10  C   UNL     1       1.203  12.516  20.495  0.00  0.00    +0.000 A 
ATOM     11  N   UNL     1       0.389  11.433  20.888  0.00  0.00    +0.000 N 
ENDROOT
BRANCH  11  12
ATOM     12  C   UNL     1       0.341  10.005  20.552  0.00  0.00    +0.000 C 
ATOM     13  O   UNL     1      -0.727   9.827  19.604  0.00  0.00    +0.000 OA
ATOM     14  C   UNL     1      -0.437  10.386  18.320  0.00  0.00    +0.000 C 
ATOM     15  C   UNL     1       0.915   9.970  17.739  0.00  0.00    +0.000 C 
ATOM     16  C   UNL     1       1.584   8.945  18.608  0.00  0.00    +0.000 A 
ATOM     17  C   UNL     1       2.155   7.812  17.996  0.00  0.00    +0.000 A 
ATOM     18  C   UNL     1       2.429   6.676  18.742  0.00  0.00    +0.000 A 
ATOM     19  C   UNL     1       2.207   6.701  20.115  0.00  0.00    +0.000 A 
ATOM     20  C   UNL     1       1.715   7.864  20.745  0.00  0.00    +0.000 A 
ATOM     21  C   UNL     1       1.391   9.026  20.009  0.00  0.00    +0.000 A 
ENDBRANCH  11  12
TORSDOF 1
ENDMDL
