MODEL 1
REMARK VINA RESULT:      -8.5      0.000      0.000
REMARK  Name = 
REMARK  4 active torsions:
REMARK  status: ('A' for Active; 'I' for Inactive)
REMARK    1  A    between atoms: C_1  and  C_2
REMARK    2  A    between atoms: C_5  and  C_6
REMARK    3  A    between atoms: C_6  and  C_7
REMARK    4  A    between atoms: C_7  and  N_8
REMARK                            x       y       z     vdW  Elec       q    Type
REMARK                         _______ _______ _______ _____ _____    ______ ____
ROOT
ATOM      1  N   UNL     1       3.218   5.908  18.175  0.00  0.00    +0.000 NA
ATOM      2  C   UNL     1       4.183   5.267  17.268  0.00  0.00    +0.000 C 
ATOM      3  C   UNL     1       3.992   3.738  17.132  0.00  0.00    +0.000 C 
ATOM      4  C   UNL     1       2.562   3.415  16.713  0.00  0.00    +0.000 C 
ATOM      5  C   UNL     1       1.647   3.978  17.795  0.00  0.00    +0.000 C 
ATOM      6  C   UNL     1       1.835   5.513  17.855  0.00  0.00    +0.000 C 
ATOM      7  C   UNL     1       1.949   3.372  19.157  0.00  0.00    +0.000 A 
ATOM      8  C   UNL     1       0.990   3.263  20.094  0.00  0.00    +0.000 A 
ATOM      9  C   UNL     1       1.301   2.795  21.418  0.00  0.00    +0.000 A 
ATOM     10  C   UNL     1       2.553   2.454  21.740  0.00  0.00    +0.000 A 
ATOM     11  C   UNL     1       3.629   2.512  20.717  0.00  0.00    +0.000 A 
ATOM     12  O   UNL     1       4.759   2.138  21.023  0.00  0.00    +0.000 OA
ATOM     13  N   UNL     1       3.260   2.988  19.455  0.00  0.00    +0.000 N 
ATOM     14  C   UNL     1       4.305   2.987  18.432  0.00  0.00    +0.000 C 
ENDROOT
BRANCH   1  15
ATOM     15  C   UNL     1       3.406   7.371  18.217  0.00  0.00    +0.000 C 
BRANCH  15  16
ATOM     16  C   UNL     1       2.104   8.156  17.980  0.00  0.00    +0.000 C 
BRANCH  16  21
ATOM     17  C   UNL     1      -0.431  10.207  22.799  0.00  0.00    +0.000 C 
ATOM     18  C   UNL     1       0.257   9.712  21.564  0.00  0.00    +0.000 A 
ATOM     19  C   UNL     1       0.104  10.371  20.341  0.00  0.00    +0.000 A 
ATOM     20  C   UNL     1       0.724   9.882  19.192  0.00  0.00    +0.000 A 
ATOM     21  C   UNL     1       1.503   8.719  19.243  0.00  0.00    +0.000 A 
ATOM     22  C   UNL     1       1.677   8.071  20.468  0.00  0.00    +0.000 A 
ATOM     23  C   UNL     1       1.058   8.563  21.619  0.00  0.00    +0.000 A 
ENDBRANCH  16  21
ENDBRANCH  15  16
ENDBRANCH   1  15
TORSDOF 3
ENDMDL
MODEL 2
REMARK VINA RESULT:      -8.4      0.068      1.008
REMARK  Name = 
REMARK  4 active torsions:
REMARK  status: ('A' for Active; 'I' for Inactive)
REMARK    1  A    between atoms: C_1  and  C_2
REMARK    2  A    between atoms: C_5  and  C_6
REMARK    3  A    between atoms: C_6  and  C_7
REMARK    4  A    between atoms: C_7  and  N_8
REMARK                            x       y       z     vdW  Elec       q    Type
REMARK                         _______ _______ _______ _____ _____    ______ ____
ROOT
ATOM      1  N   UNL     1       3.251   5.934  18.220  0.00  0.00    +0.000 NA
ATOM      2  C   UNL     1       4.228   5.306  17.317  0.00  0.00    +0.000 C 
ATOM      3  C   UNL     1       4.042   3.779  17.160  0.00  0.00    +0.000 C 
ATOM      4  C   UNL     1       2.618   3.459  16.720  0.00  0.00    +0.000 C 
ATOM      5  C   UNL     1       1.688   4.006  17.797  0.00  0.00    +0.000 C 
ATOM      6  C   UNL     1       1.873   5.541  17.879  0.00  0.00    +0.000 C 
ATOM      7  C   UNL     1       1.975   3.383  19.155  0.00  0.00    +0.000 A 
ATOM      8  C   UNL     1       1.004   3.261  20.079  0.00  0.00    +0.000 A 
ATOM      9  C   UNL     1       1.301   2.778  21.401  0.00  0.00    +0.000 A 
ATOM     10  C   UNL     1       2.549   2.435  21.733  0.00  0.00    +0.000 A 
ATOM     11  C   UNL     1       3.637   2.508  20.725  0.00  0.00    +0.000 A 
ATOM     12  O   UNL     1       4.764   2.132  21.040  0.00  0.00    +0.000 OA
ATOM     13  N   UNL     1       3.283   2.998  19.465  0.00  0.00    +0.000 N 
ATOM     14  C   UNL     1       4.340   3.011  18.454  0.00  0.00    +0.000 C 
ENDROOT
BRANCH   1  15
ATOM     15  C   UNL     1       3.437   7.397  18.283  0.00  0.00    +0.000 C 
BRANCH  15  16
ATOM     16  C   UNL     1       2.154   8.184  17.963  0.00  0.00    +0.000 C 
BRANCH  16  21
ATOM     17  C   UNL     1      -0.354  10.340  22.750  0.00  0.00    +0.000 C 
ATOM     18  C   UNL     1       0.256   9.752  21.514  0.00  0.00    +0.000 A 
ATOM     19  C   UNL     1       1.047   8.602  21.580  0.00  0.00    +0.000 A 
ATOM     20  C   UNL     1       1.635   8.083  20.428  0.00  0.00    +0.000 A 
ATOM     21  C   UNL     1       1.449   8.709  19.188  0.00  0.00    +0.000 A 
ATOM     22  C   UNL     1       0.640   9.845  19.116  0.00  0.00    +0.000 A 
ATOM     23  C   UNL     1       0.050  10.363  20.270  0.00  0.00    +0.000 A 
ENDBRANCH  16  21
ENDBRANCH  15  16
ENDBRANCH   1  15
TORSDOF 3
ENDMDL
MODEL 3
REMARK VINA RESULT:      -8.0      2.325      3.947
REMARK  Name = 
REMARK  4 active torsions:
REMARK  status: ('A' for Active; 'I' for Inactive)
REMARK    1  A    between atoms: C_1  and  C_2
REMARK    2  A    between atoms: C_5  and  C_6
REMARK    3  A    between atoms: C_6  and  C_7
REMARK    4  A    between atoms: C_7  and  N_8
REMARK                            x       y       z     vdW  Elec       q    Type
REMARK                         _______ _______ _______ _____ _____    ______ ____
ROOT
ATOM      1  N   UNL     1       2.822   5.615  19.205  0.00  0.00    +0.000 NA
ATOM      2  C   UNL     1       2.209   4.783  18.158  0.00  0.00    +0.000 C 
ATOM      3  C   UNL     1       3.212   3.855  17.433  0.00  0.00    +0.000 C 
ATOM      4  C   UNL     1       3.962   2.990  18.439  0.00  0.00    +0.000 C 
ATOM      5  C   UNL     1       4.693   3.941  19.380  0.00  0.00    +0.000 C 
ATOM      6  C   UNL     1       3.646   4.808  20.121  0.00  0.00    +0.000 C 
ATOM      7  C   UNL     1       5.663   4.839  18.629  0.00  0.00    +0.000 A 
ATOM      8  C   UNL     1       6.766   5.321  19.230  0.00  0.00    +0.000 A 
ATOM      9  C   UNL     1       7.622   6.261  18.556  0.00  0.00    +0.000 A 
ATOM     10  C   UNL     1       7.338   6.668  17.315  0.00  0.00    +0.000 A 
ATOM     11  C   UNL     1       6.157   6.118  16.601  0.00  0.00    +0.000 A 
ATOM     12  O   UNL     1       5.952   6.465  15.440  0.00  0.00    +0.000 OA
ATOM     13  N   UNL     1       5.361   5.220  17.318  0.00  0.00    +0.000 N 
ATOM     14  C   UNL     1       4.235   4.632  16.594  0.00  0.00    +0.000 C 
ENDROOT
BRANCH   1  15
ATOM     15  C   UNL     1       1.811   6.432  19.905  0.00  0.00    +0.000 C 
BRANCH  15  16
ATOM     16  C   UNL     1       1.993   7.944  19.679  0.00  0.00    +0.000 C 
BRANCH  16  21
ATOM     17  C   UNL     1      -1.311  11.375  23.021  0.00  0.00    +0.000 C 
ATOM     18  C   UNL     1      -0.495  10.457  22.163  0.00  0.00    +0.000 A 
ATOM     19  C   UNL     1       0.287   9.447  22.731  0.00  0.00    +0.000 A 
ATOM     20  C   UNL     1       1.066   8.619  21.924  0.00  0.00    +0.000 A 
ATOM     21  C   UNL     1       1.086   8.792  20.533  0.00  0.00    +0.000 A 
ATOM     22  C   UNL     1       0.289   9.787  19.962  0.00  0.00    +0.000 A 
ATOM     23  C   UNL     1      -0.494  10.613  20.770  0.00  0.00    +0.000 A 
ENDBRANCH  16  21
ENDBRANCH  15  16
ENDBRANCH   1  15
TORSDOF 3
ENDMDL
MODEL 4
REMARK VINA RESULT:      -7.9      2.330      3.780
REMARK  Name = 
REMARK  4 active torsions:
REMARK  status: ('A' for Active; 'I' for Inactive)
REMARK    1  A    between atoms: C_1  and  C_2
REMARK    2  A    between atoms: C_5  and  C_6
REMARK    3  A    between atoms: C_6  and  C_7
REMARK    4  A    between atoms: C_7  and  N_8
REMARK                            x       y       z     vdW  Elec       q    Type
REMARK                         _______ _______ _______ _____ _____    ______ ____
ROOT
ATOM      1  N   UNL     1       2.810   5.603  18.820  0.00  0.00    +0.000 NA
ATOM      2  C   UNL     1       2.312   4.649  17.817  0.00  0.00    +0.000 C 
ATOM      3  C   UNL     1       3.392   3.673  17.294  0.00  0.00    +0.000 C 
ATOM      4  C   UNL     1       4.055   2.939  18.454  0.00  0.00    +0.000 C 
ATOM      5  C   UNL     1       4.680   4.002  19.350  0.00  0.00    +0.000 C 
ATOM      6  C   UNL     1       3.555   4.919  19.891  0.00  0.00    +0.000 C 
ATOM      7  C   UNL     1       5.704   4.838  18.599  0.00  0.00    +0.000 A 
ATOM      8  C   UNL     1       6.739   5.408  19.244  0.00  0.00    +0.000 A 
ATOM      9  C   UNL     1       7.642   6.291  18.555  0.00  0.00    +0.000 A 
ATOM     10  C   UNL     1       7.472   6.556  17.256  0.00  0.00    +0.000 A 
ATOM     11  C   UNL     1       6.372   5.905  16.499  0.00  0.00    +0.000 A 
ATOM     12  O   UNL     1       6.273   6.121  15.293  0.00  0.00    +0.000 OA
ATOM     13  N   UNL     1       5.524   5.070  17.232  0.00  0.00    +0.000 N 
ATOM     14  C   UNL     1       4.479   4.380  16.475  0.00  0.00    +0.000 C 
ENDROOT
BRANCH   1  15
ATOM     15  C   UNL     1       1.727   6.466  19.330  0.00  0.00    +0.000 C 
BRANCH  15  16
ATOM     16  C   UNL     1       2.085   7.962  19.311  0.00  0.00    +0.000 C 
BRANCH  16  21
ATOM     17  C   UNL     1      -1.225  10.984  23.021  0.00  0.00    +0.000 C 
ATOM     18  C   UNL     1      -0.341  10.243  22.065  0.00  0.00    +0.000 A 
ATOM     19  C   UNL     1      -0.380  10.511  20.694  0.00  0.00    +0.000 A 
ATOM     20  C   UNL     1       0.425   9.792  19.811  0.00  0.00    +0.000 A 
ATOM     21  C   UNL     1       1.278   8.786  20.282  0.00  0.00    +0.000 A 
ATOM     22  C   UNL     1       1.335   8.532  21.654  0.00  0.00    +0.000 A 
ATOM     23  C   UNL     1       0.532   9.254  22.538  0.00  0.00    +0.000 A 
ENDBRANCH  16  21
ENDBRANCH  15  16
ENDBRANCH   1  15
TORSDOF 3
ENDMDL
MODEL 5
REMARK VINA RESULT:      -7.8      4.938      6.355
REMARK  Name = 
REMARK  4 active torsions:
REMARK  status: ('A' for Active; 'I' for Inactive)
REMARK    1  A    between atoms: C_1  and  C_2
REMARK    2  A    between atoms: C_5  and  C_6
REMARK    3  A    between atoms: C_6  and  C_7
REMARK    4  A    between atoms: C_7  and  N_8
REMARK                            x       y       z     vdW  Elec       q    Type
REMARK                         _______ _______ _______ _____ _____    ______ ____
ROOT
ATOM      1  N   UNL     1       7.122   6.807  18.112  0.00  0.00    +0.000 NA
ATOM      2  C   UNL     1       7.527   5.395  18.031  0.00  0.00    +0.000 C 
ATOM      3  C   UNL     1       6.399   4.447  17.560  0.00  0.00    +0.000 C 
ATOM      4  C   UNL     1       5.827   4.921  16.228  0.00  0.00    +0.000 C 
ATOM      5  C   UNL     1       5.288   6.329  16.454  0.00  0.00    +0.000 C 
ATOM      6  C   UNL     1       6.462   7.249  16.871  0.00  0.00    +0.000 C 
ATOM      7  C   UNL     1       4.213   6.352  17.529  0.00  0.00    +0.000 A 
ATOM      8  C   UNL     1       3.240   7.283  17.515  0.00  0.00    +0.000 A 
ATOM      9  C   UNL     1       2.292   7.374  18.592  0.00  0.00    +0.000 A 
ATOM     10  C   UNL     1       2.356   6.531  19.626  0.00  0.00    +0.000 A 
ATOM     11  C   UNL     1       3.384   5.458  19.652  0.00  0.00    +0.000 A 
ATOM     12  O   UNL     1       3.385   4.660  20.586  0.00  0.00    +0.000 OA
ATOM     13  N   UNL     1       4.282   5.434  18.581  0.00  0.00    +0.000 N 
ATOM     14  C   UNL     1       5.254   4.341  18.575  0.00  0.00    +0.000 C 
ENDROOT
BRANCH   1  15
ATOM     15  C   UNL     1       8.251   7.671  18.505  0.00  0.00    +0.000 C 
BRANCH  15  16
ATOM     16  C   UNL     1       8.268   9.020  17.765  0.00  0.00    +0.000 C 
BRANCH  16  21
ATOM     17  C   UNL     1      10.955  13.340  20.589  0.00  0.00    +0.000 C 
ATOM     18  C   UNL     1      10.306  12.205  19.855  0.00  0.00    +0.000 A 
ATOM     19  C   UNL     1      10.301  12.161  18.458  0.00  0.00    +0.000 A 
ATOM     20  C   UNL     1       9.666  11.117  17.788  0.00  0.00    +0.000 A 
ATOM     21  C   UNL     1       9.018  10.101  18.501  0.00  0.00    +0.000 A 
ATOM     22  C   UNL     1       9.041  10.130  19.897  0.00  0.00    +0.000 A 
ATOM     23  C   UNL     1       9.679  11.175  20.569  0.00  0.00    +0.000 A 
ENDBRANCH  16  21
ENDBRANCH  15  16
ENDBRANCH   1  15
TORSDOF 3
ENDMDL
MODEL 6
REMARK VINA RESULT:      -7.8      4.655      5.970
REMARK  Name = 
REMARK  4 active torsions:
REMARK  status: ('A' for Active; 'I' for Inactive)
REMARK    1  A    between atoms: C_1  and  C_2
REMARK    2  A    between atoms: C_5  and  C_6
REMARK    3  A    between atoms: C_6  and  C_7
REMARK    4  A    between atoms: C_7  and  N_8
REMARK                            x       y       z     vdW  Elec       q    Type
REMARK                         _______ _______ _______ _____ _____    ______ ____
ROOT
ATOM      1  N   UNL     1       6.900   6.659  17.867  0.00  0.00    +0.000 NA
ATOM      2  C   UNL     1       7.391   5.462  17.167  0.00  0.00    +0.000 C 
ATOM      3  C   UNL     1       6.266   4.558  16.609  0.00  0.00    +0.000 C 
ATOM      4  C   UNL     1       5.333   5.363  15.712  0.00  0.00    +0.000 C 
ATOM      5  C   UNL     1       4.750   6.480  16.569  0.00  0.00    +0.000 C 
ATOM      6  C   UNL     1       5.907   7.386  17.057  0.00  0.00    +0.000 C 
ATOM      7  C   UNL     1       3.990   5.931  17.767  0.00  0.00    +0.000 A 
ATOM      8  C   UNL     1       2.969   6.618  18.313  0.00  0.00    +0.000 A 
ATOM      9  C   UNL     1       2.326   6.154  19.512  0.00  0.00    +0.000 A 
ATOM     10  C   UNL     1       2.727   5.025  20.104  0.00  0.00    +0.000 A 
ATOM     11  C   UNL     1       3.816   4.213  19.502  0.00  0.00    +0.000 A 
ATOM     12  O   UNL     1       4.127   3.150  20.035  0.00  0.00    +0.000 OA
ATOM     13  N   UNL     1       4.407   4.728  18.345  0.00  0.00    +0.000 N 
ATOM     14  C   UNL     1       5.436   3.899  17.717  0.00  0.00    +0.000 C 
ENDROOT
BRANCH   1  15
ATOM     15  C   UNL     1       8.013   7.514  18.321  0.00  0.00    +0.000 C 
BRANCH  15  16
ATOM     16  C   UNL     1       8.132   8.826  17.526  0.00  0.00    +0.000 C 
BRANCH  16  21
ATOM     17  C   UNL     1      10.458  13.189  20.594  0.00  0.00    +0.000 C 
ATOM     18  C   UNL     1       9.817  12.073  19.827  0.00  0.00    +0.000 A 
ATOM     19  C   UNL     1       9.691  10.797  20.384  0.00  0.00    +0.000 A 
ATOM     20  C   UNL     1       9.121   9.759  19.649  0.00  0.00    +0.000 A 
ATOM     21  C   UNL     1       8.674   9.975  18.339  0.00  0.00    +0.000 A 
ATOM     22  C   UNL     1       8.779  11.254  17.788  0.00  0.00    +0.000 A 
ATOM     23  C   UNL     1       9.347  12.294  18.526  0.00  0.00    +0.000 A 
ENDBRANCH  16  21
ENDBRANCH  15  16
ENDBRANCH   1  15
TORSDOF 3
ENDMDL
MODEL 7
REMARK VINA RESULT:      -7.6      2.366      4.039
REMARK  Name = 
REMARK  4 active torsions:
REMARK  status: ('A' for Active; 'I' for Inactive)
REMARK    1  A    between atoms: C_1  and  C_2
REMARK    2  A    between atoms: C_5  and  C_6
REMARK    3  A    between atoms: C_6  and  C_7
REMARK    4  A    between atoms: C_7  and  N_8
REMARK                            x       y       z     vdW  Elec       q    Type
REMARK                         _______ _______ _______ _____ _____    ______ ____
ROOT
ATOM      1  N   UNL     1       2.780   5.276  19.131  0.00  0.00    +0.000 NA
ATOM      2  C   UNL     1       2.231   4.461  18.035  0.00  0.00    +0.000 C 
ATOM      3  C   UNL     1       3.298   3.644  17.269  0.00  0.00    +0.000 C 
ATOM      4  C   UNL     1       4.100   2.779  18.234  0.00  0.00    +0.000 C 
ATOM      5  C   UNL     1       4.761   3.725  19.231  0.00  0.00    +0.000 C 
ATOM      6  C   UNL     1       3.654   4.478  20.008  0.00  0.00    +0.000 C 
ATOM      7  C   UNL     1       5.670   4.726  18.536  0.00  0.00    +0.000 A 
ATOM      8  C   UNL     1       6.736   5.249  19.171  0.00  0.00    +0.000 A 
ATOM      9  C   UNL     1       7.528   6.280  18.556  0.00  0.00    +0.000 A 
ATOM     10  C   UNL     1       7.223   6.733  17.336  0.00  0.00    +0.000 A 
ATOM     11  C   UNL     1       6.086   6.144  16.584  0.00  0.00    +0.000 A 
ATOM     12  O   UNL     1       5.862   6.538  15.442  0.00  0.00    +0.000 OA
ATOM     13  N   UNL     1       5.349   5.156  17.245  0.00  0.00    +0.000 N 
ATOM     14  C   UNL     1       4.269   4.533  16.482  0.00  0.00    +0.000 C 
ENDROOT
BRANCH   1  15
ATOM     15  C   UNL     1       1.713   5.983  19.865  0.00  0.00    +0.000 C 
BRANCH  15  16
ATOM     16  C   UNL     1       2.168   7.337  20.438  0.00  0.00    +0.000 C 
BRANCH  16  21
ATOM     17  C   UNL     1      -1.108  11.682  18.380  0.00  0.00    +0.000 C 
ATOM     18  C   UNL     1      -0.228  10.595  18.918  0.00  0.00    +0.000 A 
ATOM     19  C   UNL     1       0.735   9.984  18.110  0.00  0.00    +0.000 A 
ATOM     20  C   UNL     1       1.526   8.952  18.613  0.00  0.00    +0.000 A 
ATOM     21  C   UNL     1       1.363   8.506  19.931  0.00  0.00    +0.000 A 
ATOM     22  C   UNL     1       0.416   9.130  20.746  0.00  0.00    +0.000 A 
ATOM     23  C   UNL     1      -0.373  10.165  20.243  0.00  0.00    +0.000 A 
ENDBRANCH  16  21
ENDBRANCH  15  16
ENDBRANCH   1  15
TORSDOF 3
ENDMDL
MODEL 8
REMARK VINA RESULT:      -7.6      2.070      3.564
REMARK  Name = 
REMARK  4 active torsions:
REMARK  status: ('A' for Active; 'I' for Inactive)
REMARK    1  A    between atoms: C_1  and  C_2
REMARK    2  A    between atoms: C_5  and  C_6
REMARK    3  A    between atoms: C_6  and  C_7
REMARK    4  A    between atoms: C_7  and  N_8
REMARK                            x       y       z     vdW  Elec       q    Type
REMARK                         _______ _______ _______ _____ _____    ______ ____
ROOT
ATOM      1  N   UNL     1       2.603   5.932  18.142  0.00  0.00    +0.000 NA
ATOM      2  C   UNL     1       1.898   4.679  17.829  0.00  0.00    +0.000 C 
ATOM      3  C   UNL     1       2.743   3.408  18.080  0.00  0.00    +0.000 C 
ATOM      4  C   UNL     1       3.265   3.390  19.512  0.00  0.00    +0.000 C 
ATOM      5  C   UNL     1       4.114   4.644  19.689  0.00  0.00    +0.000 C 
ATOM      6  C   UNL     1       3.213   5.886  19.482  0.00  0.00    +0.000 C 
ATOM      7  C   UNL     1       5.272   4.682  18.705  0.00  0.00    +0.000 A 
ATOM      8  C   UNL     1       6.415   5.326  19.005  0.00  0.00    +0.000 A 
ATOM      9  C   UNL     1       7.465   5.458  18.031  0.00  0.00    +0.000 A 
ATOM     10  C   UNL     1       7.326   4.936  16.809  0.00  0.00    +0.000 A 
ATOM     11  C   UNL     1       6.101   4.174  16.458  0.00  0.00    +0.000 A 
ATOM     12  O   UNL     1       6.023   3.655  15.346  0.00  0.00    +0.000 OA
ATOM     13  N   UNL     1       5.114   4.095  17.445  0.00  0.00    +0.000 N 
ATOM     14  C   UNL     1       3.935   3.293  17.122  0.00  0.00    +0.000 C 
ENDROOT
BRANCH   1  15
ATOM     15  C   UNL     1       1.730   7.106  17.944  0.00  0.00    +0.000 C 
BRANCH  15  16
ATOM     16  C   UNL     1       2.280   8.386  18.599  0.00  0.00    +0.000 C 
BRANCH  16  21
ATOM     17  C   UNL     1      -0.982  10.668  22.842  0.00  0.00    +0.000 C 
ATOM     18  C   UNL     1      -0.177  10.047  21.742  0.00  0.00    +0.000 A 
ATOM     19  C   UNL     1       0.598   8.907  21.973  0.00  0.00    +0.000 A 
ATOM     20  C   UNL     1       1.367   8.357  20.948  0.00  0.00    +0.000 A 
ATOM     21  C   UNL     1       1.383   8.942  19.676  0.00  0.00    +0.000 A 
ATOM     22  C   UNL     1       0.593  10.069  19.436  0.00  0.00    +0.000 A 
ATOM     23  C   UNL     1      -0.180  10.617  20.462  0.00  0.00    +0.000 A 
ENDBRANCH  16  21
ENDBRANCH  15  16
ENDBRANCH   1  15
TORSDOF 3
ENDMDL
MODEL 9
REMARK VINA RESULT:      -7.6      2.352      4.062
REMARK  Name = 
REMARK  4 active torsions:
REMARK  status: ('A' for Active; 'I' for Inactive)
REMARK    1  A    between atoms: C_1  and  C_2
REMARK    2  A    between atoms: C_5  and  C_6
REMARK    3  A    between atoms: C_6  and  C_7
REMARK    4  A    between atoms: C_7  and  N_8
REMARK                            x       y       z     vdW  Elec       q    Type
REMARK                         _______ _______ _______ _____ _____    ______ ____
ROOT
ATOM      1  N   UNL     1       2.779   5.259  19.242  0.00  0.00    +0.000 NA
ATOM      2  C   UNL     1       2.199   4.482  18.136  0.00  0.00    +0.000 C 
ATOM      3  C   UNL     1       3.243   3.692  17.312  0.00  0.00    +0.000 C 
ATOM      4  C   UNL     1       4.072   2.795  18.224  0.00  0.00    +0.000 C 
ATOM      5  C   UNL     1       4.761   3.707  19.234  0.00  0.00    +0.000 C 
ATOM      6  C   UNL     1       3.676   4.432  20.068  0.00  0.00    +0.000 C 
ATOM      7  C   UNL     1       5.651   4.732  18.550  0.00  0.00    +0.000 A 
ATOM      8  C   UNL     1       6.734   5.233  19.172  0.00  0.00    +0.000 A 
ATOM      9  C   UNL     1       7.509   6.285  18.571  0.00  0.00    +0.000 A 
ATOM     10  C   UNL     1       7.171   6.779  17.376  0.00  0.00    +0.000 A 
ATOM     11  C   UNL     1       6.012   6.216  16.636  0.00  0.00    +0.000 A 
ATOM     12  O   UNL     1       5.757   6.649  15.515  0.00  0.00    +0.000 OA
ATOM     13  N   UNL     1       5.294   5.206  17.283  0.00  0.00    +0.000 N 
ATOM     14  C   UNL     1       4.193   4.608  16.530  0.00  0.00    +0.000 C 
ENDROOT
BRANCH   1  15
ATOM     15  C   UNL     1       1.733   5.940  20.030  0.00  0.00    +0.000 C 
BRANCH  15  16
ATOM     16  C   UNL     1       2.167   7.324  20.544  0.00  0.00    +0.000 C 
BRANCH  16  21
ATOM     17  C   UNL     1      -0.840  11.863  18.492  0.00  0.00    +0.000 C 
ATOM     18  C   UNL     1      -0.104  10.665  19.011  0.00  0.00    +0.000 A 
ATOM     19  C   UNL     1      -0.316  10.198  20.311  0.00  0.00    +0.000 A 
ATOM     20  C   UNL     1       0.399   9.102  20.793  0.00  0.00    +0.000 A 
ATOM     21  C   UNL     1       1.345   8.458  19.986  0.00  0.00    +0.000 A 
ATOM     22  C   UNL     1       1.543   8.909  18.679  0.00  0.00    +0.000 A 
ATOM     23  C   UNL     1       0.825  10.004  18.196  0.00  0.00    +0.000 A 
ENDBRANCH  16  21
ENDBRANCH  15  16
ENDBRANCH   1  15
TORSDOF 3
ENDMDL
