MODEL 1
REMARK VINA RESULT:      -8.0      0.000      0.000
REMARK  Name = 
REMARK  6 active torsions:
REMARK  status: ('A' for Active; 'I' for Inactive)
REMARK    1  A    between atoms: C_1  and  N_2
REMARK    2  A    between atoms: N_2  and  C_3
REMARK    3  A    between atoms: C_7  and  N_8
REMARK    4  A    between atoms: C_11  and  N_12
REMARK    5  A    between atoms: C_13  and  C_14
REMARK    6  A    between atoms: C_14  and  C_16
REMARK                            x       y       z     vdW  Elec       q    Type
REMARK                         _______ _______ _______ _____ _____    ______ ____
ROOT
ATOM      1  N   UNL     1       8.133   9.668  17.930  0.00  0.00    +0.000 N 
ATOM      2  C   UNL     1       7.886   8.348  18.094  0.00  0.00    +0.000 A 
ATOM      3  N   UNL     1       8.361   7.578  19.040  0.00  0.00    +0.000 NA
ATOM      4  C   UNL     1       7.979   6.288  18.859  0.00  0.00    +0.000 A 
ATOM      5  C   UNL     1       7.141   6.043  17.793  0.00  0.00    +0.000 A 
ATOM      6  S   UNL     1       6.880   7.527  16.959  0.00  0.00    +0.000 S 
ATOM      7  H   UNL     1       7.695  10.109  17.129  0.00  0.00    +0.000 HD
ENDROOT
BRANCH   1  12
ATOM      8  C   UNL     1      11.303  11.698  18.227  0.00  0.00    +0.000 A 
ATOM      9  C   UNL     1      11.308  11.875  19.613  0.00  0.00    +0.000 A 
ATOM     10  C   UNL     1      10.339  11.282  20.421  0.00  0.00    +0.000 A 
ATOM     11  C   UNL     1       9.321  10.527  19.843  0.00  0.00    +0.000 A 
ATOM     12  C   UNL     1       9.230  10.389  18.452  0.00  0.00    +0.000 A 
ATOM     13  C   UNL     1      10.228  10.994  17.664  0.00  0.00    +0.000 A 
BRANCH   8  15
ATOM     14  C   UNL     1      12.333  13.790  17.465  0.00  0.00    +0.000 C 
ATOM     15  N   UNL     1      12.297  12.337  17.468  0.00  0.00    +0.000 N 
ATOM     16  H   UNL     1      12.330  11.957  16.525  0.00  0.00    +0.000 HD
ENDBRANCH   8  15
ENDBRANCH   1  12
BRANCH   4  17
ATOM     17  N   UNL     1       8.478   5.435  19.763  0.00  0.00    +0.000 N 
ATOM     18  H   UNL     1       8.179   5.568  20.725  0.00  0.00    +0.000 HD
ATOM     19  H   UNL     1       9.387   4.993  19.680  0.00  0.00    +0.000 HD
ENDBRANCH   4  17
BRANCH   5  20
ATOM     20  C   UNL     1       6.503   4.840  17.297  0.00  0.00    +0.000 C 
ATOM     21  O   UNL     1       7.035   4.073  16.493  0.00  0.00    +0.000 OA
BRANCH  20  22
ATOM     22  C   UNL     1       5.136   4.478  17.760  0.00  0.00    +0.000 A 
ATOM     23  C   UNL     1       4.262   3.854  16.853  0.00  0.00    +0.000 A 
ATOM     24  C   UNL     1       2.985   3.470  17.258  0.00  0.00    +0.000 A 
ATOM     25  C   UNL     1       2.572   3.700  18.567  0.00  0.00    +0.000 A 
ATOM     26  C   UNL     1       3.428   4.343  19.453  0.00  0.00    +0.000 A 
ATOM     27  F   UNL     1       3.031   4.557  20.715  0.00  0.00    +0.000 F 
ATOM     28  C   UNL     1       4.693   4.754  19.059  0.00  0.00    +0.000 A 
ENDBRANCH  20  22
ENDBRANCH   5  20
TORSDOF 5
ENDMDL
MODEL 2
REMARK VINA RESULT:      -7.9      0.940      1.361
REMARK  Name = 
REMARK  6 active torsions:
REMARK  status: ('A' for Active; 'I' for Inactive)
REMARK    1  A    between atoms: C_1  and  N_2
REMARK    2  A    between atoms: N_2  and  C_3
REMARK    3  A    between atoms: C_7  and  N_8
REMARK    4  A    between atoms: C_11  and  N_12
REMARK    5  A    between atoms: C_13  and  C_14
REMARK    6  A    between atoms: C_14  and  C_16
REMARK                            x       y       z     vdW  Elec       q    Type
REMARK                         _______ _______ _______ _____ _____    ______ ____
ROOT
ATOM      1  N   UNL     1       8.212   9.719  17.963  0.00  0.00    +0.000 N 
ATOM      2  C   UNL     1       7.975   8.398  18.134  0.00  0.00    +0.000 A 
ATOM      3  N   UNL     1       8.448   7.639  19.091  0.00  0.00    +0.000 NA
ATOM      4  C   UNL     1       8.080   6.345  18.917  0.00  0.00    +0.000 A 
ATOM      5  C   UNL     1       7.254   6.083  17.845  0.00  0.00    +0.000 A 
ATOM      6  S   UNL     1       6.988   7.558  16.996  0.00  0.00    +0.000 S 
ATOM      7  H   UNL     1       7.778  10.149  17.154  0.00  0.00    +0.000 HD
ENDROOT
BRANCH   1  12
ATOM      8  C   UNL     1      11.349  11.796  18.273  0.00  0.00    +0.000 A 
ATOM      9  C   UNL     1      11.350  11.965  19.660  0.00  0.00    +0.000 A 
ATOM     10  C   UNL     1      10.391  11.353  20.464  0.00  0.00    +0.000 A 
ATOM     11  C   UNL     1       9.385  10.585  19.881  0.00  0.00    +0.000 A 
ATOM     12  C   UNL     1       9.297  10.454  18.490  0.00  0.00    +0.000 A 
ATOM     13  C   UNL     1      10.286  11.078  17.706  0.00  0.00    +0.000 A 
BRANCH   8  15
ATOM     14  C   UNL     1      11.913  13.507  16.607  0.00  0.00    +0.000 C 
ATOM     15  N   UNL     1      12.333  12.455  17.519  0.00  0.00    +0.000 N 
ATOM     16  H   UNL     1      12.947  11.784  17.063  0.00  0.00    +0.000 HD
ENDBRANCH   8  15
ENDBRANCH   1  12
BRANCH   4  17
ATOM     17  N   UNL     1       8.578   5.503  19.832  0.00  0.00    +0.000 N 
ATOM     18  H   UNL     1       9.454   5.775  20.269  0.00  0.00    +0.000 HD
ATOM     19  H   UNL     1       8.429   4.500  19.815  0.00  0.00    +0.000 HD
ENDBRANCH   4  17
BRANCH   5  20
ATOM     20  C   UNL     1       6.633   4.871  17.351  0.00  0.00    +0.000 C 
ATOM     21  O   UNL     1       7.169   4.116  16.539  0.00  0.00    +0.000 OA
BRANCH  20  22
ATOM     22  C   UNL     1       5.278   4.482  17.829  0.00  0.00    +0.000 A 
ATOM     23  C   UNL     1       4.906   4.820  19.141  0.00  0.00    +0.000 A 
ATOM     24  C   UNL     1       3.633   4.504  19.615  0.00  0.00    +0.000 A 
ATOM     25  C   UNL     1       2.724   3.853  18.786  0.00  0.00    +0.000 A 
ATOM     26  C   UNL     1       3.106   3.495  17.499  0.00  0.00    +0.000 A 
ATOM     27  F   UNL     1       2.227   2.874  16.699  0.00  0.00    +0.000 F 
ATOM     28  C   UNL     1       4.376   3.780  17.020  0.00  0.00    +0.000 A 
ENDBRANCH  20  22
ENDBRANCH   5  20
TORSDOF 5
ENDMDL
MODEL 3
REMARK VINA RESULT:      -7.8      5.727      7.370
REMARK  Name = 
REMARK  6 active torsions:
REMARK  status: ('A' for Active; 'I' for Inactive)
REMARK    1  A    between atoms: C_1  and  N_2
REMARK    2  A    between atoms: N_2  and  C_3
REMARK    3  A    between atoms: C_7  and  N_8
REMARK    4  A    between atoms: C_11  and  N_12
REMARK    5  A    between atoms: C_13  and  C_14
REMARK    6  A    between atoms: C_14  and  C_16
REMARK                            x       y       z     vdW  Elec       q    Type
REMARK                         _______ _______ _______ _____ _____    ______ ____
ROOT
ATOM      1  N   UNL     1       2.936   7.554  17.580  0.00  0.00    +0.000 N 
ATOM      2  C   UNL     1       3.886   6.592  17.515  0.00  0.00    +0.000 A 
ATOM      3  N   UNL     1       4.072   5.621  18.373  0.00  0.00    +0.000 NA
ATOM      4  C   UNL     1       5.165   4.884  18.049  0.00  0.00    +0.000 A 
ATOM      5  C   UNL     1       5.818   5.237  16.887  0.00  0.00    +0.000 A 
ATOM      6  S   UNL     1       5.021   6.609  16.216  0.00  0.00    +0.000 S 
ATOM      7  H   UNL     1       2.946   8.243  16.838  0.00  0.00    +0.000 HD
ENDROOT
BRANCH   1  12
ATOM      8  C   UNL     1       0.854   9.552  20.014  0.00  0.00    +0.000 A 
ATOM      9  C   UNL     1       0.808   8.625  21.059  0.00  0.00    +0.000 A 
ATOM     10  C   UNL     1       1.502   7.418  20.986  0.00  0.00    +0.000 A 
ATOM     11  C   UNL     1       2.227   7.104  19.839  0.00  0.00    +0.000 A 
ATOM     12  C   UNL     1       2.237   7.966  18.736  0.00  0.00    +0.000 A 
ATOM     13  C   UNL     1       1.532   9.181  18.844  0.00  0.00    +0.000 A 
BRANCH   8  15
ATOM     14  C   UNL     1      -1.099  10.886  19.361  0.00  0.00    +0.000 C 
ATOM     15  N   UNL     1       0.118  10.741  20.143  0.00  0.00    +0.000 N 
ATOM     16  H   UNL     1       0.725  11.552  20.051  0.00  0.00    +0.000 HD
ENDBRANCH   8  15
ENDBRANCH   1  12
BRANCH   4  17
ATOM     17  N   UNL     1       5.447   3.905  18.918  0.00  0.00    +0.000 N 
ATOM     18  H   UNL     1       6.398   3.548  18.906  0.00  0.00    +0.000 HD
ATOM     19  H   UNL     1       4.766   3.229  19.245  0.00  0.00    +0.000 HD
ENDBRANCH   4  17
BRANCH   5  20
ATOM     20  C   UNL     1       6.973   4.694  16.201  0.00  0.00    +0.000 C 
ATOM     21  O   UNL     1       7.995   4.327  16.781  0.00  0.00    +0.000 OA
BRANCH  20  22
ATOM     22  C   UNL     1       6.959   4.555  14.719  0.00  0.00    +0.000 A 
ATOM     23  C   UNL     1       7.819   5.368  13.960  0.00  0.00    +0.000 A 
ATOM     24  C   UNL     1       7.860   5.244  12.572  0.00  0.00    +0.000 A 
ATOM     25  C   UNL     1       7.048   4.312  11.932  0.00  0.00    +0.000 A 
ATOM     26  C   UNL     1       6.178   3.531  12.684  0.00  0.00    +0.000 A 
ATOM     27  F   UNL     1       5.402   2.629  12.067  0.00  0.00    +0.000 F 
ATOM     28  C   UNL     1       6.108   3.658  14.063  0.00  0.00    +0.000 A 
ENDBRANCH  20  22
ENDBRANCH   5  20
TORSDOF 5
ENDMDL
MODEL 4
REMARK VINA RESULT:      -7.8      4.808      7.312
REMARK  Name = 
REMARK  6 active torsions:
REMARK  status: ('A' for Active; 'I' for Inactive)
REMARK    1  A    between atoms: C_1  and  N_2
REMARK    2  A    between atoms: N_2  and  C_3
REMARK    3  A    between atoms: C_7  and  N_8
REMARK    4  A    between atoms: C_11  and  N_12
REMARK    5  A    between atoms: C_13  and  C_14
REMARK    6  A    between atoms: C_14  and  C_16
REMARK                            x       y       z     vdW  Elec       q    Type
REMARK                         _______ _______ _______ _____ _____    ______ ____
ROOT
ATOM      1  N   UNL     1       2.940   6.441  18.549  0.00  0.00    +0.000 N 
ATOM      2  C   UNL     1       4.172   6.328  18.000  0.00  0.00    +0.000 A 
ATOM      3  N   UNL     1       5.078   7.269  17.920  0.00  0.00    +0.000 NA
ATOM      4  C   UNL     1       6.169   6.842  17.234  0.00  0.00    +0.000 A 
ATOM      5  C   UNL     1       6.153   5.527  16.819  0.00  0.00    +0.000 A 
ATOM      6  S   UNL     1       4.648   4.832  17.285  0.00  0.00    +0.000 S 
ATOM      7  H   UNL     1       2.356   5.614  18.510  0.00  0.00    +0.000 HD
ENDROOT
BRANCH   1  12
ATOM      8  C   UNL     1       1.000   9.236  20.184  0.00  0.00    +0.000 A 
ATOM      9  C   UNL     1       0.899  10.091  19.083  0.00  0.00    +0.000 A 
ATOM     10  C   UNL     1       1.390   9.720  17.833  0.00  0.00    +0.000 A 
ATOM     11  C   UNL     1       2.028   8.493  17.675  0.00  0.00    +0.000 A 
ATOM     12  C   UNL     1       2.224   7.639  18.767  0.00  0.00    +0.000 A 
ATOM     13  C   UNL     1       1.709   8.038  20.015  0.00  0.00    +0.000 A 
BRANCH   8  15
ATOM     14  C   UNL     1       1.125   9.175  22.634  0.00  0.00    +0.000 C 
ATOM     15  N   UNL     1       0.500   9.677  21.420  0.00  0.00    +0.000 N 
ATOM     16  H   UNL     1      -0.512   9.587  21.452  0.00  0.00    +0.000 HD
ENDBRANCH   8  15
ENDBRANCH   1  12
BRANCH   4  17
ATOM     17  N   UNL     1       7.115   7.775  17.067  0.00  0.00    +0.000 N 
ATOM     18  H   UNL     1       8.048   7.538  17.394  0.00  0.00    +0.000 HD
ATOM     19  H   UNL     1       6.929   8.771  17.063  0.00  0.00    +0.000 HD
ENDBRANCH   4  17
BRANCH   5  20
ATOM     20  C   UNL     1       7.112   4.706  16.108  0.00  0.00    +0.000 C 
ATOM     21  O   UNL     1       8.026   4.095  16.664  0.00  0.00    +0.000 OA
BRANCH  20  22
ATOM     22  C   UNL     1       7.019   4.567  14.629  0.00  0.00    +0.000 A 
ATOM     23  C   UNL     1       7.830   5.386  13.825  0.00  0.00    +0.000 A 
ATOM     24  C   UNL     1       7.796   5.262  12.436  0.00  0.00    +0.000 A 
ATOM     25  C   UNL     1       6.958   4.323  11.842  0.00  0.00    +0.000 A 
ATOM     26  C   UNL     1       6.136   3.536  12.639  0.00  0.00    +0.000 A 
ATOM     27  F   UNL     1       5.335   2.627  12.065  0.00  0.00    +0.000 F 
ATOM     28  C   UNL     1       6.140   3.663  14.020  0.00  0.00    +0.000 A 
ENDBRANCH  20  22
ENDBRANCH   5  20
TORSDOF 5
ENDMDL
MODEL 5
REMARK VINA RESULT:      -7.7      6.783      9.486
REMARK  Name = 
REMARK  6 active torsions:
REMARK  status: ('A' for Active; 'I' for Inactive)
REMARK    1  A    between atoms: C_1  and  N_2
REMARK    2  A    between atoms: N_2  and  C_3
REMARK    3  A    between atoms: C_7  and  N_8
REMARK    4  A    between atoms: C_11  and  N_12
REMARK    5  A    between atoms: C_13  and  C_14
REMARK    6  A    between atoms: C_14  and  C_16
REMARK                            x       y       z     vdW  Elec       q    Type
REMARK                         _______ _______ _______ _____ _____    ______ ____
ROOT
ATOM      1  N   UNL     1       3.006   6.607  17.898  0.00  0.00    +0.000 N 
ATOM      2  C   UNL     1       2.380   7.546  18.643  0.00  0.00    +0.000 A 
ATOM      3  N   UNL     1       2.026   7.435  19.899  0.00  0.00    +0.000 NA
ATOM      4  C   UNL     1       1.344   8.533  20.314  0.00  0.00    +0.000 A 
ATOM      5  C   UNL     1       1.209   9.552  19.396  0.00  0.00    +0.000 A 
ATOM      6  S   UNL     1       1.944   9.050  17.921  0.00  0.00    +0.000 S 
ATOM      7  H   UNL     1       3.191   6.853  16.932  0.00  0.00    +0.000 HD
ENDROOT
BRANCH   1  12
ATOM      8  C   UNL     1       4.107   3.168  19.001  0.00  0.00    +0.000 A 
ATOM      9  C   UNL     1       2.942   2.464  18.683  0.00  0.00    +0.000 A 
ATOM     10  C   UNL     1       1.865   3.093  18.060  0.00  0.00    +0.000 A 
ATOM     11  C   UNL     1       1.926   4.456  17.778  0.00  0.00    +0.000 A 
ATOM     12  C   UNL     1       3.040   5.217  18.151  0.00  0.00    +0.000 A 
ATOM     13  C   UNL     1       4.115   4.551  18.771  0.00  0.00    +0.000 A 
BRANCH   8  15
ATOM     14  C   UNL     1       4.816   1.626  20.773  0.00  0.00    +0.000 C 
ATOM     15  N   UNL     1       5.149   2.480  19.643  0.00  0.00    +0.000 N 
ATOM     16  H   UNL     1       5.917   3.110  19.860  0.00  0.00    +0.000 HD
ENDBRANCH   8  15
ENDBRANCH   1  12
BRANCH   4  17
ATOM     17  N   UNL     1       0.903   8.462  21.577  0.00  0.00    +0.000 N 
ATOM     18  H   UNL     1       1.432   7.867  22.209  0.00  0.00    +0.000 HD
ATOM     19  H   UNL     1      -0.070   8.567  21.840  0.00  0.00    +0.000 HD
ENDBRANCH   4  17
BRANCH   5  20
ATOM     20  C   UNL     1       0.595  10.863  19.460  0.00  0.00    +0.000 C 
ATOM     21  O   UNL     1       1.198  11.878  19.809  0.00  0.00    +0.000 OA
BRANCH  20  22
ATOM     22  C   UNL     1      -0.838  11.031  19.092  0.00  0.00    +0.000 A 
ATOM     23  C   UNL     1      -1.583  12.036  19.733  0.00  0.00    +0.000 A 
ATOM     24  C   UNL     1      -2.918  12.247  19.392  0.00  0.00    +0.000 A 
ATOM     25  C   UNL     1      -3.518  11.462  18.411  0.00  0.00    +0.000 A 
ATOM     26  C   UNL     1      -2.786  10.450  17.801  0.00  0.00    +0.000 A 
ATOM     27  F   UNL     1      -3.363   9.700  16.851  0.00  0.00    +0.000 F 
ATOM     28  C   UNL     1      -1.464  10.211  18.145  0.00  0.00    +0.000 A 
ENDBRANCH  20  22
ENDBRANCH   5  20
TORSDOF 5
ENDMDL
MODEL 6
REMARK VINA RESULT:      -7.7      6.530      9.511
REMARK  Name = 
REMARK  6 active torsions:
REMARK  status: ('A' for Active; 'I' for Inactive)
REMARK    1  A    between atoms: C_1  and  N_2
REMARK    2  A    between atoms: N_2  and  C_3
REMARK    3  A    between atoms: C_7  and  N_8
REMARK    4  A    between atoms: C_11  and  N_12
REMARK    5  A    between atoms: C_13  and  C_14
REMARK    6  A    between atoms: C_14  and  C_16
REMARK                            x       y       z     vdW  Elec       q    Type
REMARK                         _______ _______ _______ _____ _____    ______ ____
ROOT
ATOM      1  N   UNL     1       3.284   6.946  18.027  0.00  0.00    +0.000 N 
ATOM      2  C   UNL     1       2.465   7.803  18.679  0.00  0.00    +0.000 A 
ATOM      3  N   UNL     1       2.038   7.688  19.911  0.00  0.00    +0.000 NA
ATOM      4  C   UNL     1       1.165   8.680  20.221  0.00  0.00    +0.000 A 
ATOM      5  C   UNL     1       0.945   9.628  19.245  0.00  0.00    +0.000 A 
ATOM      6  S   UNL     1       1.859   9.190  17.853  0.00  0.00    +0.000 S 
ATOM      7  H   UNL     1       3.502   7.180  17.065  0.00  0.00    +0.000 HD
ENDROOT
BRANCH   1  12
ATOM      8  C   UNL     1       2.861   3.219  18.458  0.00  0.00    +0.000 A 
ATOM      9  C   UNL     1       4.130   2.922  18.962  0.00  0.00    +0.000 A 
ATOM     10  C   UNL     1       5.060   3.929  19.217  0.00  0.00    +0.000 A 
ATOM     11  C   UNL     1       4.742   5.254  18.933  0.00  0.00    +0.000 A 
ATOM     12  C   UNL     1       3.513   5.590  18.353  0.00  0.00    +0.000 A 
ATOM     13  C   UNL     1       2.592   4.552  18.115  0.00  0.00    +0.000 A 
BRANCH   8  15
ATOM     14  C   UNL     1       0.636   2.232  18.764  0.00  0.00    +0.000 C 
ATOM     15  N   UNL     1       1.977   2.158  18.207  0.00  0.00    +0.000 N 
ATOM     16  H   UNL     1       2.420   1.264  18.408  0.00  0.00    +0.000 HD
ENDBRANCH   8  15
ENDBRANCH   1  12
BRANCH   4  17
ATOM     17  N   UNL     1       0.645   8.590  21.452  0.00  0.00    +0.000 N 
ATOM     18  H   UNL     1      -0.109   7.920  21.578  0.00  0.00    +0.000 HD
ATOM     19  H   UNL     1       0.611   9.363  22.107  0.00  0.00    +0.000 HD
ENDBRANCH   4  17
BRANCH   5  20
ATOM     20  C   UNL     1       0.133  10.827  19.200  0.00  0.00    +0.000 C 
ATOM     21  O   UNL     1       0.486  11.904  19.682  0.00  0.00    +0.000 OA
BRANCH  20  22
ATOM     22  C   UNL     1      -1.203  10.795  18.545  0.00  0.00    +0.000 A 
ATOM     23  C   UNL     1      -2.228  11.602  19.069  0.00  0.00    +0.000 A 
ATOM     24  C   UNL     1      -3.484  11.625  18.462  0.00  0.00    +0.000 A 
ATOM     25  C   UNL     1      -3.725  10.849  17.332  0.00  0.00    +0.000 A 
ATOM     26  C   UNL     1      -2.718  10.031  16.835  0.00  0.00    +0.000 A 
ATOM     27  F   UNL     1      -2.950   9.290  15.743  0.00  0.00    +0.000 F 
ATOM     28  C   UNL     1      -1.471   9.977  17.440  0.00  0.00    +0.000 A 
ENDBRANCH  20  22
ENDBRANCH   5  20
TORSDOF 5
ENDMDL
MODEL 7
REMARK VINA RESULT:      -7.7      5.866      8.077
REMARK  Name = 
REMARK  6 active torsions:
REMARK  status: ('A' for Active; 'I' for Inactive)
REMARK    1  A    between atoms: C_1  and  N_2
REMARK    2  A    between atoms: N_2  and  C_3
REMARK    3  A    between atoms: C_7  and  N_8
REMARK    4  A    between atoms: C_11  and  N_12
REMARK    5  A    between atoms: C_13  and  C_14
REMARK    6  A    between atoms: C_14  and  C_16
REMARK                            x       y       z     vdW  Elec       q    Type
REMARK                         _______ _______ _______ _____ _____    ______ ____
ROOT
ATOM      1  N   UNL     1       4.527   3.797  18.498  0.00  0.00    +0.000 N 
ATOM      2  C   UNL     1       4.987   4.410  17.383  0.00  0.00    +0.000 A 
ATOM      3  N   UNL     1       4.722   5.633  17.000  0.00  0.00    +0.000 NA
ATOM      4  C   UNL     1       5.279   5.900  15.792  0.00  0.00    +0.000 A 
ATOM      5  C   UNL     1       6.047   4.898  15.239  0.00  0.00    +0.000 A 
ATOM      6  S   UNL     1       6.002   3.538  16.294  0.00  0.00    +0.000 S 
ATOM      7  H   UNL     1       4.819   2.836  18.633  0.00  0.00    +0.000 HD
ENDROOT
BRANCH   1  12
ATOM      8  C   UNL     1       1.991   5.765  20.485  0.00  0.00    +0.000 A 
ATOM      9  C   UNL     1       1.023   4.767  20.633  0.00  0.00    +0.000 A 
ATOM     10  C   UNL     1       1.238   3.476  20.156  0.00  0.00    +0.000 A 
ATOM     11  C   UNL     1       2.420   3.172  19.486  0.00  0.00    +0.000 A 
ATOM     12  C   UNL     1       3.383   4.159  19.245  0.00  0.00    +0.000 A 
ATOM     13  C   UNL     1       3.140   5.452  19.746  0.00  0.00    +0.000 A 
BRANCH   8  15
ATOM     14  C   UNL     1       1.801   8.172  20.053  0.00  0.00    +0.000 C 
ATOM     15  N   UNL     1       1.705   7.050  20.973  0.00  0.00    +0.000 N 
ATOM     16  H   UNL     1       2.210   7.228  21.838  0.00  0.00    +0.000 HD
ENDBRANCH   8  15
ENDBRANCH   1  12
BRANCH   4  17
ATOM     17  N   UNL     1       5.000   7.120  15.314  0.00  0.00    +0.000 N 
ATOM     18  H   UNL     1       4.935   7.206  14.303  0.00  0.00    +0.000 HD
ATOM     19  H   UNL     1       5.269   7.981  15.776  0.00  0.00    +0.000 HD
ENDBRANCH   4  17
BRANCH   5  20
ATOM     20  C   UNL     1       6.815   4.807  14.013  0.00  0.00    +0.000 C 
ATOM     21  O   UNL     1       7.843   5.452  13.807  0.00  0.00    +0.000 OA
BRANCH  20  22
ATOM     22  C   UNL     1       6.370   3.894  12.924  0.00  0.00    +0.000 A 
ATOM     23  C   UNL     1       7.336   3.115  12.264  0.00  0.00    +0.000 A 
ATOM     24  C   UNL     1       6.956   2.224  11.261  0.00  0.00    +0.000 A 
ATOM     25  C   UNL     1       5.614   2.102  10.913  0.00  0.00    +0.000 A 
ATOM     26  C   UNL     1       4.666   2.895  11.547  0.00  0.00    +0.000 A 
ATOM     27  F   UNL     1       3.373   2.771  11.214  0.00  0.00    +0.000 F 
ATOM     28  C   UNL     1       5.030   3.804  12.529  0.00  0.00    +0.000 A 
ENDBRANCH  20  22
ENDBRANCH   5  20
TORSDOF 5
ENDMDL
MODEL 8
REMARK VINA RESULT:      -7.7      6.614      8.961
REMARK  Name = 
REMARK  6 active torsions:
REMARK  status: ('A' for Active; 'I' for Inactive)
REMARK    1  A    between atoms: C_1  and  N_2
REMARK    2  A    between atoms: N_2  and  C_3
REMARK    3  A    between atoms: C_7  and  N_8
REMARK    4  A    between atoms: C_11  and  N_12
REMARK    5  A    between atoms: C_13  and  C_14
REMARK    6  A    between atoms: C_14  and  C_16
REMARK                            x       y       z     vdW  Elec       q    Type
REMARK                         _______ _______ _______ _____ _____    ______ ____
ROOT
ATOM      1  N   UNL     1       3.146   7.611  17.776  0.00  0.00    +0.000 N 
ATOM      2  C   UNL     1       2.292   8.293  18.574  0.00  0.00    +0.000 A 
ATOM      3  N   UNL     1       1.959   7.985  19.802  0.00  0.00    +0.000 NA
ATOM      4  C   UNL     1       1.016   8.836  20.281  0.00  0.00    +0.000 A 
ATOM      5  C   UNL     1       0.644   9.868  19.447  0.00  0.00    +0.000 A 
ATOM      6  S   UNL     1       1.504   9.701  17.964  0.00  0.00    +0.000 S 
ATOM      7  H   UNL     1       3.278   7.982  16.842  0.00  0.00    +0.000 HD
ENDROOT
BRANCH   1  12
ATOM      8  C   UNL     1       5.182   4.462  18.218  0.00  0.00    +0.000 A 
ATOM      9  C   UNL     1       4.132   3.541  18.270  0.00  0.00    +0.000 A 
ATOM     10  C   UNL     1       2.809   3.942  18.092  0.00  0.00    +0.000 A 
ATOM     11  C   UNL     1       2.514   5.289  17.894  0.00  0.00    +0.000 A 
ATOM     12  C   UNL     1       3.525   6.257  17.914  0.00  0.00    +0.000 A 
ATOM     13  C   UNL     1       4.852   5.819  18.088  0.00  0.00    +0.000 A 
BRANCH   8  15
ATOM     14  C   UNL     1       7.575   4.655  17.713  0.00  0.00    +0.000 C 
ATOM     15  N   UNL     1       6.490   3.996  18.423  0.00  0.00    +0.000 N 
ATOM     16  H   UNL     1       6.533   2.985  18.321  0.00  0.00    +0.000 HD
ENDBRANCH   8  15
ENDBRANCH   1  12
BRANCH   4  17
ATOM     17  N   UNL     1       0.587   8.544  21.516  0.00  0.00    +0.000 N 
ATOM     18  H   UNL     1       1.297   8.494  22.242  0.00  0.00    +0.000 HD
ATOM     19  H   UNL     1      -0.229   7.974  21.709  0.00  0.00    +0.000 HD
ENDBRANCH   4  17
BRANCH   5  20
ATOM     20  C   UNL     1      -0.282  10.973  19.598  0.00  0.00    +0.000 C 
ATOM     21  O   UNL     1      -0.056  11.954  20.306  0.00  0.00    +0.000 OA
BRANCH  20  22
ATOM     22  C   UNL     1      -1.582  10.958  18.872  0.00  0.00    +0.000 A 
ATOM     23  C   UNL     1      -2.598  11.831  19.297  0.00  0.00    +0.000 A 
ATOM     24  C   UNL     1      -3.818  11.870  18.623  0.00  0.00    +0.000 A 
ATOM     25  C   UNL     1      -4.032  11.045  17.523  0.00  0.00    +0.000 A 
ATOM     26  C   UNL     1      -3.035  10.163  17.124  0.00  0.00    +0.000 A 
ATOM     27  F   UNL     1      -3.240   9.373  16.061  0.00  0.00    +0.000 F 
ATOM     28  C   UNL     1      -1.825  10.093  17.799  0.00  0.00    +0.000 A 
ENDBRANCH  20  22
ENDBRANCH   5  20
TORSDOF 5
ENDMDL
MODEL 9
REMARK VINA RESULT:      -7.7      5.819      7.851
REMARK  Name = 
REMARK  6 active torsions:
REMARK  status: ('A' for Active; 'I' for Inactive)
REMARK    1  A    between atoms: C_1  and  N_2
REMARK    2  A    between atoms: N_2  and  C_3
REMARK    3  A    between atoms: C_7  and  N_8
REMARK    4  A    between atoms: C_11  and  N_12
REMARK    5  A    between atoms: C_13  and  C_14
REMARK    6  A    between atoms: C_14  and  C_16
REMARK                            x       y       z     vdW  Elec       q    Type
REMARK                         _______ _______ _______ _____ _____    ______ ____
ROOT
ATOM      1  N   UNL     1       1.709   8.328  19.557  0.00  0.00    +0.000 N 
ATOM      2  C   UNL     1       2.188   7.070  19.695  0.00  0.00    +0.000 A 
ATOM      3  N   UNL     1       1.774   6.168  20.549  0.00  0.00    +0.000 NA
ATOM      4  C   UNL     1       2.528   5.041  20.475  0.00  0.00    +0.000 A 
ATOM      5  C   UNL     1       3.510   5.026  19.508  0.00  0.00    +0.000 A 
ATOM      6  S   UNL     1       3.497   6.547  18.701  0.00  0.00    +0.000 S 
ATOM      7  H   UNL     1       2.158   8.903  18.854  0.00  0.00    +0.000 HD
ENDROOT
BRANCH   1  12
ATOM      8  C   UNL     1      -0.613  10.800  21.216  0.00  0.00    +0.000 A 
ATOM      9  C   UNL     1      -0.447  10.385  22.541  0.00  0.00    +0.000 A 
ATOM     10  C   UNL     1       0.455   9.376  22.874  0.00  0.00    +0.000 A 
ATOM     11  C   UNL     1       1.181   8.737  21.873  0.00  0.00    +0.000 A 
ATOM     12  C   UNL     1       0.989   9.064  20.525  0.00  0.00    +0.000 A 
ATOM     13  C   UNL     1       0.078  10.093  20.221  0.00  0.00    +0.000 A 
BRANCH   8  15
ATOM     14  C   UNL     1      -1.996  11.985  19.572  0.00  0.00    +0.000 C 
ATOM     15  N   UNL     1      -1.550  11.810  20.945  0.00  0.00    +0.000 N 
ATOM     16  H   UNL     1      -1.261  12.691  21.363  0.00  0.00    +0.000 HD
ENDBRANCH   8  15
ENDBRANCH   1  12
BRANCH   4  17
ATOM     17  N   UNL     1       2.194   4.096  21.362  0.00  0.00    +0.000 N 
ATOM     18  H   UNL     1       2.472   3.145  21.137  0.00  0.00    +0.000 HD
ATOM     19  H   UNL     1       1.375   4.146  21.958  0.00  0.00    +0.000 HD
ENDBRANCH   4  17
BRANCH   5  20
ATOM     20  C   UNL     1       4.477   4.027  19.100  0.00  0.00    +0.000 C 
ATOM     21  O   UNL     1       4.674   2.981  19.720  0.00  0.00    +0.000 OA
BRANCH  20  22
ATOM     22  C   UNL     1       5.292   4.238  17.872  0.00  0.00    +0.000 A 
ATOM     23  C   UNL     1       6.641   4.605  18.016  0.00  0.00    +0.000 A 
ATOM     24  C   UNL     1       7.446   4.780  16.891  0.00  0.00    +0.000 A 
ATOM     25  C   UNL     1       6.914   4.589  15.619  0.00  0.00    +0.000 A 
ATOM     26  C   UNL     1       5.572   4.255  15.480  0.00  0.00    +0.000 A 
ATOM     27  F   UNL     1       5.064   4.064  14.255  0.00  0.00    +0.000 F 
ATOM     28  C   UNL     1       4.752   4.101  16.588  0.00  0.00    +0.000 A 
ENDBRANCH  20  22
ENDBRANCH   5  20
TORSDOF 5
ENDMDL
