MODEL 1
REMARK VINA RESULT:      -9.6      0.000      0.000
REMARK  Name = 
REMARK  4 active torsions:
REMARK  status: ('A' for Active; 'I' for Inactive)
REMARK    1  A    between atoms: C_1  and  N_2
REMARK    2  A    between atoms: C_6  and  C_8
REMARK    3  A    between atoms: C_12  and  N_13
REMARK    4  A    between atoms: C_18  and  C_19
REMARK                            x       y       z     vdW  Elec       q    Type
REMARK                         _______ _______ _______ _____ _____    ______ ____
ROOT
ATOM      1  C   UNL     1       0.490  11.422  19.370  0.00  0.00    +0.000 A 
ATOM      2  C   UNL     1       0.494  10.683  20.541  0.00  0.00    +0.000 A 
ATOM      3  C   UNL     1       1.049   9.414  20.228  0.00  0.00    +0.000 A 
ATOM      4  C   UNL     1       1.293   8.215  20.926  0.00  0.00    +0.000 A 
ATOM      5  C   UNL     1       1.855   7.118  20.241  0.00  0.00    +0.000 A 
ATOM      6  C   UNL     1       2.219   7.284  18.893  0.00  0.00    +0.000 A 
ATOM      7  C   UNL     1       1.980   8.457  18.175  0.00  0.00    +0.000 A 
ATOM      8  C   UNL     1       1.396   9.486  18.889  0.00  0.00    +0.000 A 
ATOM      9  O   UNL     1       1.093  10.702  18.377  0.00  0.00    +0.000 OA
ENDROOT
BRANCH   1  15
ATOM     10  C   UNL     1       3.559  17.063  20.142  0.00  0.00    +0.000 C 
ATOM     11  N   UNL     1       2.798  16.069  19.391  0.00  0.00    +0.000 NA
ATOM     12  C   UNL     1       1.346  16.232  19.618  0.00  0.00    +0.000 C 
ATOM     13  C   UNL     1       0.512  15.174  18.869  0.00  0.00    +0.000 C 
ATOM     14  N   UNL     1       0.976  13.814  19.146  0.00  0.00    +0.000 N 
ATOM     15  C   UNL     1       0.040  12.775  19.109  0.00  0.00    +0.000 C 
ATOM     16  O   UNL     1      -1.145  13.002  18.857  0.00  0.00    +0.000 OA
ATOM     17  C   UNL     1       2.427  13.647  18.973  0.00  0.00    +0.000 C 
ATOM     18  C   UNL     1       3.206  14.703  19.773  0.00  0.00    +0.000 C 
ENDBRANCH   1  15
BRANCH   5  19
ATOM     19  N   UNL     1       2.057   5.908  20.938  0.00  0.00    +0.000 N 
ATOM     20  C   UNL     1       2.798   4.797  20.519  0.00  0.00    +0.000 A 
ATOM     21  N   UNL     1       2.426   3.603  20.998  0.00  0.00    +0.000 NA
ATOM     22  C   UNL     1       3.020   2.524  20.453  0.00  0.00    +0.000 A 
ATOM     23  C   UNL     1       3.955   2.590  19.448  0.00  0.00    +0.000 A 
ATOM     24  C   UNL     1       4.319   3.852  19.048  0.00  0.00    +0.000 A 
ATOM     25  N   UNL     1       3.765   4.941  19.605  0.00  0.00    +0.000 NA
ATOM     26  H   UNL     1       1.269   5.567  21.470  0.00  0.00    +0.000 HD
BRANCH  24  27
ATOM     27  C   UNL     1       5.291   4.113  17.970  0.00  0.00    +0.000 A 
ATOM     28  C   UNL     1       4.939   4.021  16.621  0.00  0.00    +0.000 A 
ATOM     29  C   UNL     1       5.902   4.257  15.642  0.00  0.00    +0.000 A 
ATOM     30  C   UNL     1       7.198   4.564  16.033  0.00  0.00    +0.000 A 
ATOM     31  C   UNL     1       7.474   4.629  17.388  0.00  0.00    +0.000 A 
ATOM     32  N   UNL     1       6.557   4.425  18.358  0.00  0.00    +0.000 NA
ENDBRANCH  24  27
ENDBRANCH   5  19
TORSDOF 3
ENDMDL
MODEL 2
REMARK VINA RESULT:      -9.1      1.245      1.353
REMARK  Name = 
REMARK  4 active torsions:
REMARK  status: ('A' for Active; 'I' for Inactive)
REMARK    1  A    between atoms: C_1  and  N_2
REMARK    2  A    between atoms: C_6  and  C_8
REMARK    3  A    between atoms: C_12  and  N_13
REMARK    4  A    between atoms: C_18  and  C_19
REMARK                            x       y       z     vdW  Elec       q    Type
REMARK                         _______ _______ _______ _____ _____    ______ ____
ROOT
ATOM      1  C   UNL     1       0.272  11.484  19.314  0.00  0.00    +0.000 A 
ATOM      2  C   UNL     1       0.231  10.748  20.486  0.00  0.00    +0.000 A 
ATOM      3  C   UNL     1       0.872   9.510  20.220  0.00  0.00    +0.000 A 
ATOM      4  C   UNL     1       1.128   8.326  20.940  0.00  0.00    +0.000 A 
ATOM      5  C   UNL     1       1.793   7.259  20.301  0.00  0.00    +0.000 A 
ATOM      6  C   UNL     1       2.243   7.442  18.981  0.00  0.00    +0.000 A 
ATOM      7  C   UNL     1       1.995   8.599  18.243  0.00  0.00    +0.000 A 
ATOM      8  C   UNL     1       1.309   9.598  18.908  0.00  0.00    +0.000 A 
ATOM      9  O   UNL     1       0.980  10.795  18.371  0.00  0.00    +0.000 OA
ENDROOT
BRANCH   1  15
ATOM     10  C   UNL     1       0.161  16.821  22.966  0.00  0.00    +0.000 C 
ATOM     11  N   UNL     1       0.463  16.056  21.760  0.00  0.00    +0.000 NA
ATOM     12  C   UNL     1      -0.700  16.027  20.847  0.00  0.00    +0.000 C 
ATOM     13  C   UNL     1      -0.430  15.195  19.578  0.00  0.00    +0.000 C 
ATOM     14  N   UNL     1       0.070  13.857  19.897  0.00  0.00    +0.000 N 
ATOM     15  C   UNL     1      -0.228  12.812  19.016  0.00  0.00    +0.000 C 
ATOM     16  O   UNL     1      -0.900  13.013  18.002  0.00  0.00    +0.000 OA
ATOM     17  C   UNL     1       1.195  13.865  20.843  0.00  0.00    +0.000 C 
ATOM     18  C   UNL     1       0.854  14.676  22.104  0.00  0.00    +0.000 C 
ENDBRANCH   1  15
BRANCH   5  19
ATOM     19  N   UNL     1       2.008   6.061  21.017  0.00  0.00    +0.000 N 
ATOM     20  C   UNL     1       2.749   4.947  20.609  0.00  0.00    +0.000 A 
ATOM     21  N   UNL     1       2.388   3.760  21.113  0.00  0.00    +0.000 NA
ATOM     22  C   UNL     1       2.981   2.673  20.580  0.00  0.00    +0.000 A 
ATOM     23  C   UNL     1       3.905   2.726  19.564  0.00  0.00    +0.000 A 
ATOM     24  C   UNL     1       4.259   3.982  19.139  0.00  0.00    +0.000 A 
ATOM     25  N   UNL     1       3.706   5.079  19.683  0.00  0.00    +0.000 NA
ATOM     26  H   UNL     1       1.227   5.727  21.563  0.00  0.00    +0.000 HD
BRANCH  24  27
ATOM     27  C   UNL     1       5.219   4.229  18.047  0.00  0.00    +0.000 A 
ATOM     28  C   UNL     1       4.836   4.183  16.704  0.00  0.00    +0.000 A 
ATOM     29  C   UNL     1       5.787   4.403  15.710  0.00  0.00    +0.000 A 
ATOM     30  C   UNL     1       7.102   4.648  16.079  0.00  0.00    +0.000 A 
ATOM     31  C   UNL     1       7.409   4.669  17.429  0.00  0.00    +0.000 A 
ATOM     32  N   UNL     1       6.504   4.480  18.415  0.00  0.00    +0.000 NA
ENDBRANCH  24  27
ENDBRANCH   5  19
TORSDOF 3
ENDMDL
MODEL 3
REMARK VINA RESULT:      -9.0      0.931      1.038
REMARK  Name = 
REMARK  4 active torsions:
REMARK  status: ('A' for Active; 'I' for Inactive)
REMARK    1  A    between atoms: C_1  and  N_2
REMARK    2  A    between atoms: C_6  and  C_8
REMARK    3  A    between atoms: C_12  and  N_13
REMARK    4  A    between atoms: C_18  and  C_19
REMARK                            x       y       z     vdW  Elec       q    Type
REMARK                         _______ _______ _______ _____ _____    ______ ____
ROOT
ATOM      1  C   UNL     1       0.140  11.613  19.600  0.00  0.00    +0.000 A 
ATOM      2  C   UNL     1       0.296  10.808  20.716  0.00  0.00    +0.000 A 
ATOM      3  C   UNL     1       0.935   9.618  20.281  0.00  0.00    +0.000 A 
ATOM      4  C   UNL     1       1.335   8.407  20.879  0.00  0.00    +0.000 A 
ATOM      5  C   UNL     1       1.938   7.409  20.085  0.00  0.00    +0.000 A 
ATOM      6  C   UNL     1       2.185   7.690  18.729  0.00  0.00    +0.000 A 
ATOM      7  C   UNL     1       1.792   8.876  18.110  0.00  0.00    +0.000 A 
ATOM      8  C   UNL     1       1.174   9.802  18.929  0.00  0.00    +0.000 A 
ATOM      9  O   UNL     1       0.728  11.014  18.523  0.00  0.00    +0.000 OA
ENDROOT
BRANCH   1  15
ATOM     10  C   UNL     1       2.853  17.460  20.134  0.00  0.00    +0.000 C 
ATOM     11  N   UNL     1       2.066  16.429  19.464  0.00  0.00    +0.000 NA
ATOM     12  C   UNL     1       0.657  16.468  19.909  0.00  0.00    +0.000 C 
ATOM     13  C   UNL     1      -0.198  15.367  19.250  0.00  0.00    +0.000 C 
ATOM     14  N   UNL     1       0.404  14.042  19.401  0.00  0.00    +0.000 N 
ATOM     15  C   UNL     1      -0.445  12.933  19.462  0.00  0.00    +0.000 C 
ATOM     16  O   UNL     1      -1.669  13.070  19.397  0.00  0.00    +0.000 OA
ATOM     17  C   UNL     1       1.821  13.998  19.011  0.00  0.00    +0.000 C 
ATOM     18  C   UNL     1       2.629  15.091  19.728  0.00  0.00    +0.000 C 
ENDBRANCH   1  15
BRANCH   5  19
ATOM     19  N   UNL     1       2.298   6.183  20.684  0.00  0.00    +0.000 N 
ATOM     20  C   UNL     1       2.942   5.098  20.081  0.00  0.00    +0.000 A 
ATOM     21  N   UNL     1       2.694   3.884  20.591  0.00  0.00    +0.000 NA
ATOM     22  C   UNL     1       3.168   2.831  19.897  0.00  0.00    +0.000 A 
ATOM     23  C   UNL     1       3.865   2.941  18.718  0.00  0.00    +0.000 A 
ATOM     24  C   UNL     1       4.123   4.220  18.290  0.00  0.00    +0.000 A 
ATOM     25  N   UNL     1       3.690   5.284  18.987  0.00  0.00    +0.000 NA
ATOM     26  H   UNL     1       1.645   5.814  21.362  0.00  0.00    +0.000 HD
BRANCH  24  27
ATOM     27  C   UNL     1       4.838   4.528  17.037  0.00  0.00    +0.000 A 
ATOM     28  C   UNL     1       4.831   5.809  16.480  0.00  0.00    +0.000 A 
ATOM     29  C   UNL     1       5.506   6.041  15.283  0.00  0.00    +0.000 A 
ATOM     30  C   UNL     1       6.158   4.986  14.662  0.00  0.00    +0.000 A 
ATOM     31  C   UNL     1       6.114   3.742  15.270  0.00  0.00    +0.000 A 
ATOM     32  N   UNL     1       5.485   3.492  16.439  0.00  0.00    +0.000 NA
ENDBRANCH  24  27
ENDBRANCH   5  19
TORSDOF 3
ENDMDL
MODEL 4
REMARK VINA RESULT:      -8.8      3.666      4.977
REMARK  Name = 
REMARK  4 active torsions:
REMARK  status: ('A' for Active; 'I' for Inactive)
REMARK    1  A    between atoms: C_1  and  N_2
REMARK    2  A    between atoms: C_6  and  C_8
REMARK    3  A    between atoms: C_12  and  N_13
REMARK    4  A    between atoms: C_18  and  C_19
REMARK                            x       y       z     vdW  Elec       q    Type
REMARK                         _______ _______ _______ _____ _____    ______ ____
ROOT
ATOM      1  C   UNL     1      -1.693  11.698  22.553  0.00  0.00    +0.000 A 
ATOM      2  C   UNL     1      -1.486  11.813  21.189  0.00  0.00    +0.000 A 
ATOM      3  C   UNL     1      -0.504  10.850  20.837  0.00  0.00    +0.000 A 
ATOM      4  C   UNL     1       0.173  10.478  19.659  0.00  0.00    +0.000 A 
ATOM      5  C   UNL     1       1.140   9.453  19.712  0.00  0.00    +0.000 A 
ATOM      6  C   UNL     1       1.345   8.786  20.933  0.00  0.00    +0.000 A 
ATOM      7  C   UNL     1       0.695   9.140  22.116  0.00  0.00    +0.000 A 
ATOM      8  C   UNL     1      -0.216  10.174  22.011  0.00  0.00    +0.000 A 
ATOM      9  O   UNL     1      -0.953  10.658  23.038  0.00  0.00    +0.000 OA
ENDROOT
BRANCH   1  15
ATOM     10  C   UNL     1      -0.925  17.433  25.443  0.00  0.00    +0.000 C 
ATOM     11  N   UNL     1      -1.634  16.456  24.623  0.00  0.00    +0.000 NA
ATOM     12  C   UNL     1      -2.453  15.556  25.464  0.00  0.00    +0.000 C 
ATOM     13  C   UNL     1      -3.188  14.484  24.634  0.00  0.00    +0.000 C 
ATOM     14  N   UNL     1      -2.278  13.756  23.750  0.00  0.00    +0.000 N 
ATOM     15  C   UNL     1      -2.582  12.427  23.437  0.00  0.00    +0.000 C 
ATOM     16  O   UNL     1      -3.587  11.883  23.900  0.00  0.00    +0.000 OA
ATOM     17  C   UNL     1      -1.420  14.636  22.944  0.00  0.00    +0.000 C 
ATOM     18  C   UNL     1      -0.684  15.656  23.827  0.00  0.00    +0.000 C 
ENDBRANCH   1  15
BRANCH   5  19
ATOM     19  N   UNL     1       1.844   9.116  18.536  0.00  0.00    +0.000 N 
ATOM     20  C   UNL     1       2.478   7.904  18.241  0.00  0.00    +0.000 A 
ATOM     21  N   UNL     1       3.520   7.953  17.402  0.00  0.00    +0.000 NA
ATOM     22  C   UNL     1       4.238   6.820  17.265  0.00  0.00    +0.000 A 
ATOM     23  C   UNL     1       3.962   5.654  17.939  0.00  0.00    +0.000 A 
ATOM     24  C   UNL     1       2.848   5.671  18.739  0.00  0.00    +0.000 A 
ATOM     25  N   UNL     1       2.099   6.780  18.860  0.00  0.00    +0.000 NA
ATOM     26  H   UNL     1       2.390   9.857  18.120  0.00  0.00    +0.000 HD
BRANCH  24  27
ATOM     27  C   UNL     1       2.413   4.518  19.551  0.00  0.00    +0.000 A 
ATOM     28  C   UNL     1       1.934   3.343  18.966  0.00  0.00    +0.000 A 
ATOM     29  C   UNL     1       1.516   2.292  19.780  0.00  0.00    +0.000 A 
ATOM     30  C   UNL     1       1.571   2.445  21.158  0.00  0.00    +0.000 A 
ATOM     31  C   UNL     1       2.048   3.642  21.664  0.00  0.00    +0.000 A 
ATOM     32  N   UNL     1       2.479   4.669  20.901  0.00  0.00    +0.000 NA
ENDBRANCH  24  27
ENDBRANCH   5  19
TORSDOF 3
ENDMDL
MODEL 5
REMARK VINA RESULT:      -8.7      2.286      9.845
REMARK  Name = 
REMARK  4 active torsions:
REMARK  status: ('A' for Active; 'I' for Inactive)
REMARK    1  A    between atoms: C_1  and  N_2
REMARK    2  A    between atoms: C_6  and  C_8
REMARK    3  A    between atoms: C_12  and  N_13
REMARK    4  A    between atoms: C_18  and  C_19
REMARK                            x       y       z     vdW  Elec       q    Type
REMARK                         _______ _______ _______ _____ _____    ______ ____
ROOT
ATOM      1  C   UNL     1       2.567   7.845  18.318  0.00  0.00    +0.000 A 
ATOM      2  C   UNL     1       1.832   8.876  17.758  0.00  0.00    +0.000 A 
ATOM      3  C   UNL     1       1.014   9.409  18.788  0.00  0.00    +0.000 A 
ATOM      4  C   UNL     1       0.029  10.412  18.884  0.00  0.00    +0.000 A 
ATOM      5  C   UNL     1      -0.606  10.640  20.122  0.00  0.00    +0.000 A 
ATOM      6  C   UNL     1      -0.181   9.903  21.241  0.00  0.00    +0.000 A 
ATOM      7  C   UNL     1       0.785   8.898  21.173  0.00  0.00    +0.000 A 
ATOM      8  C   UNL     1       1.348   8.694  19.927  0.00  0.00    +0.000 A 
ATOM      9  O   UNL     1       2.305   7.776  19.657  0.00  0.00    +0.000 OA
ENDROOT
BRANCH   1  15
ATOM     10  C   UNL     1       3.111   1.407  18.611  0.00  0.00    +0.000 C 
ATOM     11  N   UNL     1       3.033   2.692  17.924  0.00  0.00    +0.000 NA
ATOM     12  C   UNL     1       4.368   3.323  17.831  0.00  0.00    +0.000 C 
ATOM     13  C   UNL     1       4.319   4.702  17.143  0.00  0.00    +0.000 C 
ATOM     14  N   UNL     1       3.322   5.583  17.752  0.00  0.00    +0.000 N 
ATOM     15  C   UNL     1       3.554   6.961  17.728  0.00  0.00    +0.000 C 
ATOM     16  O   UNL     1       4.576   7.421  17.213  0.00  0.00    +0.000 OA
ATOM     17  C   UNL     1       2.001   4.953  17.898  0.00  0.00    +0.000 C 
ATOM     18  C   UNL     1       2.107   3.602  18.624  0.00  0.00    +0.000 C 
ENDBRANCH   1  15
BRANCH   5  19
ATOM     19  N   UNL     1      -1.621  11.618  20.199  0.00  0.00    +0.000 N 
ATOM     20  C   UNL     1      -1.480  13.004  20.070  0.00  0.00    +0.000 A 
ATOM     21  N   UNL     1      -2.375  13.768  20.710  0.00  0.00    +0.000 NA
ATOM     22  C   UNL     1      -2.129  15.092  20.735  0.00  0.00    +0.000 A 
ATOM     23  C   UNL     1      -1.027  15.677  20.158  0.00  0.00    +0.000 A 
ATOM     24  C   UNL     1      -0.186  14.833  19.477  0.00  0.00    +0.000 A 
ATOM     25  N   UNL     1      -0.433  13.514  19.411  0.00  0.00    +0.000 NA
ATOM     26  H   UNL     1      -2.350  11.446  20.878  0.00  0.00    +0.000 HD
BRANCH  24  27
ATOM     27  C   UNL     1       1.054  15.282  18.816  0.00  0.00    +0.000 A 
ATOM     28  C   UNL     1       2.103  14.401  18.540  0.00  0.00    +0.000 A 
ATOM     29  C   UNL     1       3.261  14.882  17.933  0.00  0.00    +0.000 A 
ATOM     30  C   UNL     1       3.352  16.233  17.629  0.00  0.00    +0.000 A 
ATOM     31  C   UNL     1       2.275  17.045  17.941  0.00  0.00    +0.000 A 
ATOM     32  N   UNL     1       1.133  16.604  18.510  0.00  0.00    +0.000 NA
ENDBRANCH  24  27
ENDBRANCH   5  19
TORSDOF 3
ENDMDL
MODEL 6
REMARK VINA RESULT:      -8.7      2.235      9.417
REMARK  Name = 
REMARK  4 active torsions:
REMARK  status: ('A' for Active; 'I' for Inactive)
REMARK    1  A    between atoms: C_1  and  N_2
REMARK    2  A    between atoms: C_6  and  C_8
REMARK    3  A    between atoms: C_12  and  N_13
REMARK    4  A    between atoms: C_18  and  C_19
REMARK                            x       y       z     vdW  Elec       q    Type
REMARK                         _______ _______ _______ _____ _____    ______ ____
ROOT
ATOM      1  C   UNL     1       2.564   6.884  18.846  0.00  0.00    +0.000 A 
ATOM      2  C   UNL     1       2.292   7.801  17.845  0.00  0.00    +0.000 A 
ATOM      3  C   UNL     1       1.635   8.900  18.458  0.00  0.00    +0.000 A 
ATOM      4  C   UNL     1       1.066  10.113  18.021  0.00  0.00    +0.000 A 
ATOM      5  C   UNL     1       0.454  10.967  18.961  0.00  0.00    +0.000 A 
ATOM      6  C   UNL     1       0.496  10.610  20.320  0.00  0.00    +0.000 A 
ATOM      7  C   UNL     1       1.044   9.412  20.779  0.00  0.00    +0.000 A 
ATOM      8  C   UNL     1       1.598   8.598  19.810  0.00  0.00    +0.000 A 
ATOM      9  O   UNL     1       2.185   7.403  20.052  0.00  0.00    +0.000 OA
ENDROOT
BRANCH   1  15
ATOM     10  C   UNL     1       6.657   4.466  14.461  0.00  0.00    +0.000 C 
ATOM     11  N   UNL     1       6.229   4.814  15.813  0.00  0.00    +0.000 NA
ATOM     12  C   UNL     1       5.400   3.739  16.398  0.00  0.00    +0.000 C 
ATOM     13  C   UNL     1       4.897   4.088  17.813  0.00  0.00    +0.000 C 
ATOM     14  N   UNL     1       4.237   5.394  17.852  0.00  0.00    +0.000 N 
ATOM     15  C   UNL     1       3.218   5.591  18.789  0.00  0.00    +0.000 C 
ATOM     16  O   UNL     1       2.881   4.686  19.556  0.00  0.00    +0.000 OA
ATOM     17  C   UNL     1       5.027   6.465  17.228  0.00  0.00    +0.000 C 
ATOM     18  C   UNL     1       5.466   6.077  15.808  0.00  0.00    +0.000 C 
ENDBRANCH   1  15
BRANCH   5  19
ATOM     19  N   UNL     1      -0.150  12.160  18.508  0.00  0.00    +0.000 N 
ATOM     20  C   UNL     1       0.388  13.451  18.535  0.00  0.00    +0.000 A 
ATOM     21  N   UNL     1      -0.479  14.469  18.610  0.00  0.00    +0.000 NA
ATOM     22  C   UNL     1       0.046  15.693  18.820  0.00  0.00    +0.000 A 
ATOM     23  C   UNL     1       1.391  15.934  18.967  0.00  0.00    +0.000 A 
ATOM     24  C   UNL     1       2.216  14.846  18.825  0.00  0.00    +0.000 A 
ATOM     25  N   UNL     1       1.714  13.625  18.580  0.00  0.00    +0.000 NA
ATOM     26  H   UNL     1      -1.145  12.239  18.668  0.00  0.00    +0.000 HD
BRANCH  24  27
ATOM     27  C   UNL     1       3.682  14.915  18.972  0.00  0.00    +0.000 A 
ATOM     28  C   UNL     1       4.536  14.894  17.866  0.00  0.00    +0.000 A 
ATOM     29  C   UNL     1       5.914  14.940  18.062  0.00  0.00    +0.000 A 
ATOM     30  C   UNL     1       6.409  14.987  19.357  0.00  0.00    +0.000 A 
ATOM     31  C   UNL     1       5.502  14.995  20.403  0.00  0.00    +0.000 A 
ATOM     32  N   UNL     1       4.161  14.973  20.243  0.00  0.00    +0.000 NA
ENDBRANCH  24  27
ENDBRANCH   5  19
TORSDOF 3
ENDMDL
MODEL 7
REMARK VINA RESULT:      -8.7      1.325      1.398
REMARK  Name = 
REMARK  4 active torsions:
REMARK  status: ('A' for Active; 'I' for Inactive)
REMARK    1  A    between atoms: C_1  and  N_2
REMARK    2  A    between atoms: C_6  and  C_8
REMARK    3  A    between atoms: C_12  and  N_13
REMARK    4  A    between atoms: C_18  and  C_19
REMARK                            x       y       z     vdW  Elec       q    Type
REMARK                         _______ _______ _______ _____ _____    ______ ____
ROOT
ATOM      1  C   UNL     1       0.032  11.433  19.730  0.00  0.00    +0.000 A 
ATOM      2  C   UNL     1       0.142  10.580  20.815  0.00  0.00    +0.000 A 
ATOM      3  C   UNL     1       0.853   9.434  20.371  0.00  0.00    +0.000 A 
ATOM      4  C   UNL     1       1.257   8.210  20.937  0.00  0.00    +0.000 A 
ATOM      5  C   UNL     1       1.949   7.274  20.141  0.00  0.00    +0.000 A 
ATOM      6  C   UNL     1       2.277   7.629  18.820  0.00  0.00    +0.000 A 
ATOM      7  C   UNL     1       1.882   8.831  18.232  0.00  0.00    +0.000 A 
ATOM      8  C   UNL     1       1.176   9.694  19.049  0.00  0.00    +0.000 A 
ATOM      9  O   UNL     1       0.714  10.908  18.669  0.00  0.00    +0.000 OA
ENDROOT
BRANCH   1  15
ATOM     10  C   UNL     1       1.671  17.095  22.391  0.00  0.00    +0.000 C 
ATOM     11  N   UNL     1       1.325  16.212  21.281  0.00  0.00    +0.000 NA
ATOM     12  C   UNL     1      -0.141  16.121  21.116  0.00  0.00    +0.000 C 
ATOM     13  C   UNL     1      -0.546  15.166  19.975  0.00  0.00    +0.000 C 
ATOM     14  N   UNL     1       0.089  13.854  20.109  0.00  0.00    +0.000 N 
ATOM     15  C   UNL     1      -0.591  12.737  19.614  0.00  0.00    +0.000 C 
ATOM     16  O   UNL     1      -1.699  12.855  19.085  0.00  0.00    +0.000 OA
ATOM     17  C   UNL     1       1.541  13.929  20.325  0.00  0.00    +0.000 C 
ATOM     18  C   UNL     1       1.881  14.863  21.497  0.00  0.00    +0.000 C 
ENDBRANCH   1  15
BRANCH   5  19
ATOM     19  N   UNL     1       2.313   6.032  20.705  0.00  0.00    +0.000 N 
ATOM     20  C   UNL     1       2.940   4.958  20.066  0.00  0.00    +0.000 A 
ATOM     21  N   UNL     1       2.695   3.734  20.553  0.00  0.00    +0.000 NA
ATOM     22  C   UNL     1       3.150   2.694  19.827  0.00  0.00    +0.000 A 
ATOM     23  C   UNL     1       3.825   2.828  18.637  0.00  0.00    +0.000 A 
ATOM     24  C   UNL     1       4.082   4.115  18.233  0.00  0.00    +0.000 A 
ATOM     25  N   UNL     1       3.668   5.165  18.962  0.00  0.00    +0.000 NA
ATOM     26  H   UNL     1       1.671   5.652  21.386  0.00  0.00    +0.000 HD
BRANCH  24  27
ATOM     27  C   UNL     1       4.776   4.448  16.975  0.00  0.00    +0.000 A 
ATOM     28  C   UNL     1       5.483   3.489  16.246  0.00  0.00    +0.000 A 
ATOM     29  C   UNL     1       6.138   3.862  15.074  0.00  0.00    +0.000 A 
ATOM     30  C   UNL     1       6.086   5.187  14.666  0.00  0.00    +0.000 A 
ATOM     31  C   UNL     1       5.373   6.083  15.445  0.00  0.00    +0.000 A 
ATOM     32  N   UNL     1       4.711   5.746  16.573  0.00  0.00    +0.000 NA
ENDBRANCH  24  27
ENDBRANCH   5  19
TORSDOF 3
ENDMDL
MODEL 8
REMARK VINA RESULT:      -8.7      2.124      2.569
REMARK  Name = 
REMARK  4 active torsions:
REMARK  status: ('A' for Active; 'I' for Inactive)
REMARK    1  A    between atoms: C_1  and  N_2
REMARK    2  A    between atoms: C_6  and  C_8
REMARK    3  A    between atoms: C_12  and  N_13
REMARK    4  A    between atoms: C_18  and  C_19
REMARK                            x       y       z     vdW  Elec       q    Type
REMARK                         _______ _______ _______ _____ _____    ______ ____
ROOT
ATOM      1  C   UNL     1       0.003  11.477  19.686  0.00  0.00    +0.000 A 
ATOM      2  C   UNL     1       0.099  10.627  20.775  0.00  0.00    +0.000 A 
ATOM      3  C   UNL     1       0.824   9.485  20.345  0.00  0.00    +0.000 A 
ATOM      4  C   UNL     1       1.226   8.264  20.921  0.00  0.00    +0.000 A 
ATOM      5  C   UNL     1       1.937   7.331  20.139  0.00  0.00    +0.000 A 
ATOM      6  C   UNL     1       2.286   7.686  18.824  0.00  0.00    +0.000 A 
ATOM      7  C   UNL     1       1.895   8.884  18.226  0.00  0.00    +0.000 A 
ATOM      8  C   UNL     1       1.169   9.744  19.029  0.00  0.00    +0.000 A 
ATOM      9  O   UNL     1       0.706  10.954  18.639  0.00  0.00    +0.000 OA
ENDROOT
BRANCH   1  15
ATOM     10  C   UNL     1      -2.615  15.315  24.186  0.00  0.00    +0.000 C 
ATOM     11  N   UNL     1      -1.728  15.012  23.068  0.00  0.00    +0.000 NA
ATOM     12  C   UNL     1      -2.432  15.169  21.777  0.00  0.00    +0.000 C 
ATOM     13  C   UNL     1      -1.535  14.821  20.572  0.00  0.00    +0.000 C 
ATOM     14  N   UNL     1      -0.912  13.505  20.716  0.00  0.00    +0.000 N 
ATOM     15  C   UNL     1      -0.626  12.777  19.557  0.00  0.00    +0.000 C 
ATOM     16  O   UNL     1      -0.900  13.231  18.443  0.00  0.00    +0.000 OA
ATOM     17  C   UNL     1      -0.250  13.313  22.015  0.00  0.00    +0.000 C 
ATOM     18  C   UNL     1      -1.202  13.638  23.177  0.00  0.00    +0.000 C 
ENDBRANCH   1  15
BRANCH   5  19
ATOM     19  N   UNL     1       2.299   6.092  20.712  0.00  0.00    +0.000 N 
ATOM     20  C   UNL     1       2.942   5.020  20.086  0.00  0.00    +0.000 A 
ATOM     21  N   UNL     1       2.695   3.796  20.571  0.00  0.00    +0.000 NA
ATOM     22  C   UNL     1       3.168   2.757  19.855  0.00  0.00    +0.000 A 
ATOM     23  C   UNL     1       3.862   2.892  18.677  0.00  0.00    +0.000 A 
ATOM     24  C   UNL     1       4.118   4.179  18.274  0.00  0.00    +0.000 A 
ATOM     25  N   UNL     1       3.687   5.228  18.994  0.00  0.00    +0.000 NA
ATOM     26  H   UNL     1       1.648   5.710  21.384  0.00  0.00    +0.000 HD
BRANCH  24  27
ATOM     27  C   UNL     1       4.831   4.513  17.026  0.00  0.00    +0.000 A 
ATOM     28  C   UNL     1       4.824   5.806  16.496  0.00  0.00    +0.000 A 
ATOM     29  C   UNL     1       5.496   6.062  15.303  0.00  0.00    +0.000 A 
ATOM     30  C   UNL     1       6.145   5.019  14.658  0.00  0.00    +0.000 A 
ATOM     31  C   UNL     1       6.100   3.763  15.239  0.00  0.00    +0.000 A 
ATOM     32  N   UNL     1       5.474   3.489  16.404  0.00  0.00    +0.000 NA
ENDBRANCH  24  27
ENDBRANCH   5  19
TORSDOF 3
ENDMDL
MODEL 9
REMARK VINA RESULT:      -8.7      3.188      9.819
REMARK  Name = 
REMARK  4 active torsions:
REMARK  status: ('A' for Active; 'I' for Inactive)
REMARK    1  A    between atoms: C_1  and  N_2
REMARK    2  A    between atoms: C_6  and  C_8
REMARK    3  A    between atoms: C_12  and  N_13
REMARK    4  A    between atoms: C_18  and  C_19
REMARK                            x       y       z     vdW  Elec       q    Type
REMARK                         _______ _______ _______ _____ _____    ______ ____
ROOT
ATOM      1  C   UNL     1       2.540   6.150  18.911  0.00  0.00    +0.000 A 
ATOM      2  C   UNL     1       2.132   6.529  20.178  0.00  0.00    +0.000 A 
ATOM      3  C   UNL     1       1.722   7.885  20.093  0.00  0.00    +0.000 A 
ATOM      4  C   UNL     1       1.253   8.860  20.995  0.00  0.00    +0.000 A 
ATOM      5  C   UNL     1       0.965  10.157  20.523  0.00  0.00    +0.000 A 
ATOM      6  C   UNL     1       1.089  10.413  19.146  0.00  0.00    +0.000 A 
ATOM      7  C   UNL     1       1.559   9.469  18.233  0.00  0.00    +0.000 A 
ATOM      8  C   UNL     1       1.859   8.227  18.758  0.00  0.00    +0.000 A 
ATOM      9  O   UNL     1       2.319   7.177  18.037  0.00  0.00    +0.000 OA
ENDROOT
BRANCH   1  15
ATOM     10  C   UNL     1       7.156   4.910  14.553  0.00  0.00    +0.000 C 
ATOM     11  N   UNL     1       6.502   4.783  15.852  0.00  0.00    +0.000 NA
ATOM     12  C   UNL     1       5.462   3.733  15.821  0.00  0.00    +0.000 C 
ATOM     13  C   UNL     1       4.723   3.596  17.167  0.00  0.00    +0.000 C 
ATOM     14  N   UNL     1       4.211   4.882  17.643  0.00  0.00    +0.000 N 
ATOM     15  C   UNL     1       3.050   4.884  18.422  0.00  0.00    +0.000 C 
ATOM     16  O   UNL     1       2.470   3.830  18.695  0.00  0.00    +0.000 OA
ATOM     17  C   UNL     1       5.221   5.951  17.633  0.00  0.00    +0.000 C 
ATOM     18  C   UNL     1       5.895   6.066  16.257  0.00  0.00    +0.000 C 
ENDBRANCH   1  15
BRANCH   5  19
ATOM     19  N   UNL     1       0.535  11.140  21.441  0.00  0.00    +0.000 N 
ATOM     20  C   UNL     1      -0.556  12.006  21.313  0.00  0.00    +0.000 A 
ATOM     21  N   UNL     1      -0.475  13.182  21.949  0.00  0.00    +0.000 NA
ATOM     22  C   UNL     1      -1.440  14.082  21.676  0.00  0.00    +0.000 A 
ATOM     23  C   UNL     1      -2.467  13.859  20.790  0.00  0.00    +0.000 A 
ATOM     24  C   UNL     1      -2.508  12.611  20.220  0.00  0.00    +0.000 A 
ATOM     25  N   UNL     1      -1.576  11.687  20.508  0.00  0.00    +0.000 NA
ATOM     26  H   UNL     1       1.266  11.637  21.930  0.00  0.00    +0.000 HD
BRANCH  24  27
ATOM     27  C   UNL     1      -3.525  12.202  19.233  0.00  0.00    +0.000 A 
ATOM     28  C   UNL     1      -3.186  11.510  18.068  0.00  0.00    +0.000 A 
ATOM     29  C   UNL     1      -4.184  11.167  17.158  0.00  0.00    +0.000 A 
ATOM     30  C   UNL     1      -5.495  11.535  17.426  0.00  0.00    +0.000 A 
ATOM     31  C   UNL     1      -5.753  12.227  18.597  0.00  0.00    +0.000 A 
ATOM     32  N   UNL     1      -4.810  12.556  19.506  0.00  0.00    +0.000 NA
ENDBRANCH  24  27
ENDBRANCH   5  19
TORSDOF 3
ENDMDL
