MODEL 1
REMARK VINA RESULT:      -5.7      0.000      0.000
REMARK  Name = 
REMARK  2 active torsions:
REMARK  status: ('A' for Active; 'I' for Inactive)
REMARK    1  A    between atoms: C_2  and  C_9
REMARK    2  A    between atoms: N_3  and  C_4
REMARK                            x       y       z     vdW  Elec       q    Type
REMARK                         _______ _______ _______ _____ _____    ______ ____
ROOT
ATOM      1  O   UNL     1       5.018   2.991  19.705  0.00  0.00    +0.000 OA
ATOM      2  C   UNL     1       4.411   4.037  19.468  0.00  0.00    +0.000 C 
ATOM      3  N   UNL     1       4.951   4.998  18.632  0.00  0.00    +0.000 N 
ATOM      4  H   UNL     1       4.492   5.896  18.549  0.00  0.00    +0.000 HD
ENDROOT
BRANCH   3   5
ATOM      5  C   UNL     1       6.271   4.796  18.042  0.00  0.00    +0.000 C 
ATOM      6  C   UNL     1       7.343   5.664  18.696  0.00  0.00    +0.000 C 
ATOM      7  C   UNL     1       7.492   6.836  17.744  0.00  0.00    +0.000 C 
ATOM      8  N   UNL     1       7.370   6.238  16.413  0.00  0.00    +0.000 NA
ATOM      9  C   UNL     1       6.331   5.198  16.552  0.00  0.00    +0.000 C 
ATOM     10  H   UNL     1       8.249   5.781  16.171  0.00  0.00    +0.000 HD
ENDBRANCH   3   5
BRANCH   2  11
ATOM     11  C   UNL     1       3.017   4.382  20.066  0.00  0.00    +0.000 C 
ATOM     12  C   UNL     1       1.804   4.274  19.099  0.00  0.00    +0.000 C 
ATOM     13  C   UNL     1       0.990   3.690  20.268  0.00  0.00    +0.000 C 
ATOM     14  C   UNL     1       2.327   3.270  20.907  0.00  0.00    +0.000 C 
ENDBRANCH   2  11
TORSDOF 2
ENDMDL
MODEL 2
REMARK VINA RESULT:      -5.6      1.972      5.530
REMARK  Name = 
REMARK  2 active torsions:
REMARK  status: ('A' for Active; 'I' for Inactive)
REMARK    1  A    between atoms: C_2  and  C_9
REMARK    2  A    between atoms: N_3  and  C_4
REMARK                            x       y       z     vdW  Elec       q    Type
REMARK                         _______ _______ _______ _____ _____    ______ ____
ROOT
ATOM      1  O   UNL     1       5.713   3.920  19.400  0.00  0.00    +0.000 OA
ATOM      2  C   UNL     1       5.037   4.214  18.413  0.00  0.00    +0.000 C 
ATOM      3  N   UNL     1       3.680   3.944  18.375  0.00  0.00    +0.000 N 
ATOM      4  H   UNL     1       3.172   4.085  17.511  0.00  0.00    +0.000 HD
ENDROOT
BRANCH   3   5
ATOM      5  C   UNL     1       3.036   3.273  19.500  0.00  0.00    +0.000 C 
ATOM      6  C   UNL     1       2.242   2.043  19.070  0.00  0.00    +0.000 C 
ATOM      7  C   UNL     1       0.810   2.537  19.008  0.00  0.00    +0.000 C 
ATOM      8  N   UNL     1       0.693   3.449  20.148  0.00  0.00    +0.000 NA
ATOM      9  C   UNL     1       1.987   4.158  20.207  0.00  0.00    +0.000 C 
ATOM     10  H   UNL     1       0.589   2.903  21.003  0.00  0.00    +0.000 HD
ENDBRANCH   3   5
BRANCH   2  11
ATOM     11  C   UNL     1       5.615   4.897  17.141  0.00  0.00    +0.000 C 
ATOM     12  C   UNL     1       7.100   4.581  16.801  0.00  0.00    +0.000 C 
ATOM     13  C   UNL     1       6.699   4.543  15.316  0.00  0.00    +0.000 C 
ATOM     14  C   UNL     1       5.262   4.237  15.777  0.00  0.00    +0.000 C 
ENDBRANCH   2  11
TORSDOF 2
ENDMDL
MODEL 3
REMARK VINA RESULT:      -5.6      1.410      2.027
REMARK  Name = 
REMARK  2 active torsions:
REMARK  status: ('A' for Active; 'I' for Inactive)
REMARK    1  A    between atoms: C_2  and  C_9
REMARK    2  A    between atoms: N_3  and  C_4
REMARK                            x       y       z     vdW  Elec       q    Type
REMARK                         _______ _______ _______ _____ _____    ______ ____
ROOT
ATOM      1  O   UNL     1       4.090   5.501  19.774  0.00  0.00    +0.000 OA
ATOM      2  C   UNL     1       3.792   4.533  19.074  0.00  0.00    +0.000 C 
ATOM      3  N   UNL     1       4.460   4.279  17.888  0.00  0.00    +0.000 N 
ATOM      4  H   UNL     1       4.119   3.551  17.274  0.00  0.00    +0.000 HD
ENDROOT
BRANCH   3   5
ATOM      5  C   UNL     1       5.513   5.183  17.435  0.00  0.00    +0.000 C 
ATOM      6  C   UNL     1       5.529   5.347  15.918  0.00  0.00    +0.000 C 
ATOM      7  C   UNL     1       6.632   4.411  15.463  0.00  0.00    +0.000 C 
ATOM      8  N   UNL     1       7.667   4.545  16.490  0.00  0.00    +0.000 NA
ATOM      9  C   UNL     1       6.931   4.667  17.764  0.00  0.00    +0.000 C 
ATOM     10  H   UNL     1       8.181   5.412  16.334  0.00  0.00    +0.000 HD
ENDBRANCH   3   5
BRANCH   2  11
ATOM     11  C   UNL     1       2.665   3.521  19.431  0.00  0.00    +0.000 C 
ATOM     12  C   UNL     1       2.762   2.844  20.828  0.00  0.00    +0.000 C 
ATOM     13  C   UNL     1       1.233   2.974  20.941  0.00  0.00    +0.000 C 
ATOM     14  C   UNL     1       1.319   4.127  19.923  0.00  0.00    +0.000 C 
ENDBRANCH   2  11
TORSDOF 2
ENDMDL
MODEL 4
REMARK VINA RESULT:      -5.6      1.521      2.100
REMARK  Name = 
REMARK  2 active torsions:
REMARK  status: ('A' for Active; 'I' for Inactive)
REMARK    1  A    between atoms: C_2  and  C_9
REMARK    2  A    between atoms: N_3  and  C_4
REMARK                            x       y       z     vdW  Elec       q    Type
REMARK                         _______ _______ _______ _____ _____    ______ ____
ROOT
ATOM      1  O   UNL     1       3.893   5.440  19.538  0.00  0.00    +0.000 OA
ATOM      2  C   UNL     1       3.814   4.366  18.941  0.00  0.00    +0.000 C 
ATOM      3  N   UNL     1       4.658   4.077  17.883  0.00  0.00    +0.000 N 
ATOM      4  H   UNL     1       4.496   3.242  17.334  0.00  0.00    +0.000 HD
ENDROOT
BRANCH   3   5
ATOM      5  C   UNL     1       5.638   5.064  17.439  0.00  0.00    +0.000 C 
ATOM      6  C   UNL     1       5.567   5.323  15.937  0.00  0.00    +0.000 C 
ATOM      7  C   UNL     1       6.692   4.479  15.368  0.00  0.00    +0.000 C 
ATOM      8  N   UNL     1       7.770   4.606  16.351  0.00  0.00    +0.000 NA
ATOM      9  C   UNL     1       7.096   4.607  17.664  0.00  0.00    +0.000 C 
ATOM     10  H   UNL     1       8.230   5.508  16.226  0.00  0.00    +0.000 HD
ENDBRANCH   3   5
BRANCH   2  11
ATOM     11  C   UNL     1       2.788   3.252  19.296  0.00  0.00    +0.000 C 
ATOM     12  C   UNL     1       1.329   3.717  19.569  0.00  0.00    +0.000 C 
ATOM     13  C   UNL     1       0.844   2.461  18.823  0.00  0.00    +0.000 C 
ATOM     14  C   UNL     1       2.206   2.437  18.105  0.00  0.00    +0.000 C 
ENDBRANCH   2  11
TORSDOF 2
ENDMDL
MODEL 5
REMARK VINA RESULT:      -5.5      2.081      2.604
REMARK  Name = 
REMARK  2 active torsions:
REMARK  status: ('A' for Active; 'I' for Inactive)
REMARK    1  A    between atoms: C_2  and  C_9
REMARK    2  A    between atoms: N_3  and  C_4
REMARK                            x       y       z     vdW  Elec       q    Type
REMARK                         _______ _______ _______ _____ _____    ______ ____
ROOT
ATOM      1  O   UNL     1       1.174   4.204  17.238  0.00  0.00    +0.000 OA
ATOM      2  C   UNL     1       1.765   4.155  18.318  0.00  0.00    +0.000 C 
ATOM      3  N   UNL     1       3.085   4.555  18.425  0.00  0.00    +0.000 N 
ATOM      4  H   UNL     1       3.582   4.394  19.291  0.00  0.00    +0.000 HD
ENDROOT
BRANCH   3   5
ATOM      5  C   UNL     1       3.808   5.013  17.242  0.00  0.00    +0.000 C 
ATOM      6  C   UNL     1       4.907   4.044  16.817  0.00  0.00    +0.000 C 
ATOM      7  C   UNL     1       6.173   4.655  17.387  0.00  0.00    +0.000 C 
ATOM      8  N   UNL     1       5.991   6.096  17.204  0.00  0.00    +0.000 NA
ATOM      9  C   UNL     1       4.561   6.342  17.475  0.00  0.00    +0.000 C 
ATOM     10  H   UNL     1       6.177   6.335  16.230  0.00  0.00    +0.000 HD
ENDBRANCH   3   5
BRANCH   2  11
ATOM     11  C   UNL     1       1.113   3.651  19.638  0.00  0.00    +0.000 C 
ATOM     12  C   UNL     1       1.583   2.261  20.153  0.00  0.00    +0.000 C 
ATOM     13  C   UNL     1       1.532   2.831  21.582  0.00  0.00    +0.000 C 
ATOM     14  C   UNL     1       1.688   4.232  20.962  0.00  0.00    +0.000 C 
ENDBRANCH   2  11
TORSDOF 2
ENDMDL
MODEL 6
REMARK VINA RESULT:      -5.5      1.676      2.124
REMARK  Name = 
REMARK  2 active torsions:
REMARK  status: ('A' for Active; 'I' for Inactive)
REMARK    1  A    between atoms: C_2  and  C_9
REMARK    2  A    between atoms: N_3  and  C_4
REMARK                            x       y       z     vdW  Elec       q    Type
REMARK                         _______ _______ _______ _____ _____    ______ ____
ROOT
ATOM      1  O   UNL     1       3.554   5.642  19.458  0.00  0.00    +0.000 OA
ATOM      2  C   UNL     1       3.253   4.962  18.475  0.00  0.00    +0.000 C 
ATOM      3  N   UNL     1       4.124   4.833  17.407  0.00  0.00    +0.000 N 
ATOM      4  H   UNL     1       3.808   4.370  16.564  0.00  0.00    +0.000 HD
ENDROOT
BRANCH   3   5
ATOM      5  C   UNL     1       5.405   5.532  17.419  0.00  0.00    +0.000 C 
ATOM      6  C   UNL     1       5.862   5.941  16.022  0.00  0.00    +0.000 C 
ATOM      7  C   UNL     1       6.859   4.866  15.636  0.00  0.00    +0.000 C 
ATOM      8  N   UNL     1       7.583   4.583  16.876  0.00  0.00    +0.000 NA
ATOM      9  C   UNL     1       6.564   4.655  17.942  0.00  0.00    +0.000 C 
ATOM     10  H   UNL     1       8.268   5.321  17.039  0.00  0.00    +0.000 HD
ENDBRANCH   3   5
BRANCH   2  11
ATOM     11  C   UNL     1       1.905   4.201  18.330  0.00  0.00    +0.000 C 
ATOM     12  C   UNL     1       1.999   2.683  18.005  0.00  0.00    +0.000 C 
ATOM     13  C   UNL     1       0.814   2.457  18.960  0.00  0.00    +0.000 C 
ATOM     14  C   UNL     1       1.199   3.779  19.651  0.00  0.00    +0.000 C 
ENDBRANCH   2  11
TORSDOF 2
ENDMDL
MODEL 7
REMARK VINA RESULT:      -5.5      2.065      5.308
REMARK  Name = 
REMARK  2 active torsions:
REMARK  status: ('A' for Active; 'I' for Inactive)
REMARK    1  A    between atoms: C_2  and  C_9
REMARK    2  A    between atoms: N_3  and  C_4
REMARK                            x       y       z     vdW  Elec       q    Type
REMARK                         _______ _______ _______ _____ _____    ______ ____
ROOT
ATOM      1  O   UNL     1       5.556   3.663  19.436  0.00  0.00    +0.000 OA
ATOM      2  C   UNL     1       4.847   4.487  18.856  0.00  0.00    +0.000 C 
ATOM      3  N   UNL     1       3.476   4.503  19.044  0.00  0.00    +0.000 N 
ATOM      4  H   UNL     1       2.905   5.108  18.468  0.00  0.00    +0.000 HD
ENDROOT
BRANCH   3   5
ATOM      5  C   UNL     1       2.846   3.515  19.914  0.00  0.00    +0.000 C 
ATOM      6  C   UNL     1       2.341   2.297  19.146  0.00  0.00    +0.000 C 
ATOM      7  C   UNL     1       0.858   2.564  18.973  0.00  0.00    +0.000 C 
ATOM      8  N   UNL     1       0.453   3.182  20.237  0.00  0.00    +0.000 NA
ATOM      9  C   UNL     1       1.582   4.054  20.619  0.00  0.00    +0.000 C 
ATOM     10  H   UNL     1       0.357   2.455  20.947  0.00  0.00    +0.000 HD
ENDBRANCH   3   5
BRANCH   2  11
ATOM     11  C   UNL     1       5.398   5.564  17.878  0.00  0.00    +0.000 C 
ATOM     12  C   UNL     1       5.515   5.145  16.384  0.00  0.00    +0.000 C 
ATOM     13  C   UNL     1       5.038   6.558  16.004  0.00  0.00    +0.000 C 
ATOM     14  C   UNL     1       4.388   6.646  17.397  0.00  0.00    +0.000 C 
ENDBRANCH   2  11
TORSDOF 2
ENDMDL
MODEL 8
REMARK VINA RESULT:      -5.5      1.933      2.547
REMARK  Name = 
REMARK  2 active torsions:
REMARK  status: ('A' for Active; 'I' for Inactive)
REMARK    1  A    between atoms: C_2  and  C_9
REMARK    2  A    between atoms: N_3  and  C_4
REMARK                            x       y       z     vdW  Elec       q    Type
REMARK                         _______ _______ _______ _____ _____    ______ ____
ROOT
ATOM      1  O   UNL     1       2.867   5.955  17.829  0.00  0.00    +0.000 OA
ATOM      2  C   UNL     1       3.336   4.816  17.827  0.00  0.00    +0.000 C 
ATOM      3  N   UNL     1       4.450   4.506  17.067  0.00  0.00    +0.000 N 
ATOM      4  H   UNL     1       4.742   3.541  16.988  0.00  0.00    +0.000 HD
ENDROOT
BRANCH   3   5
ATOM      5  C   UNL     1       5.068   5.527  16.226  0.00  0.00    +0.000 C 
ATOM      6  C   UNL     1       5.563   4.968  14.896  0.00  0.00    +0.000 C 
ATOM      7  C   UNL     1       7.049   4.762  15.118  0.00  0.00    +0.000 C 
ATOM      8  N   UNL     1       7.456   5.911  15.928  0.00  0.00    +0.000 NA
ATOM      9  C   UNL     1       6.335   6.142  16.861  0.00  0.00    +0.000 C 
ATOM     10  H   UNL     1       7.543   6.730  15.325  0.00  0.00    +0.000 HD
ENDBRANCH   3   5
BRANCH   2  11
ATOM     11  C   UNL     1       2.744   3.637  18.651  0.00  0.00    +0.000 C 
ATOM     12  C   UNL     1       1.266   3.789  19.113  0.00  0.00    +0.000 C 
ATOM     13  C   UNL     1       1.071   2.293  18.811  0.00  0.00    +0.000 C 
ATOM     14  C   UNL     1       2.263   2.397  17.842  0.00  0.00    +0.000 C 
ENDBRANCH   2  11
TORSDOF 2
ENDMDL
MODEL 9
REMARK VINA RESULT:      -5.5      2.280      5.496
REMARK  Name = 
REMARK  2 active torsions:
REMARK  status: ('A' for Active; 'I' for Inactive)
REMARK    1  A    between atoms: C_2  and  C_9
REMARK    2  A    between atoms: N_3  and  C_4
REMARK                            x       y       z     vdW  Elec       q    Type
REMARK                         _______ _______ _______ _____ _____    ______ ____
ROOT
ATOM      1  O   UNL     1       5.087   4.721  16.150  0.00  0.00    +0.000 OA
ATOM      2  C   UNL     1       5.058   4.877  17.372  0.00  0.00    +0.000 C 
ATOM      3  N   UNL     1       4.199   4.134  18.163  0.00  0.00    +0.000 N 
ATOM      4  H   UNL     1       4.108   4.364  19.144  0.00  0.00    +0.000 HD
ENDROOT
BRANCH   3   5
ATOM      5  C   UNL     1       3.289   3.172  17.551  0.00  0.00    +0.000 C 
ATOM      6  C   UNL     1       1.834   3.628  17.603  0.00  0.00    +0.000 C 
ATOM      7  C   UNL     1       1.259   2.876  18.788  0.00  0.00    +0.000 C 
ATOM      8  N   UNL     1       1.886   1.555  18.716  0.00  0.00    +0.000 NA
ATOM      9  C   UNL     1       3.273   1.811  18.280  0.00  0.00    +0.000 C 
ATOM     10  H   UNL     1       1.421   1.005  17.995  0.00  0.00    +0.000 HD
ENDBRANCH   3   5
BRANCH   2  11
ATOM     11  C   UNL     1       5.951   5.897  18.134  0.00  0.00    +0.000 C 
ATOM     12  C   UNL     1       7.436   5.488  18.351  0.00  0.00    +0.000 C 
ATOM     13  C   UNL     1       7.826   6.951  18.077  0.00  0.00    +0.000 C 
ATOM     14  C   UNL     1       6.501   7.094  17.307  0.00  0.00    +0.000 C 
ENDBRANCH   2  11
TORSDOF 2
ENDMDL
