MODEL 1
REMARK VINA RESULT:      -7.6      0.000      0.000
REMARK  Name = 
REMARK  11 active torsions:
REMARK  status: ('A' for Active; 'I' for Inactive)
REMARK    1  A    between atoms: C_1  and  C_2
REMARK    2  A    between atoms: C_2  and  C_3
REMARK    3  A    between atoms: C_3  and  O_4
REMARK    4  A    between atoms: C_3  and  C_5
REMARK    5  A    between atoms: C_6  and  C_7
REMARK    6  A    between atoms: C_11  and  C_12
REMARK    7  A    between atoms: C_12  and  C_13
REMARK    8  A    between atoms: C_13  and  C_14
REMARK    9  A    between atoms: C_14  and  C_15
REMARK   10  A    between atoms: C_15  and  O_17
REMARK   11  A    between atoms: C_21  and  O_22
REMARK                            x       y       z     vdW  Elec       q    Type
REMARK                         _______ _______ _______ _____ _____    ______ ____
ROOT
ATOM      1  C   UNL     1       2.239   6.917  20.075  0.00  0.00    +0.000 C 
ATOM      2  C   UNL     1       2.184   6.897  18.526  0.00  0.00    +0.000 C 
ATOM      3  C   UNL     1       3.504   7.294  17.865  0.00  0.00    +0.000 C 
ATOM      4  C   UNL     1       4.247   5.996  17.811  0.00  0.00    +0.000 C 
ATOM      5  C   UNL     1       5.563   5.857  18.046  0.00  0.00    +0.000 C 
ATOM      6  C   UNL     1       3.258   4.891  17.567  0.00  0.00    +0.000 C 
ATOM      7  C   UNL     1       1.933   5.431  18.117  0.00  0.00    +0.000 C 
ATOM      8  C   UNL     1       1.459   4.723  19.388  0.00  0.00    +0.000 C 
ATOM      9  C   UNL     1       2.145   5.450  20.536  0.00  0.00    +0.000 C 
ENDROOT
BRANCH   1  11
ATOM     10  C   UNL     1       0.849   8.988  20.249  0.00  0.00    +0.000 C 
ATOM     11  C   UNL     1       1.077   7.719  20.607  0.00  0.00    +0.000 C 
BRANCH  10  12
ATOM     12  C   UNL     1      -0.268   9.826  20.796  0.00  0.00    +0.000 C 
BRANCH  12  14
ATOM     13  C   UNL     1       0.350  12.262  21.395  0.00  0.00    +0.000 C 
ATOM     14  C   UNL     1      -0.246  11.326  20.326  0.00  0.00    +0.000 C 
ATOM     15  C   UNL     1       0.530  11.539  19.012  0.00  0.00    +0.000 C 
ATOM     16  O   UNL     1       0.018  10.727  17.950  0.00  0.00    +0.000 OA
ATOM     17  C   UNL     1      -1.353  10.751  17.917  0.00  0.00    +0.000 A 
ATOM     18  C   UNL     1      -1.958  10.152  16.815  0.00  0.00    +0.000 A 
ATOM     19  C   UNL     1      -3.350  10.100  16.733  0.00  0.00    +0.000 A 
ATOM     20  C   UNL     1      -4.133  10.661  17.744  0.00  0.00    +0.000 A 
ATOM     21  C   UNL     1      -3.526  11.258  18.851  0.00  0.00    +0.000 A 
ATOM     22  C   UNL     1      -2.137  11.276  18.951  0.00  0.00    +0.000 A 
ATOM     23  O   UNL     1      -1.609  11.773  20.119  0.00  0.00    +0.000 OA
ENDBRANCH  12  14
BRANCH  12  24
ATOM     24  O   UNL     1      -0.180   9.673  22.218  0.00  0.00    +0.000 OA
ATOM     25  H   UNL     1      -0.815  10.267  22.643  0.00  0.00    +0.000 HD
ENDBRANCH  12  24
ENDBRANCH  10  12
ENDBRANCH   1  11
BRANCH   9  26
ATOM     26  O   UNL     1       3.429   4.886  20.795  0.00  0.00    +0.000 OA
ATOM     27  H   UNL     1       3.866   5.407  21.488  0.00  0.00    +0.000 HD
ENDBRANCH   9  26
BRANCH   5  28
ATOM     28  C   UNL     1       6.294   4.548  18.088  0.00  0.00    +0.000 C 
BRANCH  28  29
ATOM     29  C   UNL     1       7.354   4.468  16.992  0.00  0.00    +0.000 C 
BRANCH  29  30
ATOM     30  C   UNL     1       7.059   5.455  15.867  0.00  0.00    +0.000 C 
BRANCH  30  31
ATOM     31  C   UNL     1       7.013   4.774  14.520  0.00  0.00    +0.000 C 
ATOM     32  O   UNL     1       7.476   5.215  13.485  0.00  0.00    +0.000 OA
BRANCH  31  33
ATOM     33  O   UNL     1       6.385   3.573  14.577  0.00  0.00    +0.000 OA
ATOM     34  H   UNL     1       6.112   3.311  15.479  0.00  0.00    +0.000 HD
ENDBRANCH  31  33
ENDBRANCH  30  31
ENDBRANCH  29  30
ENDBRANCH  28  29
ENDBRANCH   5  28
TORSDOF 10
ENDMDL
MODEL 2
REMARK VINA RESULT:      -7.5      6.097      9.278
REMARK  Name = 
REMARK  11 active torsions:
REMARK  status: ('A' for Active; 'I' for Inactive)
REMARK    1  A    between atoms: C_1  and  C_2
REMARK    2  A    between atoms: C_2  and  C_3
REMARK    3  A    between atoms: C_3  and  O_4
REMARK    4  A    between atoms: C_3  and  C_5
REMARK    5  A    between atoms: C_6  and  C_7
REMARK    6  A    between atoms: C_11  and  C_12
REMARK    7  A    between atoms: C_12  and  C_13
REMARK    8  A    between atoms: C_13  and  C_14
REMARK    9  A    between atoms: C_14  and  C_15
REMARK   10  A    between atoms: C_15  and  O_17
REMARK   11  A    between atoms: C_21  and  O_22
REMARK                            x       y       z     vdW  Elec       q    Type
REMARK                         _______ _______ _______ _____ _____    ______ ____
ROOT
ATOM      1  C   UNL     1       7.072   7.615  17.871  0.00  0.00    +0.000 C 
ATOM      2  C   UNL     1       7.753   6.302  18.333  0.00  0.00    +0.000 C 
ATOM      3  C   UNL     1       7.120   5.695  19.585  0.00  0.00    +0.000 C 
ATOM      4  C   UNL     1       6.008   4.866  19.019  0.00  0.00    +0.000 C 
ATOM      5  C   UNL     1       4.785   4.753  19.565  0.00  0.00    +0.000 C 
ATOM      6  C   UNL     1       6.460   4.294  17.706  0.00  0.00    +0.000 C 
ATOM      7  C   UNL     1       7.528   5.274  17.206  0.00  0.00    +0.000 C 
ATOM      8  C   UNL     1       7.094   6.088  15.985  0.00  0.00    +0.000 C 
ATOM      9  C   UNL     1       6.356   7.296  16.546  0.00  0.00    +0.000 C 
ENDROOT
BRANCH   1  11
ATOM     10  C   UNL     1       8.046   9.889  18.234  0.00  0.00    +0.000 C 
ATOM     11  C   UNL     1       8.122   8.680  17.668  0.00  0.00    +0.000 C 
BRANCH  10  12
ATOM     12  C   UNL     1       9.047  10.983  18.014  0.00  0.00    +0.000 C 
BRANCH  12  14
ATOM     13  C   UNL     1       9.298  10.713  20.572  0.00  0.00    +0.000 C 
ATOM     14  C   UNL     1       9.780  11.468  19.318  0.00  0.00    +0.000 C 
ATOM     15  C   UNL     1      11.313  11.339  19.237  0.00  0.00    +0.000 C 
ATOM     16  O   UNL     1      11.851  12.042  18.113  0.00  0.00    +0.000 OA
ATOM     17  C   UNL     1      11.288  13.286  17.983  0.00  0.00    +0.000 A 
ATOM     18  C   UNL     1      11.865  14.135  17.042  0.00  0.00    +0.000 A 
ATOM     19  C   UNL     1      11.319  15.399  16.824  0.00  0.00    +0.000 A 
ATOM     20  C   UNL     1      10.209  15.820  17.559  0.00  0.00    +0.000 A 
ATOM     21  C   UNL     1       9.627  14.968  18.500  0.00  0.00    +0.000 A 
ATOM     22  C   UNL     1      10.149  13.691  18.691  0.00  0.00    +0.000 A 
ATOM     23  O   UNL     1       9.460  12.864  19.545  0.00  0.00    +0.000 OA
ENDBRANCH  12  14
BRANCH  12  24
ATOM     24  O   UNL     1       8.316  12.023  17.353  0.00  0.00    +0.000 OA
ATOM     25  H   UNL     1       8.880  12.805  17.265  0.00  0.00    +0.000 HD
ENDBRANCH  12  24
ENDBRANCH  10  12
ENDBRANCH   1  11
BRANCH   9  26
ATOM     26  O   UNL     1       4.975   6.998  16.739  0.00  0.00    +0.000 OA
ATOM     27  H   UNL     1       4.509   7.116  15.896  0.00  0.00    +0.000 HD
ENDBRANCH   9  26
BRANCH   5  28
ATOM     28  C   UNL     1       3.638   4.004  18.954  0.00  0.00    +0.000 C 
BRANCH  28  29
ATOM     29  C   UNL     1       2.297   4.585  19.395  0.00  0.00    +0.000 C 
BRANCH  29  30
ATOM     30  C   UNL     1       2.101   4.436  20.902  0.00  0.00    +0.000 C 
BRANCH  30  31
ATOM     31  C   UNL     1       1.348   3.174  21.247  0.00  0.00    +0.000 C 
ATOM     32  O   UNL     1       1.519   2.495  22.242  0.00  0.00    +0.000 OA
BRANCH  31  33
ATOM     33  O   UNL     1       0.422   2.858  20.307  0.00  0.00    +0.000 OA
ATOM     34  H   UNL     1       0.610   2.025  19.830  0.00  0.00    +0.000 HD
ENDBRANCH  31  33
ENDBRANCH  30  31
ENDBRANCH  29  30
ENDBRANCH  28  29
ENDBRANCH   5  28
TORSDOF 10
ENDMDL
MODEL 3
REMARK VINA RESULT:      -7.3      1.339      1.819
REMARK  Name = 
REMARK  11 active torsions:
REMARK  status: ('A' for Active; 'I' for Inactive)
REMARK    1  A    between atoms: C_1  and  C_2
REMARK    2  A    between atoms: C_2  and  C_3
REMARK    3  A    between atoms: C_3  and  O_4
REMARK    4  A    between atoms: C_3  and  C_5
REMARK    5  A    between atoms: C_6  and  C_7
REMARK    6  A    between atoms: C_11  and  C_12
REMARK    7  A    between atoms: C_12  and  C_13
REMARK    8  A    between atoms: C_13  and  C_14
REMARK    9  A    between atoms: C_14  and  C_15
REMARK   10  A    between atoms: C_15  and  O_17
REMARK   11  A    between atoms: C_21  and  O_22
REMARK                            x       y       z     vdW  Elec       q    Type
REMARK                         _______ _______ _______ _____ _____    ______ ____
ROOT
ATOM      1  C   UNL     1       2.324   7.282  19.751  0.00  0.00    +0.000 C 
ATOM      2  C   UNL     1       2.318   7.126  18.209  0.00  0.00    +0.000 C 
ATOM      3  C   UNL     1       3.649   7.495  17.555  0.00  0.00    +0.000 C 
ATOM      4  C   UNL     1       4.419   6.214  17.635  0.00  0.00    +0.000 C 
ATOM      5  C   UNL     1       5.730   6.126  17.920  0.00  0.00    +0.000 C 
ATOM      6  C   UNL     1       3.461   5.070  17.461  0.00  0.00    +0.000 C 
ATOM      7  C   UNL     1       2.109   5.625  17.923  0.00  0.00    +0.000 C 
ATOM      8  C   UNL     1       1.610   5.020  19.237  0.00  0.00    +0.000 C 
ATOM      9  C   UNL     1       2.246   5.860  20.336  0.00  0.00    +0.000 C 
ENDROOT
BRANCH   1  11
ATOM     10  C   UNL     1       0.940   9.364  19.780  0.00  0.00    +0.000 C 
ATOM     11  C   UNL     1       1.130   8.101  20.177  0.00  0.00    +0.000 C 
BRANCH  10  12
ATOM     12  C   UNL     1      -0.210  10.219  20.224  0.00  0.00    +0.000 C 
BRANCH  12  14
ATOM     13  C   UNL     1       1.528  12.130  20.317  0.00  0.00    +0.000 C 
ATOM     14  C   UNL     1       0.046  11.766  20.105  0.00  0.00    +0.000 C 
ATOM     15  C   UNL     1      -0.407  12.354  18.755  0.00  0.00    +0.000 C 
ATOM     16  O   UNL     1      -1.789  12.090  18.492  0.00  0.00    +0.000 OA
ATOM     17  C   UNL     1      -2.563  12.316  19.601  0.00  0.00    +0.000 A 
ATOM     18  C   UNL     1      -3.942  12.274  19.415  0.00  0.00    +0.000 A 
ATOM     19  C   UNL     1      -4.793  12.453  20.506  0.00  0.00    +0.000 A 
ATOM     20  C   UNL     1      -4.264  12.688  21.776  0.00  0.00    +0.000 A 
ATOM     21  C   UNL     1      -2.881  12.725  21.964  0.00  0.00    +0.000 A 
ATOM     22  C   UNL     1      -2.031  12.510  20.882  0.00  0.00    +0.000 A 
ATOM     23  O   UNL     1      -0.686  12.444  21.157  0.00  0.00    +0.000 OA
ENDBRANCH  12  14
BRANCH  12  24
ATOM     24  O   UNL     1      -0.492   9.789  21.561  0.00  0.00    +0.000 OA
ATOM     25  H   UNL     1      -0.385   8.829  21.618  0.00  0.00    +0.000 HD
ENDBRANCH  12  24
ENDBRANCH  10  12
ENDBRANCH   1  11
BRANCH   9  26
ATOM     26  O   UNL     1       3.532   5.349  20.681  0.00  0.00    +0.000 OA
ATOM     27  H   UNL     1       3.484   4.951  21.565  0.00  0.00    +0.000 HD
ENDBRANCH   9  26
BRANCH   5  28
ATOM     28  C   UNL     1       6.486   4.843  18.098  0.00  0.00    +0.000 C 
BRANCH  28  29
ATOM     29  C   UNL     1       7.374   4.549  16.892  0.00  0.00    +0.000 C 
BRANCH  29  30
ATOM     30  C   UNL     1       6.579   3.882  15.772  0.00  0.00    +0.000 C 
BRANCH  30  31
ATOM     31  C   UNL     1       6.781   4.579  14.448  0.00  0.00    +0.000 C 
ATOM     32  O   UNL     1       7.675   5.362  14.188  0.00  0.00    +0.000 OA
BRANCH  31  33
ATOM     33  O   UNL     1       5.834   4.235  13.540  0.00  0.00    +0.000 OA
ATOM     34  H   UNL     1       6.116   3.531  12.921  0.00  0.00    +0.000 HD
ENDBRANCH  31  33
ENDBRANCH  30  31
ENDBRANCH  29  30
ENDBRANCH  28  29
ENDBRANCH   5  28
TORSDOF 10
ENDMDL
MODEL 4
REMARK VINA RESULT:      -7.2      2.155      9.475
REMARK  Name = 
REMARK  11 active torsions:
REMARK  status: ('A' for Active; 'I' for Inactive)
REMARK    1  A    between atoms: C_1  and  C_2
REMARK    2  A    between atoms: C_2  and  C_3
REMARK    3  A    between atoms: C_3  and  O_4
REMARK    4  A    between atoms: C_3  and  C_5
REMARK    5  A    between atoms: C_6  and  C_7
REMARK    6  A    between atoms: C_11  and  C_12
REMARK    7  A    between atoms: C_12  and  C_13
REMARK    8  A    between atoms: C_13  and  C_14
REMARK    9  A    between atoms: C_14  and  C_15
REMARK   10  A    between atoms: C_15  and  O_17
REMARK   11  A    between atoms: C_21  and  O_22
REMARK                            x       y       z     vdW  Elec       q    Type
REMARK                         _______ _______ _______ _____ _____    ______ ____
ROOT
ATOM      1  C   UNL     1       0.753   8.700  20.007  0.00  0.00    +0.000 C 
ATOM      2  C   UNL     1       1.092   9.547  18.755  0.00  0.00    +0.000 C 
ATOM      3  C   UNL     1      -0.002   9.520  17.687  0.00  0.00    +0.000 C 
ATOM      4  C   UNL     1      -0.917  10.620  18.127  0.00  0.00    +0.000 C 
ATOM      5  C   UNL     1      -2.259  10.566  18.074  0.00  0.00    +0.000 C 
ATOM      6  C   UNL     1      -0.087  11.717  18.731  0.00  0.00    +0.000 C 
ATOM      7  C   UNL     1       1.180  11.012  19.229  0.00  0.00    +0.000 C 
ATOM      8  C   UNL     1       1.292  10.946  20.754  0.00  0.00    +0.000 C 
ATOM      9  C   UNL     1       0.526   9.695  21.161  0.00  0.00    +0.000 C 
ENDROOT
BRANCH   1  11
ATOM     10  C   UNL     1       1.964   6.517  19.874  0.00  0.00    +0.000 C 
ATOM     11  C   UNL     1       1.907   7.778  20.316  0.00  0.00    +0.000 C 
BRANCH  10  12
ATOM     12  C   UNL     1       3.073   5.562  20.203  0.00  0.00    +0.000 C 
BRANCH  12  14
ATOM     13  C   UNL     1       2.544   3.175  19.367  0.00  0.00    +0.000 C 
ATOM     14  C   UNL     1       3.337   4.469  19.104  0.00  0.00    +0.000 C 
ATOM     15  C   UNL     1       3.012   4.952  17.677  0.00  0.00    +0.000 C 
ATOM     16  O   UNL     1       3.736   6.139  17.336  0.00  0.00    +0.000 OA
ATOM     17  C   UNL     1       5.050   6.053  17.718  0.00  0.00    +0.000 A 
ATOM     18  C   UNL     1       5.895   7.066  17.272  0.00  0.00    +0.000 A 
ATOM     19  C   UNL     1       7.235   7.068  17.657  0.00  0.00    +0.000 A 
ATOM     20  C   UNL     1       7.732   6.049  18.472  0.00  0.00    +0.000 A 
ATOM     21  C   UNL     1       6.885   5.036  18.923  0.00  0.00    +0.000 A 
ATOM     22  C   UNL     1       5.538   5.054  18.570  0.00  0.00    +0.000 A 
ATOM     23  O   UNL     1       4.737   4.094  19.142  0.00  0.00    +0.000 OA
ENDBRANCH  12  14
BRANCH  12  24
ATOM     24  O   UNL     1       2.718   5.013  21.478  0.00  0.00    +0.000 OA
ATOM     25  H   UNL     1       1.992   4.383  21.364  0.00  0.00    +0.000 HD
ENDBRANCH  12  24
ENDBRANCH  10  12
ENDBRANCH   1  11
BRANCH   9  26
ATOM     26  O   UNL     1      -0.856   9.989  21.353  0.00  0.00    +0.000 OA
ATOM     27  H   UNL     1      -1.386   9.302  20.918  0.00  0.00    +0.000 HD
ENDBRANCH   9  26
BRANCH   5  28
ATOM     28  C   UNL     1      -3.182  11.624  18.602  0.00  0.00    +0.000 C 
BRANCH  28  29
ATOM     29  C   UNL     1      -4.410  11.786  17.709  0.00  0.00    +0.000 C 
BRANCH  29  30
ATOM     30  C   UNL     1      -5.561  10.907  18.190  0.00  0.00    +0.000 C 
BRANCH  30  31
ATOM     31  C   UNL     1      -6.856  11.678  18.281  0.00  0.00    +0.000 C 
ATOM     32  O   UNL     1      -7.567  11.758  19.265  0.00  0.00    +0.000 OA
BRANCH  31  33
ATOM     33  O   UNL     1      -7.162  12.300  17.115  0.00  0.00    +0.000 OA
ATOM     34  H   UNL     1      -6.392  12.701  16.666  0.00  0.00    +0.000 HD
ENDBRANCH  31  33
ENDBRANCH  30  31
ENDBRANCH  29  30
ENDBRANCH  28  29
ENDBRANCH   5  28
TORSDOF 10
ENDMDL
MODEL 5
REMARK VINA RESULT:      -7.2      6.309      8.270
REMARK  Name = 
REMARK  11 active torsions:
REMARK  status: ('A' for Active; 'I' for Inactive)
REMARK    1  A    between atoms: C_1  and  C_2
REMARK    2  A    between atoms: C_2  and  C_3
REMARK    3  A    between atoms: C_3  and  O_4
REMARK    4  A    between atoms: C_3  and  C_5
REMARK    5  A    between atoms: C_6  and  C_7
REMARK    6  A    between atoms: C_11  and  C_12
REMARK    7  A    between atoms: C_12  and  C_13
REMARK    8  A    between atoms: C_13  and  C_14
REMARK    9  A    between atoms: C_14  and  C_15
REMARK   10  A    between atoms: C_15  and  O_17
REMARK   11  A    between atoms: C_21  and  O_22
REMARK                            x       y       z     vdW  Elec       q    Type
REMARK                         _______ _______ _______ _____ _____    ______ ____
ROOT
ATOM      1  C   UNL     1       7.493   7.029  17.474  0.00  0.00    +0.000 C 
ATOM      2  C   UNL     1       5.958   7.134  17.295  0.00  0.00    +0.000 C 
ATOM      3  C   UNL     1       5.518   7.181  15.832  0.00  0.00    +0.000 C 
ATOM      4  C   UNL     1       5.414   5.730  15.475  0.00  0.00    +0.000 C 
ATOM      5  C   UNL     1       5.798   5.202  14.299  0.00  0.00    +0.000 C 
ATOM      6  C   UNL     1       4.927   4.976  16.679  0.00  0.00    +0.000 C 
ATOM      7  C   UNL     1       5.361   5.835  17.873  0.00  0.00    +0.000 C 
ATOM      8  C   UNL     1       6.475   5.206  18.712  0.00  0.00    +0.000 C 
ATOM      9  C   UNL     1       7.774   5.622  18.036  0.00  0.00    +0.000 C 
ENDROOT
BRANCH   1  11
ATOM     10  C   UNL     1       8.260   9.337  18.054  0.00  0.00    +0.000 C 
ATOM     11  C   UNL     1       7.959   8.092  18.439  0.00  0.00    +0.000 C 
BRANCH  10  12
ATOM     12  C   UNL     1       8.770  10.401  18.979  0.00  0.00    +0.000 C 
BRANCH  12  14
ATOM     13  C   UNL     1      10.749  10.796  17.364  0.00  0.00    +0.000 C 
ATOM     14  C   UNL     1       9.717  11.456  18.298  0.00  0.00    +0.000 C 
ATOM     15  C   UNL     1       8.953  12.526  17.494  0.00  0.00    +0.000 C 
ATOM     16  O   UNL     1       7.992  13.216  18.298  0.00  0.00    +0.000 OA
ATOM     17  C   UNL     1       8.512  13.557  19.520  0.00  0.00    +0.000 A 
ATOM     18  C   UNL     1       7.734  14.395  20.315  0.00  0.00    +0.000 A 
ATOM     19  C   UNL     1       8.179  14.751  21.588  0.00  0.00    +0.000 A 
ATOM     20  C   UNL     1       9.407  14.282  22.057  0.00  0.00    +0.000 A 
ATOM     21  C   UNL     1      10.186  13.438  21.263  0.00  0.00    +0.000 A 
ATOM     22  C   UNL     1       9.724  13.053  20.006  0.00  0.00    +0.000 A 
ATOM     23  O   UNL     1      10.484  12.131  19.326  0.00  0.00    +0.000 OA
ENDBRANCH  12  14
BRANCH  12  24
ATOM     24  O   UNL     1       9.394   9.686  20.053  0.00  0.00    +0.000 OA
ATOM     25  H   UNL     1       9.106  10.062  20.897  0.00  0.00    +0.000 HD
ENDBRANCH  12  24
ENDBRANCH  10  12
ENDBRANCH   1  11
BRANCH   9  26
ATOM     26  O   UNL     1       8.130   4.696  17.013  0.00  0.00    +0.000 OA
ATOM     27  H   UNL     1       7.484   4.764  16.290  0.00  0.00    +0.000 HD
ENDBRANCH   9  26
BRANCH   5  28
ATOM     28  C   UNL     1       5.788   3.739  13.971  0.00  0.00    +0.000 C 
BRANCH  28  29
ATOM     29  C   UNL     1       6.277   3.486  12.547  0.00  0.00    +0.000 C 
BRANCH  29  30
ATOM     30  C   UNL     1       5.472   2.375  11.877  0.00  0.00    +0.000 C 
BRANCH  30  31
ATOM     31  C   UNL     1       6.367   1.321  11.273  0.00  0.00    +0.000 C 
ATOM     32  O   UNL     1       6.019   0.207  10.927  0.00  0.00    +0.000 OA
BRANCH  31  33
ATOM     33  O   UNL     1       7.648   1.750  11.145  0.00  0.00    +0.000 OA
ATOM     34  H   UNL     1       8.078   1.471  10.311  0.00  0.00    +0.000 HD
ENDBRANCH  31  33
ENDBRANCH  30  31
ENDBRANCH  29  30
ENDBRANCH  28  29
ENDBRANCH   5  28
TORSDOF 10
ENDMDL
MODEL 6
REMARK VINA RESULT:      -7.2      2.078      8.629
REMARK  Name = 
REMARK  11 active torsions:
REMARK  status: ('A' for Active; 'I' for Inactive)
REMARK    1  A    between atoms: C_1  and  C_2
REMARK    2  A    between atoms: C_2  and  C_3
REMARK    3  A    between atoms: C_3  and  O_4
REMARK    4  A    between atoms: C_3  and  C_5
REMARK    5  A    between atoms: C_6  and  C_7
REMARK    6  A    between atoms: C_11  and  C_12
REMARK    7  A    between atoms: C_12  and  C_13
REMARK    8  A    between atoms: C_13  and  C_14
REMARK    9  A    between atoms: C_14  and  C_15
REMARK   10  A    between atoms: C_15  and  O_17
REMARK   11  A    between atoms: C_21  and  O_22
REMARK                            x       y       z     vdW  Elec       q    Type
REMARK                         _______ _______ _______ _____ _____    ______ ____
ROOT
ATOM      1  C   UNL     1       1.079   7.627  20.143  0.00  0.00    +0.000 C 
ATOM      2  C   UNL     1       1.773   8.804  19.413  0.00  0.00    +0.000 C 
ATOM      3  C   UNL     1       1.125   9.158  18.075  0.00  0.00    +0.000 C 
ATOM      4  C   UNL     1       0.040  10.108  18.479  0.00  0.00    +0.000 C 
ATOM      5  C   UNL     1      -1.192  10.135  17.943  0.00  0.00    +0.000 C 
ATOM      6  C   UNL     1       0.530  10.925  19.641  0.00  0.00    +0.000 C 
ATOM      7  C   UNL     1       1.590  10.044  20.312  0.00  0.00    +0.000 C 
ATOM      8  C   UNL     1       1.168   9.503  21.680  0.00  0.00    +0.000 C 
ATOM      9  C   UNL     1       0.397   8.224  21.388  0.00  0.00    +0.000 C 
ENDROOT
BRANCH   1  11
ATOM     10  C   UNL     1       2.567   5.667  19.699  0.00  0.00    +0.000 C 
ATOM     11  C   UNL     1       2.114   6.603  20.541  0.00  0.00    +0.000 C 
BRANCH  10  12
ATOM     12  C   UNL     1       3.558   4.608  20.077  0.00  0.00    +0.000 C 
BRANCH  12  14
ATOM     13  C   UNL     1       3.638   2.237  19.051  0.00  0.00    +0.000 C 
ATOM     14  C   UNL     1       4.044   3.713  18.879  0.00  0.00    +0.000 C 
ATOM     15  C   UNL     1       3.528   4.200  17.511  0.00  0.00    +0.000 C 
ATOM     16  O   UNL     1       3.892   5.559  17.253  0.00  0.00    +0.000 OA
ATOM     17  C   UNL     1       5.200   5.800  17.587  0.00  0.00    +0.000 A 
ATOM     18  C   UNL     1       5.721   7.034  17.206  0.00  0.00    +0.000 A 
ATOM     19  C   UNL     1       7.032   7.367  17.548  0.00  0.00    +0.000 A 
ATOM     20  C   UNL     1       7.824   6.459  18.254  0.00  0.00    +0.000 A 
ATOM     21  C   UNL     1       7.300   5.224  18.640  0.00  0.00    +0.000 A 
ATOM     22  C   UNL     1       5.980   4.907  18.331  0.00  0.00    +0.000 A 
ATOM     23  O   UNL     1       5.493   3.726  18.841  0.00  0.00    +0.000 OA
ENDBRANCH  12  14
BRANCH  12  24
ATOM     24  O   UNL     1       2.919   3.862  21.121  0.00  0.00    +0.000 OA
ATOM     25  H   UNL     1       2.381   3.160  20.728  0.00  0.00    +0.000 HD
ENDBRANCH  12  24
ENDBRANCH  10  12
ENDBRANCH   1  11
BRANCH   9  26
ATOM     26  O   UNL     1      -0.982   8.506  21.162  0.00  0.00    +0.000 OA
ATOM     27  H   UNL     1      -1.509   8.063  21.846  0.00  0.00    +0.000 HD
ENDBRANCH   9  26
BRANCH   5  28
ATOM     28  C   UNL     1      -2.312  11.017  18.408  0.00  0.00    +0.000 C 
BRANCH  28  29
ATOM     29  C   UNL     1      -3.591  10.757  17.616  0.00  0.00    +0.000 C 
BRANCH  29  30
ATOM     30  C   UNL     1      -3.337   9.790  16.462  0.00  0.00    +0.000 C 
BRANCH  30  31
ATOM     31  C   UNL     1      -3.385  10.488  15.124  0.00  0.00    +0.000 C 
ATOM     32  O   UNL     1      -3.256   9.953  14.039  0.00  0.00    +0.000 OA
BRANCH  31  33
ATOM     33  O   UNL     1      -3.598  11.822  15.252  0.00  0.00    +0.000 OA
ATOM     34  H   UNL     1      -2.846  12.306  15.649  0.00  0.00    +0.000 HD
ENDBRANCH  31  33
ENDBRANCH  30  31
ENDBRANCH  29  30
ENDBRANCH  28  29
ENDBRANCH   5  28
TORSDOF 10
ENDMDL
MODEL 7
REMARK VINA RESULT:      -7.1      1.265      3.142
REMARK  Name = 
REMARK  11 active torsions:
REMARK  status: ('A' for Active; 'I' for Inactive)
REMARK    1  A    between atoms: C_1  and  C_2
REMARK    2  A    between atoms: C_2  and  C_3
REMARK    3  A    between atoms: C_3  and  O_4
REMARK    4  A    between atoms: C_3  and  C_5
REMARK    5  A    between atoms: C_6  and  C_7
REMARK    6  A    between atoms: C_11  and  C_12
REMARK    7  A    between atoms: C_12  and  C_13
REMARK    8  A    between atoms: C_13  and  C_14
REMARK    9  A    between atoms: C_14  and  C_15
REMARK   10  A    between atoms: C_15  and  O_17
REMARK   11  A    between atoms: C_21  and  O_22
REMARK                            x       y       z     vdW  Elec       q    Type
REMARK                         _______ _______ _______ _____ _____    ______ ____
ROOT
ATOM      1  C   UNL     1       2.370   7.082  19.833  0.00  0.00    +0.000 C 
ATOM      2  C   UNL     1       2.334   6.971  18.288  0.00  0.00    +0.000 C 
ATOM      3  C   UNL     1       3.648   7.373  17.618  0.00  0.00    +0.000 C 
ATOM      4  C   UNL     1       4.432   6.098  17.646  0.00  0.00    +0.000 C 
ATOM      5  C   UNL     1       5.750   6.016  17.901  0.00  0.00    +0.000 C 
ATOM      6  C   UNL     1       3.483   4.949  17.457  0.00  0.00    +0.000 C 
ATOM      7  C   UNL     1       2.135   5.477  17.962  0.00  0.00    +0.000 C 
ATOM      8  C   UNL     1       1.668   4.828  19.268  0.00  0.00    +0.000 C 
ATOM      9  C   UNL     1       2.318   5.642  20.378  0.00  0.00    +0.000 C 
ENDROOT
BRANCH   1  11
ATOM     10  C   UNL     1       1.118   9.209  20.232  0.00  0.00    +0.000 C 
ATOM     11  C   UNL     1       1.176   7.875  20.307  0.00  0.00    +0.000 C 
BRANCH  10  12
ATOM     12  C   UNL     1      -0.032  10.028  20.737  0.00  0.00    +0.000 C 
BRANCH  12  14
ATOM     13  C   UNL     1      -1.480  10.228  18.606  0.00  0.00    +0.000 C 
ATOM     14  C   UNL     1      -0.664  10.991  19.667  0.00  0.00    +0.000 C 
ATOM     15  C   UNL     1      -1.570  12.074  20.285  0.00  0.00    +0.000 C 
ATOM     16  O   UNL     1      -0.879  12.857  21.262  0.00  0.00    +0.000 OA
ATOM     17  C   UNL     1       0.371  13.215  20.826  0.00  0.00    +0.000 A 
ATOM     18  C   UNL     1       1.064  14.133  21.611  0.00  0.00    +0.000 A 
ATOM     19  C   UNL     1       2.358  14.512  21.253  0.00  0.00    +0.000 A 
ATOM     20  C   UNL     1       2.949  13.985  20.102  0.00  0.00    +0.000 A 
ATOM     21  C   UNL     1       2.257  13.061  19.318  0.00  0.00    +0.000 A 
ATOM     22  C   UNL     1       0.980  12.655  19.696  0.00  0.00    +0.000 A 
ATOM     23  O   UNL     1       0.402  11.658  18.946  0.00  0.00    +0.000 OA
ENDBRANCH  12  14
BRANCH  12  24
ATOM     24  O   UNL     1       0.482  10.714  21.886  0.00  0.00    +0.000 OA
ATOM     25  H   UNL     1      -0.049  11.507  22.048  0.00  0.00    +0.000 HD
ENDBRANCH  12  24
ENDBRANCH  10  12
ENDBRANCH   1  11
BRANCH   9  26
ATOM     26  O   UNL     1       3.616   5.135  20.682  0.00  0.00    +0.000 OA
ATOM     27  H   UNL     1       4.049   4.869  19.855  0.00  0.00    +0.000 HD
ENDBRANCH   9  26
BRANCH   5  28
ATOM     28  C   UNL     1       6.522   4.737  18.027  0.00  0.00    +0.000 C 
BRANCH  28  29
ATOM     29  C   UNL     1       7.363   4.471  16.781  0.00  0.00    +0.000 C 
BRANCH  29  30
ATOM     30  C   UNL     1       6.503   3.937  15.639  0.00  0.00    +0.000 C 
BRANCH  30  31
ATOM     31  C   UNL     1       6.878   4.560  14.316  0.00  0.00    +0.000 C 
ATOM     32  O   UNL     1       7.664   5.475  14.160  0.00  0.00    +0.000 OA
BRANCH  31  33
ATOM     33  O   UNL     1       6.232   3.977  13.275  0.00  0.00    +0.000 OA
ATOM     34  H   UNL     1       6.818   3.470  12.678  0.00  0.00    +0.000 HD
ENDBRANCH  31  33
ENDBRANCH  30  31
ENDBRANCH  29  30
ENDBRANCH  28  29
ENDBRANCH   5  28
TORSDOF 10
ENDMDL
MODEL 8
REMARK VINA RESULT:      -7.1      2.440      9.492
REMARK  Name = 
REMARK  11 active torsions:
REMARK  status: ('A' for Active; 'I' for Inactive)
REMARK    1  A    between atoms: C_1  and  C_2
REMARK    2  A    between atoms: C_2  and  C_3
REMARK    3  A    between atoms: C_3  and  O_4
REMARK    4  A    between atoms: C_3  and  C_5
REMARK    5  A    between atoms: C_6  and  C_7
REMARK    6  A    between atoms: C_11  and  C_12
REMARK    7  A    between atoms: C_12  and  C_13
REMARK    8  A    between atoms: C_13  and  C_14
REMARK    9  A    between atoms: C_14  and  C_15
REMARK   10  A    between atoms: C_15  and  O_17
REMARK   11  A    between atoms: C_21  and  O_22
REMARK                            x       y       z     vdW  Elec       q    Type
REMARK                         _______ _______ _______ _____ _____    ______ ____
ROOT
ATOM      1  C   UNL     1      -0.114   9.566  20.517  0.00  0.00    +0.000 C 
ATOM      2  C   UNL     1       0.003  10.221  19.117  0.00  0.00    +0.000 C 
ATOM      3  C   UNL     1      -1.302  10.193  18.321  0.00  0.00    +0.000 C 
ATOM      4  C   UNL     1      -1.999  11.431  18.792  0.00  0.00    +0.000 C 
ATOM      5  C   UNL     1      -3.319  11.521  19.034  0.00  0.00    +0.000 C 
ATOM      6  C   UNL     1      -0.967  12.491  19.050  0.00  0.00    +0.000 C 
ATOM      7  C   UNL     1       0.317  11.711  19.357  0.00  0.00    +0.000 C 
ATOM      8  C   UNL     1       0.764  11.809  20.818  0.00  0.00    +0.000 C 
ATOM      9  C   UNL     1       0.009  10.706  21.546  0.00  0.00    +0.000 C 
ENDROOT
BRANCH   1  11
ATOM     10  C   UNL     1       1.661   8.026  19.665  0.00  0.00    +0.000 C 
ATOM     11  C   UNL     1       1.000   8.563  20.696  0.00  0.00    +0.000 C 
BRANCH  10  12
ATOM     12  C   UNL     1       2.739   6.993  19.807  0.00  0.00    +0.000 C 
BRANCH  12  14
ATOM     13  C   UNL     1       3.595   7.607  17.448  0.00  0.00    +0.000 C 
ATOM     14  C   UNL     1       3.319   6.466  18.444  0.00  0.00    +0.000 C 
ATOM     15  C   UNL     1       4.616   5.649  18.613  0.00  0.00    +0.000 C 
ATOM     16  O   UNL     1       4.440   4.542  19.502  0.00  0.00    +0.000 OA
ATOM     17  C   UNL     1       3.270   3.874  19.246  0.00  0.00    +0.000 A 
ATOM     18  C   UNL     1       3.081   2.670  19.920  0.00  0.00    +0.000 A 
ATOM     19  C   UNL     1       1.897   1.956  19.743  0.00  0.00    +0.000 A 
ATOM     20  C   UNL     1       0.910   2.438  18.880  0.00  0.00    +0.000 A 
ATOM     21  C   UNL     1       1.097   3.647  18.208  0.00  0.00    +0.000 A 
ATOM     22  C   UNL     1       2.264   4.379  18.413  0.00  0.00    +0.000 A 
ATOM     23  O   UNL     1       2.333   5.613  17.812  0.00  0.00    +0.000 OA
ENDBRANCH  12  14
BRANCH  12  24
ATOM     24  O   UNL     1       2.155   5.961  20.614  0.00  0.00    +0.000 OA
ATOM     25  H   UNL     1       2.812   5.644  21.251  0.00  0.00    +0.000 HD
ENDBRANCH  12  24
ENDBRANCH  10  12
ENDBRANCH   1  11
BRANCH   9  26
ATOM     26  O   UNL     1      -1.265  11.172  21.986  0.00  0.00    +0.000 OA
ATOM     27  H   UNL     1      -1.289  11.147  22.957  0.00  0.00    +0.000 HD
ENDBRANCH   9  26
BRANCH   5  28
ATOM     28  C   UNL     1      -4.008  12.728  19.597  0.00  0.00    +0.000 C 
BRANCH  28  29
ATOM     29  C   UNL     1      -5.519  12.650  19.394  0.00  0.00    +0.000 C 
BRANCH  29  30
ATOM     30  C   UNL     1      -6.199  11.966  20.577  0.00  0.00    +0.000 C 
BRANCH  30  31
ATOM     31  C   UNL     1      -7.026  10.781  20.139  0.00  0.00    +0.000 C 
ATOM     32  O   UNL     1      -7.441   9.897  20.866  0.00  0.00    +0.000 OA
BRANCH  31  33
ATOM     33  O   UNL     1      -7.275  10.796  18.806  0.00  0.00    +0.000 OA
ATOM     34  H   UNL     1      -6.481  10.961  18.257  0.00  0.00    +0.000 HD
ENDBRANCH  31  33
ENDBRANCH  30  31
ENDBRANCH  29  30
ENDBRANCH  28  29
ENDBRANCH   5  28
TORSDOF 10
ENDMDL
MODEL 9
REMARK VINA RESULT:      -7.0      2.464      9.916
REMARK  Name = 
REMARK  11 active torsions:
REMARK  status: ('A' for Active; 'I' for Inactive)
REMARK    1  A    between atoms: C_1  and  C_2
REMARK    2  A    between atoms: C_2  and  C_3
REMARK    3  A    between atoms: C_3  and  O_4
REMARK    4  A    between atoms: C_3  and  C_5
REMARK    5  A    between atoms: C_6  and  C_7
REMARK    6  A    between atoms: C_11  and  C_12
REMARK    7  A    between atoms: C_12  and  C_13
REMARK    8  A    between atoms: C_13  and  C_14
REMARK    9  A    between atoms: C_14  and  C_15
REMARK   10  A    between atoms: C_15  and  O_17
REMARK   11  A    between atoms: C_21  and  O_22
REMARK                            x       y       z     vdW  Elec       q    Type
REMARK                         _______ _______ _______ _____ _____    ______ ____
ROOT
ATOM      1  C   UNL     1       0.966  10.354  19.524  0.00  0.00    +0.000 C 
ATOM      2  C   UNL     1      -0.475  10.006  19.975  0.00  0.00    +0.000 C 
ATOM      3  C   UNL     1      -0.707  10.196  21.474  0.00  0.00    +0.000 C 
ATOM      4  C   UNL     1      -1.076  11.644  21.566  0.00  0.00    +0.000 C 
ATOM      5  C   UNL     1      -0.671  12.476  22.542  0.00  0.00    +0.000 C 
ATOM      6  C   UNL     1      -1.863  12.016  20.342  0.00  0.00    +0.000 C 
ATOM      7  C   UNL     1      -1.407  11.015  19.273  0.00  0.00    +0.000 C 
ATOM      8  C   UNL     1      -0.569  11.643  18.157  0.00  0.00    +0.000 C 
ATOM      9  C   UNL     1       0.863  11.632  18.671  0.00  0.00    +0.000 C 
ENDROOT
BRANCH   1  11
ATOM     10  C   UNL     1       1.946   8.068  19.262  0.00  0.00    +0.000 C 
ATOM     11  C   UNL     1       1.526   9.213  18.710  0.00  0.00    +0.000 C 
BRANCH  10  12
ATOM     12  C   UNL     1       2.550   6.936  18.486  0.00  0.00    +0.000 C 
BRANCH  12  14
ATOM     13  C   UNL     1       1.818   5.587  20.566  0.00  0.00    +0.000 C 
ATOM     14  C   UNL     1       2.689   5.595  19.295  0.00  0.00    +0.000 C 
ATOM     15  C   UNL     1       2.339   4.346  18.463  0.00  0.00    +0.000 C 
ATOM     16  O   UNL     1       3.129   4.255  17.274  0.00  0.00    +0.000 OA
ATOM     17  C   UNL     1       4.449   4.529  17.526  0.00  0.00    +0.000 A 
ATOM     18  C   UNL     1       5.344   4.289  16.487  0.00  0.00    +0.000 A 
ATOM     19  C   UNL     1       6.696   4.583  16.656  0.00  0.00    +0.000 A 
ATOM     20  C   UNL     1       7.154   5.102  17.869  0.00  0.00    +0.000 A 
ATOM     21  C   UNL     1       6.257   5.347  18.911  0.00  0.00    +0.000 A 
ATOM     22  C   UNL     1       4.901   5.087  18.728  0.00  0.00    +0.000 A 
ATOM     23  O   UNL     1       4.059   5.460  19.749  0.00  0.00    +0.000 OA
ENDBRANCH  12  14
BRANCH  12  24
ATOM     24  O   UNL     1       3.802   7.444  18.009  0.00  0.00    +0.000 OA
ATOM     25  H   UNL     1       4.365   7.667  18.764  0.00  0.00    +0.000 HD
ENDBRANCH  12  24
ENDBRANCH  10  12
ENDBRANCH   1  11
BRANCH   9  26
ATOM     26  O   UNL     1       1.136  12.808  19.430  0.00  0.00    +0.000 OA
ATOM     27  H   UNL     1       1.892  13.269  19.032  0.00  0.00    +0.000 HD
ENDBRANCH   9  26
BRANCH   5  28
ATOM     28  C   UNL     1      -0.956  13.948  22.589  0.00  0.00    +0.000 C 
BRANCH  28  29
ATOM     29  C   UNL     1      -2.420  14.220  22.923  0.00  0.00    +0.000 C 
BRANCH  29  30
ATOM     30  C   UNL     1      -2.797  13.623  24.277  0.00  0.00    +0.000 C 
BRANCH  30  31
ATOM     31  C   UNL     1      -3.986  12.699  24.171  0.00  0.00    +0.000 C 
ATOM     32  O   UNL     1      -4.451  12.256  23.138  0.00  0.00    +0.000 OA
BRANCH  31  33
ATOM     33  O   UNL     1      -4.508  12.398  25.386  0.00  0.00    +0.000 OA
ATOM     34  H   UNL     1      -5.485  12.443  25.420  0.00  0.00    +0.000 HD
ENDBRANCH  31  33
ENDBRANCH  30  31
ENDBRANCH  29  30
ENDBRANCH  28  29
ENDBRANCH   5  28
TORSDOF 10
ENDMDL
