MODEL 1
REMARK VINA RESULT:      -7.1      0.000      0.000
REMARK  Name = 
REMARK  9 active torsions:
REMARK  status: ('A' for Active; 'I' for Inactive)
REMARK    1  A    between atoms: C_1  and  O_2
REMARK    2  A    between atoms: O_2  and  C_3
REMARK    3  A    between atoms: N_17  and  C_18
REMARK    4  A    between atoms: C_18  and  C_19
REMARK    5  A    between atoms: C_19  and  N_20
REMARK    6  A    between atoms: N_20  and  C_21
REMARK    7  A    between atoms: N_20  and  C_22
REMARK    8  A    between atoms: C_25  and  O_26
REMARK    9  A    between atoms: O_26  and  C_27
REMARK                            x       y       z     vdW  Elec       q    Type
REMARK                         _______ _______ _______ _____ _____    ______ ____
ROOT
ATOM      1  C   UNL     1       2.780   3.662  20.857  0.00  0.00    +0.000 A 
ATOM      2  C   UNL     1       2.196   4.917  21.046  0.00  0.00    +0.000 A 
ATOM      3  C   UNL     1       2.397   5.943  20.102  0.00  0.00    +0.000 A 
ATOM      4  C   UNL     1       1.905   7.258  19.979  0.00  0.00    +0.000 A 
ATOM      5  S   UNL     1       0.806   8.011  21.091  0.00  0.00    +0.000 S 
ATOM      6  C   UNL     1       0.563   9.606  20.346  0.00  0.00    +0.000 A 
ATOM      7  C   UNL     1      -0.289  10.486  21.036  0.00  0.00    +0.000 A 
ATOM      8  C   UNL     1      -0.543  11.768  20.554  0.00  0.00    +0.000 A 
ATOM      9  C   UNL     1       0.060  12.193  19.376  0.00  0.00    +0.000 A 
ATOM     10  C   UNL     1       0.902  11.329  18.672  0.00  0.00    +0.000 A 
ATOM     11  C   UNL     1       1.154  10.026  19.144  0.00  0.00    +0.000 A 
ATOM     12  C   UNL     1       2.037   9.141  18.317  0.00  0.00    +0.000 A 
ATOM     13  O   UNL     1       2.423   9.561  17.229  0.00  0.00    +0.000 OA
ATOM     14  C   UNL     1       2.379   7.827  18.819  0.00  0.00    +0.000 A 
ATOM     15  N   UNL     1       3.219   6.877  18.239  0.00  0.00    +0.000 N 
ATOM     16  C   UNL     1       3.214   5.710  18.996  0.00  0.00    +0.000 A 
ATOM     17  C   UNL     1       3.851   4.463  18.818  0.00  0.00    +0.000 A 
ATOM     18  C   UNL     1       3.618   3.438  19.752  0.00  0.00    +0.000 A 
ENDROOT
BRANCH   1  20
ATOM     19  C   UNL     1       1.222   2.317  22.027  0.00  0.00    +0.000 C 
ATOM     20  O   UNL     1       2.584   2.620  21.734  0.00  0.00    +0.000 OA
ENDBRANCH   1  20
BRANCH  18  21
ATOM     21  O   UNL     1       4.166   2.179  19.661  0.00  0.00    +0.000 OA
ATOM     22  C   UNL     1       3.744   1.357  18.581  0.00  0.00    +0.000 C 
ENDBRANCH  18  21
BRANCH  15  23
ATOM     23  C   UNL     1       3.923   7.023  16.962  0.00  0.00    +0.000 C 
BRANCH  23  24
ATOM     24  C   UNL     1       5.444   7.202  17.111  0.00  0.00    +0.000 C 
BRANCH  24  25
ATOM     25  N   UNL     1       6.279   6.289  16.295  0.00  0.00    +0.000 NA
ATOM     26  C   UNL     1       7.117   5.411  17.114  0.00  0.00    +0.000 C 
ATOM     27  C   UNL     1       5.396   5.463  15.458  0.00  0.00    +0.000 C 
ENDBRANCH  24  25
ENDBRANCH  23  24
ENDBRANCH  15  23
TORSDOF 5
ENDMDL
MODEL 2
REMARK VINA RESULT:      -6.9      2.226      7.185
REMARK  Name = 
REMARK  9 active torsions:
REMARK  status: ('A' for Active; 'I' for Inactive)
REMARK    1  A    between atoms: C_1  and  O_2
REMARK    2  A    between atoms: O_2  and  C_3
REMARK    3  A    between atoms: N_17  and  C_18
REMARK    4  A    between atoms: C_18  and  C_19
REMARK    5  A    between atoms: C_19  and  N_20
REMARK    6  A    between atoms: N_20  and  C_21
REMARK    7  A    between atoms: N_20  and  C_22
REMARK    8  A    between atoms: C_25  and  O_26
REMARK    9  A    between atoms: O_26  and  C_27
REMARK                            x       y       z     vdW  Elec       q    Type
REMARK                         _______ _______ _______ _____ _____    ______ ____
ROOT
ATOM      1  C   UNL     1       1.083   9.956  19.343  0.00  0.00    +0.000 A 
ATOM      2  C   UNL     1       1.994   9.345  18.477  0.00  0.00    +0.000 A 
ATOM      3  C   UNL     1       2.435   8.030  18.724  0.00  0.00    +0.000 A 
ATOM      4  C   UNL     1       3.275   7.141  18.024  0.00  0.00    +0.000 A 
ATOM      5  S   UNL     1       4.055   7.499  16.515  0.00  0.00    +0.000 S 
ATOM      6  C   UNL     1       4.903   5.976  16.169  0.00  0.00    +0.000 A 
ATOM      7  C   UNL     1       5.663   5.949  14.986  0.00  0.00    +0.000 A 
ATOM      8  C   UNL     1       6.383   4.814  14.619  0.00  0.00    +0.000 A 
ATOM      9  C   UNL     1       6.358   3.689  15.436  0.00  0.00    +0.000 A 
ATOM     10  C   UNL     1       5.601   3.695  16.609  0.00  0.00    +0.000 A 
ATOM     11  C   UNL     1       4.859   4.833  16.982  0.00  0.00    +0.000 A 
ATOM     12  C   UNL     1       4.039   4.754  18.234  0.00  0.00    +0.000 A 
ATOM     13  O   UNL     1       3.982   3.678  18.823  0.00  0.00    +0.000 OA
ATOM     14  C   UNL     1       3.333   5.935  18.684  0.00  0.00    +0.000 A 
ATOM     15  N   UNL     1       2.565   6.091  19.837  0.00  0.00    +0.000 N 
ATOM     16  C   UNL     1       1.985   7.355  19.858  0.00  0.00    +0.000 A 
ATOM     17  C   UNL     1       1.103   7.977  20.768  0.00  0.00    +0.000 A 
ATOM     18  C   UNL     1       0.648   9.279  20.495  0.00  0.00    +0.000 A 
ENDROOT
BRANCH   1  20
ATOM     19  C   UNL     1       1.584  12.254  19.076  0.00  0.00    +0.000 C 
ATOM     20  O   UNL     1       0.599  11.225  19.125  0.00  0.00    +0.000 OA
ENDBRANCH   1  20
BRANCH  18  21
ATOM     21  O   UNL     1      -0.232   9.968  21.299  0.00  0.00    +0.000 OA
ATOM     22  C   UNL     1      -0.242   9.648  22.684  0.00  0.00    +0.000 C 
ENDBRANCH  18  21
BRANCH  15  23
ATOM     23  C   UNL     1       2.301   5.051  20.836  0.00  0.00    +0.000 C 
BRANCH  23  24
ATOM     24  C   UNL     1       0.999   4.271  20.587  0.00  0.00    +0.000 C 
BRANCH  24  25
ATOM     25  N   UNL     1       1.093   2.800  20.747  0.00  0.00    +0.000 NA
ATOM     26  C   UNL     1       1.197   2.100  19.465  0.00  0.00    +0.000 C 
ATOM     27  C   UNL     1       2.278   2.488  21.560  0.00  0.00    +0.000 C 
ENDBRANCH  24  25
ENDBRANCH  23  24
ENDBRANCH  15  23
TORSDOF 5
ENDMDL
MODEL 3
REMARK VINA RESULT:      -6.5      2.255      4.516
REMARK  Name = 
REMARK  9 active torsions:
REMARK  status: ('A' for Active; 'I' for Inactive)
REMARK    1  A    between atoms: C_1  and  O_2
REMARK    2  A    between atoms: O_2  and  C_3
REMARK    3  A    between atoms: N_17  and  C_18
REMARK    4  A    between atoms: C_18  and  C_19
REMARK    5  A    between atoms: C_19  and  N_20
REMARK    6  A    between atoms: N_20  and  C_21
REMARK    7  A    between atoms: N_20  and  C_22
REMARK    8  A    between atoms: C_25  and  O_26
REMARK    9  A    between atoms: O_26  and  C_27
REMARK                            x       y       z     vdW  Elec       q    Type
REMARK                         _______ _______ _______ _____ _____    ______ ____
ROOT
ATOM      1  C   UNL     1       5.194   6.206  16.614  0.00  0.00    +0.000 A 
ATOM      2  C   UNL     1       4.296   7.247  16.863  0.00  0.00    +0.000 A 
ATOM      3  C   UNL     1       3.428   7.186  17.971  0.00  0.00    +0.000 A 
ATOM      4  C   UNL     1       2.482   8.078  18.512  0.00  0.00    +0.000 A 
ATOM      5  S   UNL     1       2.121   9.649  17.867  0.00  0.00    +0.000 S 
ATOM      6  C   UNL     1       0.907  10.250  19.017  0.00  0.00    +0.000 A 
ATOM      7  C   UNL     1       0.388  11.530  18.753  0.00  0.00    +0.000 A 
ATOM      8  C   UNL     1      -0.580  12.098  19.577  0.00  0.00    +0.000 A 
ATOM      9  C   UNL     1      -1.050  11.389  20.677  0.00  0.00    +0.000 A 
ATOM     10  C   UNL     1      -0.539  10.120  20.960  0.00  0.00    +0.000 A 
ATOM     11  C   UNL     1       0.450   9.543  20.140  0.00  0.00    +0.000 A 
ATOM     12  C   UNL     1       0.980   8.195  20.526  0.00  0.00    +0.000 A 
ATOM     13  O   UNL     1       0.594   7.702  21.582  0.00  0.00    +0.000 OA
ATOM     14  C   UNL     1       1.936   7.543  19.656  0.00  0.00    +0.000 A 
ATOM     15  N   UNL     1       2.506   6.280  19.800  0.00  0.00    +0.000 N 
ATOM     16  C   UNL     1       3.444   6.061  18.796  0.00  0.00    +0.000 A 
ATOM     17  C   UNL     1       4.310   4.980  18.528  0.00  0.00    +0.000 A 
ATOM     18  C   UNL     1       5.192   5.066  17.436  0.00  0.00    +0.000 A 
ENDROOT
BRANCH   1  20
ATOM     19  C   UNL     1       5.736   5.424  14.446  0.00  0.00    +0.000 C 
ATOM     20  O   UNL     1       6.084   6.237  15.565  0.00  0.00    +0.000 OA
ENDBRANCH   1  20
BRANCH  18  21
ATOM     21  O   UNL     1       6.095   4.083  17.100  0.00  0.00    +0.000 OA
ATOM     22  C   UNL     1       7.449   4.279  17.485  0.00  0.00    +0.000 C 
ENDBRANCH  18  21
BRANCH  15  23
ATOM     23  C   UNL     1       2.256   5.348  20.904  0.00  0.00    +0.000 C 
BRANCH  23  24
ATOM     24  C   UNL     1       1.118   4.351  20.626  0.00  0.00    +0.000 C 
BRANCH  24  25
ATOM     25  N   UNL     1       1.498   2.919  20.668  0.00  0.00    +0.000 NA
ATOM     26  C   UNL     1       1.705   2.353  19.333  0.00  0.00    +0.000 C 
ATOM     27  C   UNL     1       2.738   2.781  21.444  0.00  0.00    +0.000 C 
ENDBRANCH  24  25
ENDBRANCH  23  24
ENDBRANCH  15  23
TORSDOF 5
ENDMDL
MODEL 4
REMARK VINA RESULT:      -6.3      4.372      6.878
REMARK  Name = 
REMARK  9 active torsions:
REMARK  status: ('A' for Active; 'I' for Inactive)
REMARK    1  A    between atoms: C_1  and  O_2
REMARK    2  A    between atoms: O_2  and  C_3
REMARK    3  A    between atoms: N_17  and  C_18
REMARK    4  A    between atoms: C_18  and  C_19
REMARK    5  A    between atoms: C_19  and  N_20
REMARK    6  A    between atoms: N_20  and  C_21
REMARK    7  A    between atoms: N_20  and  C_22
REMARK    8  A    between atoms: C_25  and  O_26
REMARK    9  A    between atoms: O_26  and  C_27
REMARK                            x       y       z     vdW  Elec       q    Type
REMARK                         _______ _______ _______ _____ _____    ______ ____
ROOT
ATOM      1  C   UNL     1       5.731   4.085  13.228  0.00  0.00    +0.000 A 
ATOM      2  C   UNL     1       4.817   3.761  14.235  0.00  0.00    +0.000 A 
ATOM      3  C   UNL     1       5.165   3.929  15.590  0.00  0.00    +0.000 A 
ATOM      4  C   UNL     1       4.463   3.759  16.799  0.00  0.00    +0.000 A 
ATOM      5  S   UNL     1       2.810   3.243  16.920  0.00  0.00    +0.000 S 
ATOM      6  C   UNL     1       2.539   3.280  18.677  0.00  0.00    +0.000 A 
ATOM      7  C   UNL     1       1.261   2.888  19.112  0.00  0.00    +0.000 A 
ATOM      8  C   UNL     1       0.939   2.863  20.466  0.00  0.00    +0.000 A 
ATOM      9  C   UNL     1       1.895   3.225  21.409  0.00  0.00    +0.000 A 
ATOM     10  C   UNL     1       3.167   3.626  20.994  0.00  0.00    +0.000 A 
ATOM     11  C   UNL     1       3.499   3.667  19.625  0.00  0.00    +0.000 A 
ATOM     12  C   UNL     1       4.869   4.145  19.251  0.00  0.00    +0.000 A 
ATOM     13  O   UNL     1       5.601   4.561  20.145  0.00  0.00    +0.000 OA
ATOM     14  C   UNL     1       5.264   4.119  17.859  0.00  0.00    +0.000 A 
ATOM     15  N   UNL     1       6.497   4.466  17.309  0.00  0.00    +0.000 N 
ATOM     16  C   UNL     1       6.440   4.385  15.921  0.00  0.00    +0.000 A 
ATOM     17  C   UNL     1       7.390   4.668  14.917  0.00  0.00    +0.000 A 
ATOM     18  C   UNL     1       7.021   4.524  13.568  0.00  0.00    +0.000 A 
ENDROOT
BRANCH   1  20
ATOM     19  C   UNL     1       4.280   3.171  11.596  0.00  0.00    +0.000 C 
ATOM     20  O   UNL     1       5.424   3.969  11.892  0.00  0.00    +0.000 OA
ENDBRANCH   1  20
BRANCH  18  21
ATOM     21  O   UNL     1       7.858   4.798  12.510  0.00  0.00    +0.000 OA
ATOM     22  C   UNL     1       8.649   5.977  12.587  0.00  0.00    +0.000 C 
ENDBRANCH  18  21
BRANCH  15  23
ATOM     23  C   UNL     1       7.659   4.956  18.054  0.00  0.00    +0.000 C 
BRANCH  23  24
ATOM     24  C   UNL     1       7.556   6.438  18.457  0.00  0.00    +0.000 C 
BRANCH  24  25
ATOM     25  N   UNL     1       7.316   7.388  17.344  0.00  0.00    +0.000 NA
ATOM     26  C   UNL     1       5.890   7.629  17.109  0.00  0.00    +0.000 C 
ATOM     27  C   UNL     1       7.972   8.664  17.663  0.00  0.00    +0.000 C 
ENDBRANCH  24  25
ENDBRANCH  23  24
ENDBRANCH  15  23
TORSDOF 5
ENDMDL
MODEL 5
REMARK VINA RESULT:      -6.0      6.369      9.355
REMARK  Name = 
REMARK  9 active torsions:
REMARK  status: ('A' for Active; 'I' for Inactive)
REMARK    1  A    between atoms: C_1  and  O_2
REMARK    2  A    between atoms: O_2  and  C_3
REMARK    3  A    between atoms: N_17  and  C_18
REMARK    4  A    between atoms: C_18  and  C_19
REMARK    5  A    between atoms: C_19  and  N_20
REMARK    6  A    between atoms: N_20  and  C_21
REMARK    7  A    between atoms: N_20  and  C_22
REMARK    8  A    between atoms: C_25  and  O_26
REMARK    9  A    between atoms: O_26  and  C_27
REMARK                            x       y       z     vdW  Elec       q    Type
REMARK                         _______ _______ _______ _____ _____    ______ ____
ROOT
ATOM      1  C   UNL     1      -5.060  11.995  18.161  0.00  0.00    +0.000 A 
ATOM      2  C   UNL     1      -4.999  12.678  19.379  0.00  0.00    +0.000 A 
ATOM      3  C   UNL     1      -3.784  12.754  20.089  0.00  0.00    +0.000 A 
ATOM      4  C   UNL     1      -3.394  13.404  21.277  0.00  0.00    +0.000 A 
ATOM      5  S   UNL     1      -4.441  14.380  22.260  0.00  0.00    +0.000 S 
ATOM      6  C   UNL     1      -3.339  14.922  23.545  0.00  0.00    +0.000 A 
ATOM      7  C   UNL     1      -3.905  15.741  24.538  0.00  0.00    +0.000 A 
ATOM      8  C   UNL     1      -3.142  16.214  25.602  0.00  0.00    +0.000 A 
ATOM      9  C   UNL     1      -1.798  15.868  25.693  0.00  0.00    +0.000 A 
ATOM     10  C   UNL     1      -1.216  15.063  24.710  0.00  0.00    +0.000 A 
ATOM     11  C   UNL     1      -1.977  14.591  23.623  0.00  0.00    +0.000 A 
ATOM     12  C   UNL     1      -1.278  13.765  22.586  0.00  0.00    +0.000 A 
ATOM     13  O   UNL     1      -0.063  13.616  22.687  0.00  0.00    +0.000 OA
ATOM     14  C   UNL     1      -2.053  13.198  21.503  0.00  0.00    +0.000 A 
ATOM     15  N   UNL     1      -1.613  12.365  20.475  0.00  0.00    +0.000 N 
ATOM     16  C   UNL     1      -2.653  12.112  19.587  0.00  0.00    +0.000 A 
ATOM     17  C   UNL     1      -2.712  11.378  18.383  0.00  0.00    +0.000 A 
ATOM     18  C   UNL     1      -3.923  11.334  17.670  0.00  0.00    +0.000 A 
ENDROOT
BRANCH   1  20
ATOM     19  C   UNL     1      -6.760  13.178  17.013  0.00  0.00    +0.000 C 
ATOM     20  O   UNL     1      -6.215  11.923  17.417  0.00  0.00    +0.000 OA
ENDBRANCH   1  20
BRANCH  18  21
ATOM     21  O   UNL     1      -4.085  10.670  16.474  0.00  0.00    +0.000 OA
ATOM     22  C   UNL     1      -2.943  10.535  15.640  0.00  0.00    +0.000 C 
ENDBRANCH  18  21
BRANCH  15  23
ATOM     23  C   UNL     1      -0.235  11.905  20.277  0.00  0.00    +0.000 C 
BRANCH  23  24
ATOM     24  C   UNL     1       0.006  10.457  20.738  0.00  0.00    +0.000 C 
BRANCH  24  25
ATOM     25  N   UNL     1       0.461  10.299  22.140  0.00  0.00    +0.000 NA
ATOM     26  C   UNL     1      -0.649  10.083  23.070  0.00  0.00    +0.000 C 
ATOM     27  C   UNL     1       1.378   9.153  22.213  0.00  0.00    +0.000 C 
ENDBRANCH  24  25
ENDBRANCH  23  24
ENDBRANCH  15  23
TORSDOF 5
ENDMDL
MODEL 6
REMARK VINA RESULT:      -5.9      5.913      9.623
REMARK  Name = 
REMARK  9 active torsions:
REMARK  status: ('A' for Active; 'I' for Inactive)
REMARK    1  A    between atoms: C_1  and  O_2
REMARK    2  A    between atoms: O_2  and  C_3
REMARK    3  A    between atoms: N_17  and  C_18
REMARK    4  A    between atoms: C_18  and  C_19
REMARK    5  A    between atoms: C_19  and  N_20
REMARK    6  A    between atoms: N_20  and  C_21
REMARK    7  A    between atoms: N_20  and  C_22
REMARK    8  A    between atoms: C_25  and  O_26
REMARK    9  A    between atoms: O_26  and  C_27
REMARK                            x       y       z     vdW  Elec       q    Type
REMARK                         _______ _______ _______ _____ _____    ______ ____
ROOT
ATOM      1  C   UNL     1      -0.897  10.660  18.467  0.00  0.00    +0.000 A 
ATOM      2  C   UNL     1      -0.774  11.478  19.593  0.00  0.00    +0.000 A 
ATOM      3  C   UNL     1      -1.893  12.179  20.085  0.00  0.00    +0.000 A 
ATOM      4  C   UNL     1      -2.101  13.009  21.205  0.00  0.00    +0.000 A 
ATOM      5  S   UNL     1      -0.887  13.408  22.380  0.00  0.00    +0.000 S 
ATOM      6  C   UNL     1      -1.796  14.425  23.519  0.00  0.00    +0.000 A 
ATOM      7  C   UNL     1      -1.068  14.935  24.608  0.00  0.00    +0.000 A 
ATOM      8  C   UNL     1      -1.672  15.755  25.557  0.00  0.00    +0.000 A 
ATOM      9  C   UNL     1      -3.016  16.084  25.427  0.00  0.00    +0.000 A 
ATOM     10  C   UNL     1      -3.759  15.579  24.357  0.00  0.00    +0.000 A 
ATOM     11  C   UNL     1      -3.160  14.737  23.399  0.00  0.00    +0.000 A 
ATOM     12  C   UNL     1      -4.026  14.200  22.300  0.00  0.00    +0.000 A 
ATOM     13  O   UNL     1      -5.228  14.446  22.338  0.00  0.00    +0.000 OA
ATOM     14  C   UNL     1      -3.419  13.401  21.257  0.00  0.00    +0.000 A 
ATOM     15  N   UNL     1      -4.027  12.856  20.128  0.00  0.00    +0.000 N 
ATOM     16  C   UNL     1      -3.114  12.080  19.420  0.00  0.00    +0.000 A 
ATOM     17  C   UNL     1      -3.241  11.297  18.253  0.00  0.00    +0.000 A 
ATOM     18  C   UNL     1      -2.125  10.580  17.789  0.00  0.00    +0.000 A 
ENDROOT
BRANCH   1  20
ATOM     19  C   UNL     1       1.191   9.636  18.907  0.00  0.00    +0.000 C 
ATOM     20  O   UNL     1       0.158   9.930  17.970  0.00  0.00    +0.000 OA
ENDBRANCH   1  20
BRANCH  18  21
ATOM     21  O   UNL     1      -2.144   9.766  16.678  0.00  0.00    +0.000 OA
ATOM     22  C   UNL     1      -2.669  10.312  15.475  0.00  0.00    +0.000 C 
ENDBRANCH  18  21
BRANCH  15  23
ATOM     23  C   UNL     1      -5.446  12.974  19.779  0.00  0.00    +0.000 C 
BRANCH  23  24
ATOM     24  C   UNL     1      -6.316  11.833  20.333  0.00  0.00    +0.000 C 
BRANCH  24  25
ATOM     25  N   UNL     1      -7.201  11.166  19.348  0.00  0.00    +0.000 NA
ATOM     26  C   UNL     1      -7.006  11.670  17.987  0.00  0.00    +0.000 C 
ATOM     27  C   UNL     1      -6.929   9.722  19.368  0.00  0.00    +0.000 C 
ENDBRANCH  24  25
ENDBRANCH  23  24
ENDBRANCH  15  23
TORSDOF 5
ENDMDL
MODEL 7
REMARK VINA RESULT:      -5.9      4.268      6.759
REMARK  Name = 
REMARK  9 active torsions:
REMARK  status: ('A' for Active; 'I' for Inactive)
REMARK    1  A    between atoms: C_1  and  O_2
REMARK    2  A    between atoms: O_2  and  C_3
REMARK    3  A    between atoms: N_17  and  C_18
REMARK    4  A    between atoms: C_18  and  C_19
REMARK    5  A    between atoms: C_19  and  N_20
REMARK    6  A    between atoms: N_20  and  C_21
REMARK    7  A    between atoms: N_20  and  C_22
REMARK    8  A    between atoms: C_25  and  O_26
REMARK    9  A    between atoms: O_26  and  C_27
REMARK                            x       y       z     vdW  Elec       q    Type
REMARK                         _______ _______ _______ _____ _____    ______ ____
ROOT
ATOM      1  C   UNL     1       6.162   3.902  13.326  0.00  0.00    +0.000 A 
ATOM      2  C   UNL     1       5.202   3.567  14.285  0.00  0.00    +0.000 A 
ATOM      3  C   UNL     1       5.287   4.095  15.589  0.00  0.00    +0.000 A 
ATOM      4  C   UNL     1       4.464   4.002  16.728  0.00  0.00    +0.000 A 
ATOM      5  S   UNL     1       2.976   3.111  16.804  0.00  0.00    +0.000 S 
ATOM      6  C   UNL     1       2.435   3.438  18.465  0.00  0.00    +0.000 A 
ATOM      7  C   UNL     1       1.230   2.826  18.853  0.00  0.00    +0.000 A 
ATOM      8  C   UNL     1       0.715   2.998  20.135  0.00  0.00    +0.000 A 
ATOM      9  C   UNL     1       1.404   3.782  21.054  0.00  0.00    +0.000 A 
ATOM     10  C   UNL     1       2.598   4.405  20.684  0.00  0.00    +0.000 A 
ATOM     11  C   UNL     1       3.120   4.248  19.385  0.00  0.00    +0.000 A 
ATOM     12  C   UNL     1       4.384   4.977  19.045  0.00  0.00    +0.000 A 
ATOM     13  O   UNL     1       4.853   5.743  19.882  0.00  0.00    +0.000 OA
ATOM     14  C   UNL     1       4.986   4.768  17.745  0.00  0.00    +0.000 A 
ATOM     15  N   UNL     1       6.176   5.301  17.254  0.00  0.00    +0.000 N 
ATOM     16  C   UNL     1       6.356   4.924  15.926  0.00  0.00    +0.000 A 
ATOM     17  C   UNL     1       7.360   5.231  14.983  0.00  0.00    +0.000 A 
ATOM     18  C   UNL     1       7.247   4.722  13.677  0.00  0.00    +0.000 A 
ENDROOT
BRANCH   1  20
ATOM     19  C   UNL     1       4.809   3.024  11.593  0.00  0.00    +0.000 C 
ATOM     20  O   UNL     1       6.101   3.438  12.032  0.00  0.00    +0.000 OA
ENDBRANCH   1  20
BRANCH  18  21
ATOM     21  O   UNL     1       8.153   4.979  12.673  0.00  0.00    +0.000 OA
ATOM     22  C   UNL     1       7.960   6.157  11.902  0.00  0.00    +0.000 C 
ENDBRANCH  18  21
BRANCH  15  23
ATOM     23  C   UNL     1       7.064   6.219  17.972  0.00  0.00    +0.000 C 
BRANCH  23  24
ATOM     24  C   UNL     1       7.032   7.660  17.433  0.00  0.00    +0.000 C 
BRANCH  24  25
ATOM     25  N   UNL     1       8.222   8.487  17.747  0.00  0.00    +0.000 NA
ATOM     26  C   UNL     1       7.919   9.920  17.771  0.00  0.00    +0.000 C 
ATOM     27  C   UNL     1       8.743   8.085  19.061  0.00  0.00    +0.000 C 
ENDBRANCH  24  25
ENDBRANCH  23  24
ENDBRANCH  15  23
TORSDOF 5
ENDMDL
MODEL 8
REMARK VINA RESULT:      -5.7      5.643      8.997
REMARK  Name = 
REMARK  9 active torsions:
REMARK  status: ('A' for Active; 'I' for Inactive)
REMARK    1  A    between atoms: C_1  and  O_2
REMARK    2  A    between atoms: O_2  and  C_3
REMARK    3  A    between atoms: N_17  and  C_18
REMARK    4  A    between atoms: C_18  and  C_19
REMARK    5  A    between atoms: C_19  and  N_20
REMARK    6  A    between atoms: N_20  and  C_21
REMARK    7  A    between atoms: N_20  and  C_22
REMARK    8  A    between atoms: C_25  and  O_26
REMARK    9  A    between atoms: O_26  and  C_27
REMARK                            x       y       z     vdW  Elec       q    Type
REMARK                         _______ _______ _______ _____ _____    ______ ____
ROOT
ATOM      1  C   UNL     1      -4.841  11.815  18.187  0.00  0.00    +0.000 A 
ATOM      2  C   UNL     1      -4.806  12.506  19.401  0.00  0.00    +0.000 A 
ATOM      3  C   UNL     1      -3.588  12.667  20.091  0.00  0.00    +0.000 A 
ATOM      4  C   UNL     1      -3.224  13.348  21.269  0.00  0.00    +0.000 A 
ATOM      5  S   UNL     1      -4.317  14.256  22.266  0.00  0.00    +0.000 S 
ATOM      6  C   UNL     1      -3.234  14.878  23.531  0.00  0.00    +0.000 A 
ATOM      7  C   UNL     1      -3.838  15.662  24.529  0.00  0.00    +0.000 A 
ATOM      8  C   UNL     1      -3.092  16.190  25.579  0.00  0.00    +0.000 A 
ATOM      9  C   UNL     1      -1.726  15.937  25.649  0.00  0.00    +0.000 A 
ATOM     10  C   UNL     1      -1.108  15.168  24.661  0.00  0.00    +0.000 A 
ATOM     11  C   UNL     1      -1.852  14.639  23.588  0.00  0.00    +0.000 A 
ATOM     12  C   UNL     1      -1.115  13.857  22.543  0.00  0.00    +0.000 A 
ATOM     13  O   UNL     1       0.108  13.791  22.625  0.00  0.00    +0.000 OA
ATOM     14  C   UNL     1      -1.868  13.234  21.475  0.00  0.00    +0.000 A 
ATOM     15  N   UNL     1      -1.389  12.428  20.444  0.00  0.00    +0.000 N 
ATOM     16  C   UNL     1      -2.424  12.101  19.573  0.00  0.00    +0.000 A 
ATOM     17  C   UNL     1      -2.453  11.358  18.374  0.00  0.00    +0.000 A 
ATOM     18  C   UNL     1      -3.669  11.229  17.680  0.00  0.00    +0.000 A 
ENDROOT
BRANCH   1  20
ATOM     19  C   UNL     1      -7.127  12.383  17.954  0.00  0.00    +0.000 C 
ATOM     20  O   UNL     1      -6.000  11.662  17.462  0.00  0.00    +0.000 OA
ENDBRANCH   1  20
BRANCH  18  21
ATOM     21  O   UNL     1      -3.806  10.550  16.490  0.00  0.00    +0.000 OA
ATOM     22  C   UNL     1      -2.765  10.692  15.532  0.00  0.00    +0.000 C 
ENDBRANCH  18  21
BRANCH  15  23
ATOM     23  C   UNL     1       0.013  12.061  20.225  0.00  0.00    +0.000 C 
BRANCH  23  24
ATOM     24  C   UNL     1       0.442  10.784  20.970  0.00  0.00    +0.000 C 
BRANCH  24  25
ATOM     25  N   UNL     1       0.425   9.538  20.166  0.00  0.00    +0.000 NA
ATOM     26  C   UNL     1       1.006   9.721  18.834  0.00  0.00    +0.000 C 
ATOM     27  C   UNL     1       1.185   8.504  20.882  0.00  0.00    +0.000 C 
ENDBRANCH  24  25
ENDBRANCH  23  24
ENDBRANCH  15  23
TORSDOF 5
ENDMDL
MODEL 9
REMARK VINA RESULT:      -5.7      7.305      9.996
REMARK  Name = 
REMARK  9 active torsions:
REMARK  status: ('A' for Active; 'I' for Inactive)
REMARK    1  A    between atoms: C_1  and  O_2
REMARK    2  A    between atoms: O_2  and  C_3
REMARK    3  A    between atoms: N_17  and  C_18
REMARK    4  A    between atoms: C_18  and  C_19
REMARK    5  A    between atoms: C_19  and  N_20
REMARK    6  A    between atoms: N_20  and  C_21
REMARK    7  A    between atoms: N_20  and  C_22
REMARK    8  A    between atoms: C_25  and  O_26
REMARK    9  A    between atoms: O_26  and  C_27
REMARK                            x       y       z     vdW  Elec       q    Type
REMARK                         _______ _______ _______ _____ _____    ______ ____
ROOT
ATOM      1  C   UNL     1      -4.390  14.325  23.496  0.00  0.00    +0.000 A 
ATOM      2  C   UNL     1      -4.549  13.821  22.202  0.00  0.00    +0.000 A 
ATOM      3  C   UNL     1      -3.460  13.228  21.533  0.00  0.00    +0.000 A 
ATOM      4  C   UNL     1      -3.320  12.587  20.286  0.00  0.00    +0.000 A 
ATOM      5  S   UNL     1      -4.607  12.349  19.146  0.00  0.00    +0.000 S 
ATOM      6  C   UNL     1      -3.786  11.463  17.843  0.00  0.00    +0.000 A 
ATOM      7  C   UNL     1      -4.579  11.126  16.732  0.00  0.00    +0.000 A 
ATOM      8  C   UNL     1      -4.040  10.444  15.644  0.00  0.00    +0.000 A 
ATOM      9  C   UNL     1      -2.695  10.094  15.648  0.00  0.00    +0.000 A 
ATOM     10  C   UNL     1      -1.894  10.412  16.747  0.00  0.00    +0.000 A 
ATOM     11  C   UNL     1      -2.433  11.090  17.859  0.00  0.00    +0.000 A 
ATOM     12  C   UNL     1      -1.525  11.363  19.019  0.00  0.00    +0.000 A 
ATOM     13  O   UNL     1      -0.385  10.907  18.983  0.00  0.00    +0.000 OA
ATOM     14  C   UNL     1      -2.030  12.130  20.138  0.00  0.00    +0.000 A 
ATOM     15  N   UNL     1      -1.344  12.537  21.281  0.00  0.00    +0.000 N 
ATOM     16  C   UNL     1      -2.213  13.181  22.157  0.00  0.00    +0.000 A 
ATOM     17  C   UNL     1      -2.026  13.731  23.442  0.00  0.00    +0.000 A 
ATOM     18  C   UNL     1      -3.127  14.293  24.111  0.00  0.00    +0.000 A 
ENDROOT
BRANCH   1  20
ATOM     19  C   UNL     1      -6.735  14.493  23.772  0.00  0.00    +0.000 C 
ATOM     20  O   UNL     1      -5.432  14.882  24.201  0.00  0.00    +0.000 OA
ENDBRANCH   1  20
BRANCH  18  21
ATOM     21  O   UNL     1      -3.063  14.833  25.376  0.00  0.00    +0.000 OA
ATOM     22  C   UNL     1      -1.921  15.615  25.697  0.00  0.00    +0.000 C 
ENDBRANCH  18  21
BRANCH  15  23
ATOM     23  C   UNL     1       0.058  12.242  21.588  0.00  0.00    +0.000 C 
BRANCH  23  24
ATOM     24  C   UNL     1       1.052  13.238  20.965  0.00  0.00    +0.000 C 
BRANCH  24  25
ATOM     25  N   UNL     1       1.753  14.126  21.923  0.00  0.00    +0.000 NA
ATOM     26  C   UNL     1       3.109  14.465  21.485  0.00  0.00    +0.000 C 
ATOM     27  C   UNL     1       0.976  15.364  22.075  0.00  0.00    +0.000 C 
ENDBRANCH  24  25
ENDBRANCH  23  24
ENDBRANCH  15  23
TORSDOF 5
ENDMDL
