MODEL 1
REMARK VINA RESULT:      -8.0      0.000      0.000
REMARK  Name = 
REMARK  3 active torsions:
REMARK  status: ('A' for Active; 'I' for Inactive)
REMARK    1  A    between atoms: C_1  and  N_2
REMARK    2  A    between atoms: C_8  and  N_9
REMARK    3  A    between atoms: C_16  and  C_17
REMARK                            x       y       z     vdW  Elec       q    Type
REMARK                         _______ _______ _______ _____ _____    ______ ____
ROOT
ATOM      1  N   UNL     1       2.475   6.965  19.941  0.00  0.00    +0.000 N 
ATOM      2  C   UNL     1       2.173   5.676  20.307  0.00  0.00    +0.000 C 
ATOM      3  O   UNL     1       1.090   5.324  20.774  0.00  0.00    +0.000 OA
ATOM      4  N   UNL     1       3.177   4.739  20.120  0.00  0.00    +0.000 N 
ATOM      5  C   UNL     1       4.511   4.910  19.536  0.00  0.00    +0.000 C 
ATOM      6  C   UNL     1       4.764   3.863  18.439  0.00  0.00    +0.000 C 
ATOM      7  O   UNL     1       4.467   2.525  18.872  0.00  0.00    +0.000 OA
ATOM      8  C   UNL     1       3.125   2.388  19.368  0.00  0.00    +0.000 C 
ATOM      9  C   UNL     1       2.921   3.356  20.539  0.00  0.00    +0.000 C 
ATOM     10  H   UNL     1       3.278   7.105  19.357  0.00  0.00    +0.000 HD
ENDROOT
BRANCH   1  18
ATOM     11  C   UNL     1      -1.264  12.258  19.279  0.00  0.00    +0.000 C 
ATOM     12  N   UNL     1      -0.785  11.578  20.477  0.00  0.00    +0.000 N 
ATOM     13  C   UNL     1      -1.662  11.649  21.649  0.00  0.00    +0.000 C 
ATOM     14  C   UNL     1      -0.899  11.277  22.908  0.00  0.00    +0.000 C 
ATOM     15  C   UNL     1      -0.405   9.847  22.789  0.00  0.00    +0.000 C 
ATOM     16  C   UNL     1       0.252   9.593  21.455  0.00  0.00    +0.000 A 
ATOM     17  C   UNL     1       1.064   8.448  21.336  0.00  0.00    +0.000 A 
ATOM     18  C   UNL     1       1.665   8.110  20.128  0.00  0.00    +0.000 A 
ATOM     19  C   UNL     1       1.469   8.955  19.037  0.00  0.00    +0.000 A 
ATOM     20  C   UNL     1       0.661  10.098  19.151  0.00  0.00    +0.000 A 
ATOM     21  C   UNL     1       0.014  10.435  20.349  0.00  0.00    +0.000 A 
ENDBRANCH   1  18
BRANCH   8  22
ATOM     22  C   UNL     1       1.992   2.496  18.317  0.00  0.00    +0.000 C 
ATOM     23  N   UNL     1       0.719   2.654  18.797  0.00  0.00    +0.000 N 
ATOM     24  O   UNL     1       2.164   2.385  17.105  0.00  0.00    +0.000 OA
ATOM     25  H   UNL     1       0.530   3.058  19.703  0.00  0.00    +0.000 HD
ATOM     26  H   UNL     1       0.009   2.812  18.090  0.00  0.00    +0.000 HD
ENDBRANCH   8  22
TORSDOF 2
ENDMDL
MODEL 2
REMARK VINA RESULT:      -7.7      0.700      1.834
REMARK  Name = 
REMARK  3 active torsions:
REMARK  status: ('A' for Active; 'I' for Inactive)
REMARK    1  A    between atoms: C_1  and  N_2
REMARK    2  A    between atoms: C_8  and  N_9
REMARK    3  A    between atoms: C_16  and  C_17
REMARK                            x       y       z     vdW  Elec       q    Type
REMARK                         _______ _______ _______ _____ _____    ______ ____
ROOT
ATOM      1  N   UNL     1       2.347   7.248  20.063  0.00  0.00    +0.000 N 
ATOM      2  C   UNL     1       2.153   5.910  20.311  0.00  0.00    +0.000 C 
ATOM      3  O   UNL     1       1.115   5.434  20.768  0.00  0.00    +0.000 OA
ATOM      4  N   UNL     1       3.217   5.076  20.009  0.00  0.00    +0.000 N 
ATOM      5  C   UNL     1       4.515   5.403  19.411  0.00  0.00    +0.000 C 
ATOM      6  C   UNL     1       4.810   4.486  18.212  0.00  0.00    +0.000 C 
ATOM      7  O   UNL     1       4.626   3.095  18.521  0.00  0.00    +0.000 OA
ATOM      8  C   UNL     1       3.316   2.809  19.036  0.00  0.00    +0.000 C 
ATOM      9  C   UNL     1       3.079   3.644  20.299  0.00  0.00    +0.000 C 
ATOM     10  H   UNL     1       3.118   7.504  19.475  0.00  0.00    +0.000 HD
ENDROOT
BRANCH   1  18
ATOM     11  C   UNL     1      -1.201  11.898  22.930  0.00  0.00    +0.000 C 
ATOM     12  N   UNL     1      -1.147  11.468  21.537  0.00  0.00    +0.000 N 
ATOM     13  C   UNL     1      -1.410  12.505  20.535  0.00  0.00    +0.000 C 
ATOM     14  C   UNL     1      -1.726  11.877  19.190  0.00  0.00    +0.000 C 
ATOM     15  C   UNL     1      -0.529  11.074  18.718  0.00  0.00    +0.000 C 
ATOM     16  C   UNL     1       0.013  10.186  19.811  0.00  0.00    +0.000 A 
ATOM     17  C   UNL     1       0.875   9.137  19.432  0.00  0.00    +0.000 A 
ATOM     18  C   UNL     1       1.460   8.304  20.380  0.00  0.00    +0.000 A 
ATOM     19  C   UNL     1       1.148   8.513  21.722  0.00  0.00    +0.000 A 
ATOM     20  C   UNL     1       0.289   9.556  22.105  0.00  0.00    +0.000 A 
ATOM     21  C   UNL     1      -0.281  10.432  21.168  0.00  0.00    +0.000 A 
ENDBRANCH   1  18
BRANCH   8  22
ATOM     22  C   UNL     1       2.144   2.927  18.029  0.00  0.00    +0.000 C 
ATOM     23  N   UNL     1       0.878   2.915  18.552  0.00  0.00    +0.000 N 
ATOM     24  O   UNL     1       2.286   2.966  16.809  0.00  0.00    +0.000 OA
ATOM     25  H   UNL     1       0.684   3.199  19.502  0.00  0.00    +0.000 HD
ATOM     26  H   UNL     1       0.134   3.084  17.883  0.00  0.00    +0.000 HD
ENDBRANCH   8  22
TORSDOF 2
ENDMDL
MODEL 3
REMARK VINA RESULT:      -7.5      0.983      1.000
REMARK  Name = 
REMARK  3 active torsions:
REMARK  status: ('A' for Active; 'I' for Inactive)
REMARK    1  A    between atoms: C_1  and  N_2
REMARK    2  A    between atoms: C_8  and  N_9
REMARK    3  A    between atoms: C_16  and  C_17
REMARK                            x       y       z     vdW  Elec       q    Type
REMARK                         _______ _______ _______ _____ _____    ______ ____
ROOT
ATOM      1  N   UNL     1       2.339   7.602  19.097  0.00  0.00    +0.000 N 
ATOM      2  C   UNL     1       2.436   6.352  19.659  0.00  0.00    +0.000 C 
ATOM      3  O   UNL     1       1.717   5.945  20.571  0.00  0.00    +0.000 OA
ATOM      4  N   UNL     1       3.416   5.524  19.136  0.00  0.00    +0.000 N 
ATOM      5  C   UNL     1       4.342   5.767  18.025  0.00  0.00    +0.000 C 
ATOM      6  C   UNL     1       4.294   4.610  17.013  0.00  0.00    +0.000 C 
ATOM      7  O   UNL     1       4.431   3.323  17.637  0.00  0.00    +0.000 OA
ATOM      8  C   UNL     1       3.457   3.100  18.670  0.00  0.00    +0.000 C 
ATOM      9  C   UNL     1       3.593   4.195  19.733  0.00  0.00    +0.000 C 
ATOM     10  H   UNL     1       2.794   7.751  18.216  0.00  0.00    +0.000 HD
ENDROOT
BRANCH   1  18
ATOM     11  C   UNL     1      -1.713  12.682  19.551  0.00  0.00    +0.000 C 
ATOM     12  N   UNL     1      -1.073  11.883  20.589  0.00  0.00    +0.000 N 
ATOM     13  C   UNL     1      -1.820  11.742  21.842  0.00  0.00    +0.000 C 
ATOM     14  C   UNL     1      -0.907  11.258  22.954  0.00  0.00    +0.000 C 
ATOM     15  C   UNL     1      -0.356   9.891  22.591  0.00  0.00    +0.000 C 
ATOM     16  C   UNL     1       0.164   9.858  21.175  0.00  0.00    +0.000 A 
ATOM     17  C   UNL     1       1.015   8.793  20.818  0.00  0.00    +0.000 A 
ATOM     18  C   UNL     1       1.497   8.657  19.520  0.00  0.00    +0.000 A 
ATOM     19  C   UNL     1       1.140   9.624  18.581  0.00  0.00    +0.000 A 
ATOM     20  C   UNL     1       0.293  10.687  18.932  0.00  0.00    +0.000 A 
ATOM     21  C   UNL     1      -0.236  10.821  20.225  0.00  0.00    +0.000 A 
ENDBRANCH   1  18
BRANCH   8  22
ATOM     22  C   UNL     1       1.991   2.920  18.201  0.00  0.00    +0.000 C 
ATOM     23  N   UNL     1       1.368   1.754  18.559  0.00  0.00    +0.000 N 
ATOM     24  O   UNL     1       1.393   3.722  17.487  0.00  0.00    +0.000 OA
ATOM     25  H   UNL     1       1.650   1.217  19.368  0.00  0.00    +0.000 HD
ATOM     26  H   UNL     1       0.385   1.699  18.318  0.00  0.00    +0.000 HD
ENDBRANCH   8  22
TORSDOF 2
ENDMDL
MODEL 4
REMARK VINA RESULT:      -7.5      1.190      1.243
REMARK  Name = 
REMARK  3 active torsions:
REMARK  status: ('A' for Active; 'I' for Inactive)
REMARK    1  A    between atoms: C_1  and  N_2
REMARK    2  A    between atoms: C_8  and  N_9
REMARK    3  A    between atoms: C_16  and  C_17
REMARK                            x       y       z     vdW  Elec       q    Type
REMARK                         _______ _______ _______ _____ _____    ______ ____
ROOT
ATOM      1  N   UNL     1       2.320   7.253  18.862  0.00  0.00    +0.000 N 
ATOM      2  C   UNL     1       2.371   6.163  19.697  0.00  0.00    +0.000 C 
ATOM      3  O   UNL     1       1.815   6.102  20.792  0.00  0.00    +0.000 OA
ATOM      4  N   UNL     1       3.104   5.079  19.237  0.00  0.00    +0.000 N 
ATOM      5  C   UNL     1       3.798   4.902  17.958  0.00  0.00    +0.000 C 
ATOM      6  C   UNL     1       3.389   3.576  17.296  0.00  0.00    +0.000 C 
ATOM      7  O   UNL     1       3.487   2.457  18.192  0.00  0.00    +0.000 OA
ATOM      8  C   UNL     1       2.733   2.644  19.400  0.00  0.00    +0.000 C 
ATOM      9  C   UNL     1       3.230   3.907  20.111  0.00  0.00    +0.000 C 
ATOM     10  H   UNL     1       2.594   7.119  17.907  0.00  0.00    +0.000 HD
ENDROOT
BRANCH   1  18
ATOM     11  C   UNL     1      -0.246  13.237  18.662  0.00  0.00    +0.000 C 
ATOM     12  N   UNL     1      -0.032  12.333  19.786  0.00  0.00    +0.000 N 
ATOM     13  C   UNL     1      -0.995  12.438  20.886  0.00  0.00    +0.000 C 
ATOM     14  C   UNL     1      -0.451  11.768  22.135  0.00  0.00    +0.000 C 
ATOM     15  C   UNL     1      -0.230  10.293  21.856  0.00  0.00    +0.000 C 
ATOM     16  C   UNL     1       0.499  10.075  20.554  0.00  0.00    +0.000 A 
ATOM     17  C   UNL     1       1.084   8.811  20.338  0.00  0.00    +0.000 A 
ATOM     18  C   UNL     1       1.730   8.507  19.145  0.00  0.00    +0.000 A 
ATOM     19  C   UNL     1       1.812   9.501  18.170  0.00  0.00    +0.000 A 
ATOM     20  C   UNL     1       1.231  10.762  18.380  0.00  0.00    +0.000 A 
ATOM     21  C   UNL     1       0.542  11.076  19.562  0.00  0.00    +0.000 A 
ENDBRANCH   1  18
BRANCH   8  22
ATOM     22  C   UNL     1       1.190   2.625  19.253  0.00  0.00    +0.000 C 
ATOM     23  N   UNL     1       0.467   3.184  20.273  0.00  0.00    +0.000 N 
ATOM     24  O   UNL     1       0.593   2.089  18.321  0.00  0.00    +0.000 OA
ATOM     25  H   UNL     1       0.851   3.894  20.881  0.00  0.00    +0.000 HD
ATOM     26  H   UNL     1      -0.533   3.240  20.112  0.00  0.00    +0.000 HD
ENDBRANCH   8  22
TORSDOF 2
ENDMDL
MODEL 5
REMARK VINA RESULT:      -7.3      3.145      8.209
REMARK  Name = 
REMARK  3 active torsions:
REMARK  status: ('A' for Active; 'I' for Inactive)
REMARK    1  A    between atoms: C_1  and  N_2
REMARK    2  A    between atoms: C_8  and  N_9
REMARK    3  A    between atoms: C_16  and  C_17
REMARK                            x       y       z     vdW  Elec       q    Type
REMARK                         _______ _______ _______ _____ _____    ______ ____
ROOT
ATOM      1  N   UNL     1       1.843   8.444  19.400  0.00  0.00    +0.000 N 
ATOM      2  C   UNL     1       1.485   9.567  18.693  0.00  0.00    +0.000 C 
ATOM      3  O   UNL     1       1.603   9.686  17.475  0.00  0.00    +0.000 OA
ATOM      4  N   UNL     1       0.955  10.610  19.437  0.00  0.00    +0.000 N 
ATOM      5  C   UNL     1       0.670  10.677  20.874  0.00  0.00    +0.000 C 
ATOM      6  C   UNL     1      -0.772  11.150  21.121  0.00  0.00    +0.000 C 
ATOM      7  O   UNL     1      -1.096  12.343  20.390  0.00  0.00    +0.000 OA
ATOM      8  C   UNL     1      -0.870  12.208  18.978  0.00  0.00    +0.000 C 
ATOM      9  C   UNL     1       0.601  11.850  18.737  0.00  0.00    +0.000 C 
ATOM     10  H   UNL     1       1.489   8.351  20.334  0.00  0.00    +0.000 HD
ENDROOT
BRANCH   1  18
ATOM     11  C   UNL     1       3.721   2.423  17.773  0.00  0.00    +0.000 C 
ATOM     12  N   UNL     1       4.309   3.719  17.455  0.00  0.00    +0.000 N 
ATOM     13  C   UNL     1       5.013   3.807  16.172  0.00  0.00    +0.000 C 
ATOM     14  C   UNL     1       5.906   5.034  16.139  0.00  0.00    +0.000 C 
ATOM     15  C   UNL     1       5.051   6.279  16.281  0.00  0.00    +0.000 C 
ATOM     16  C   UNL     1       4.059   6.149  17.410  0.00  0.00    +0.000 A 
ATOM     17  C   UNL     1       3.458   7.331  17.889  0.00  0.00    +0.000 A 
ATOM     18  C   UNL     1       2.495   7.296  18.891  0.00  0.00    +0.000 A 
ATOM     19  C   UNL     1       2.158   6.059  19.437  0.00  0.00    +0.000 A 
ATOM     20  C   UNL     1       2.755   4.879  18.964  0.00  0.00    +0.000 A 
ATOM     21  C   UNL     1       3.700   4.888  17.927  0.00  0.00    +0.000 A 
ENDBRANCH   1  18
BRANCH   8  22
ATOM     22  C   UNL     1      -1.833  11.261  18.218  0.00  0.00    +0.000 C 
ATOM     23  N   UNL     1      -1.352  10.677  17.077  0.00  0.00    +0.000 N 
ATOM     24  O   UNL     1      -3.002  11.062  18.543  0.00  0.00    +0.000 OA
ATOM     25  H   UNL     1      -0.364  10.532  16.920  0.00  0.00    +0.000 HD
ATOM     26  H   UNL     1      -1.968   9.995  16.649  0.00  0.00    +0.000 HD
ENDBRANCH   8  22
TORSDOF 2
ENDMDL
MODEL 6
REMARK VINA RESULT:      -7.3      2.998      7.928
REMARK  Name = 
REMARK  3 active torsions:
REMARK  status: ('A' for Active; 'I' for Inactive)
REMARK    1  A    between atoms: C_1  and  N_2
REMARK    2  A    between atoms: C_8  and  N_9
REMARK    3  A    between atoms: C_16  and  C_17
REMARK                            x       y       z     vdW  Elec       q    Type
REMARK                         _______ _______ _______ _____ _____    ______ ____
ROOT
ATOM      1  N   UNL     1       1.458   8.712  19.943  0.00  0.00    +0.000 N 
ATOM      2  C   UNL     1       1.232   9.705  19.020  0.00  0.00    +0.000 C 
ATOM      3  O   UNL     1       1.282   9.543  17.802  0.00  0.00    +0.000 OA
ATOM      4  N   UNL     1       0.927  10.955  19.535  0.00  0.00    +0.000 N 
ATOM      5  C   UNL     1       0.758  11.370  20.931  0.00  0.00    +0.000 C 
ATOM      6  C   UNL     1      -0.570  12.121  21.120  0.00  0.00    +0.000 C 
ATOM      7  O   UNL     1      -0.754  13.171  20.156  0.00  0.00    +0.000 OA
ATOM      8  C   UNL     1      -0.652  12.705  18.801  0.00  0.00    +0.000 C 
ATOM      9  C   UNL     1       0.723  12.062  18.593  0.00  0.00    +0.000 C 
ATOM     10  H   UNL     1       1.161   8.879  20.886  0.00  0.00    +0.000 HD
ENDROOT
BRANCH   1  18
ATOM     11  C   UNL     1       4.305   3.307  17.680  0.00  0.00    +0.000 C 
ATOM     12  N   UNL     1       3.296   3.486  18.718  0.00  0.00    +0.000 N 
ATOM     13  C   UNL     1       3.319   2.508  19.810  0.00  0.00    +0.000 C 
ATOM     14  C   UNL     1       2.013   2.543  20.583  0.00  0.00    +0.000 C 
ATOM     15  C   UNL     1       1.833   3.917  21.200  0.00  0.00    +0.000 C 
ATOM     16  C   UNL     1       2.102   5.017  20.202  0.00  0.00    +0.000 A 
ATOM     17  C   UNL     1       1.635   6.309  20.514  0.00  0.00    +0.000 A 
ATOM     18  C   UNL     1       1.884   7.390  19.675  0.00  0.00    +0.000 A 
ATOM     19  C   UNL     1       2.585   7.157  18.493  0.00  0.00    +0.000 A 
ATOM     20  C   UNL     1       3.052   5.870  18.177  0.00  0.00    +0.000 A 
ATOM     21  C   UNL     1       2.845   4.774  19.028  0.00  0.00    +0.000 A 
ENDBRANCH   1  18
BRANCH   8  22
ATOM     22  C   UNL     1      -1.803  11.797  18.301  0.00  0.00    +0.000 C 
ATOM     23  N   UNL     1      -1.543  11.015  17.207  0.00  0.00    +0.000 N 
ATOM     24  O   UNL     1      -2.933  11.787  18.786  0.00  0.00    +0.000 OA
ATOM     25  H   UNL     1      -0.606  10.730  16.959  0.00  0.00    +0.000 HD
ATOM     26  H   UNL     1      -2.280  10.366  16.955  0.00  0.00    +0.000 HD
ENDBRANCH   8  22
TORSDOF 2
ENDMDL
MODEL 7
REMARK VINA RESULT:      -7.2      3.126      8.107
REMARK  Name = 
REMARK  3 active torsions:
REMARK  status: ('A' for Active; 'I' for Inactive)
REMARK    1  A    between atoms: C_1  and  N_2
REMARK    2  A    between atoms: C_8  and  N_9
REMARK    3  A    between atoms: C_16  and  C_17
REMARK                            x       y       z     vdW  Elec       q    Type
REMARK                         _______ _______ _______ _____ _____    ______ ____
ROOT
ATOM      1  N   UNL     1       1.840   8.328  19.269  0.00  0.00    +0.000 N 
ATOM      2  C   UNL     1       1.618   9.526  18.634  0.00  0.00    +0.000 C 
ATOM      3  O   UNL     1       1.804   9.719  17.433  0.00  0.00    +0.000 OA
ATOM      4  N   UNL     1       1.150  10.559  19.431  0.00  0.00    +0.000 N 
ATOM      5  C   UNL     1       0.804  10.550  20.856  0.00  0.00    +0.000 C 
ATOM      6  C   UNL     1      -0.600  11.136  21.079  0.00  0.00    +0.000 C 
ATOM      7  O   UNL     1      -0.781  12.403  20.427  0.00  0.00    +0.000 OA
ATOM      8  C   UNL     1      -0.501  12.348  19.019  0.00  0.00    +0.000 C 
ATOM      9  C   UNL     1       0.941  11.873  18.811  0.00  0.00    +0.000 C 
ATOM     10  H   UNL     1       1.435   8.203  20.178  0.00  0.00    +0.000 HD
ENDROOT
BRANCH   1  18
ATOM     11  C   UNL     1       5.622   3.901  16.348  0.00  0.00    +0.000 C 
ATOM     12  N   UNL     1       4.296   3.773  16.942  0.00  0.00    +0.000 N 
ATOM     13  C   UNL     1       3.978   2.466  17.524  0.00  0.00    +0.000 C 
ATOM     14  C   UNL     1       2.480   2.327  17.733  0.00  0.00    +0.000 C 
ATOM     15  C   UNL     1       2.009   3.392  18.706  0.00  0.00    +0.000 C 
ATOM     16  C   UNL     1       2.558   4.752  18.353  0.00  0.00    +0.000 A 
ATOM     17  C   UNL     1       1.936   5.876  18.932  0.00  0.00    +0.000 A 
ATOM     18  C   UNL     1       2.410   7.163  18.702  0.00  0.00    +0.000 A 
ATOM     19  C   UNL     1       3.504   7.319  17.854  0.00  0.00    +0.000 A 
ATOM     20  C   UNL     1       4.128   6.202  17.273  0.00  0.00    +0.000 A 
ATOM     21  C   UNL     1       3.690   4.893  17.523  0.00  0.00    +0.000 A 
ENDBRANCH   1  18
BRANCH   8  22
ATOM     22  C   UNL     1      -1.508  11.551  18.152  0.00  0.00    +0.000 C 
ATOM     23  N   UNL     1      -1.842  12.093  16.939  0.00  0.00    +0.000 N 
ATOM     24  O   UNL     1      -2.059  10.514  18.514  0.00  0.00    +0.000 OA
ATOM     25  H   UNL     1      -1.232  12.731  16.447  0.00  0.00    +0.000 HD
ATOM     26  H   UNL     1      -2.431  11.511  16.354  0.00  0.00    +0.000 HD
ENDBRANCH   8  22
TORSDOF 2
ENDMDL
MODEL 8
REMARK VINA RESULT:      -7.1      2.646      4.037
REMARK  Name = 
REMARK  3 active torsions:
REMARK  status: ('A' for Active; 'I' for Inactive)
REMARK    1  A    between atoms: C_1  and  N_2
REMARK    2  A    between atoms: C_8  and  N_9
REMARK    3  A    between atoms: C_16  and  C_17
REMARK                            x       y       z     vdW  Elec       q    Type
REMARK                         _______ _______ _______ _____ _____    ______ ____
ROOT
ATOM      1  N   UNL     1       2.878   6.470  18.309  0.00  0.00    +0.000 N 
ATOM      2  C   UNL     1       3.993   6.746  17.555  0.00  0.00    +0.000 C 
ATOM      3  O   UNL     1       4.569   7.832  17.542  0.00  0.00    +0.000 OA
ATOM      4  N   UNL     1       4.472   5.705  16.775  0.00  0.00    +0.000 N 
ATOM      5  C   UNL     1       3.992   4.323  16.672  0.00  0.00    +0.000 C 
ATOM      6  C   UNL     1       5.149   3.329  16.862  0.00  0.00    +0.000 C 
ATOM      7  O   UNL     1       6.282   3.633  16.033  0.00  0.00    +0.000 OA
ATOM      8  C   UNL     1       6.764   4.973  16.221  0.00  0.00    +0.000 C 
ATOM      9  C   UNL     1       5.633   5.961  15.915  0.00  0.00    +0.000 C 
ATOM     10  H   UNL     1       2.632   5.506  18.438  0.00  0.00    +0.000 HD
ENDROOT
BRANCH   1  18
ATOM     11  C   UNL     1      -0.046   9.787  23.093  0.00  0.00    +0.000 C 
ATOM     12  N   UNL     1      -0.015  10.024  21.655  0.00  0.00    +0.000 N 
ATOM     13  C   UNL     1      -0.098  11.426  21.234  0.00  0.00    +0.000 C 
ATOM     14  C   UNL     1      -0.463  11.520  19.764  0.00  0.00    +0.000 C 
ATOM     15  C   UNL     1       0.620  10.854  18.935  0.00  0.00    +0.000 C 
ATOM     16  C   UNL     1       0.998   9.504  19.492  0.00  0.00    +0.000 A 
ATOM     17  C   UNL     1       1.711   8.627  18.650  0.00  0.00    +0.000 A 
ATOM     18  C   UNL     1       2.144   7.385  19.100  0.00  0.00    +0.000 A 
ATOM     19  C   UNL     1       1.827   7.011  20.405  0.00  0.00    +0.000 A 
ATOM     20  C   UNL     1       1.115   7.880  21.248  0.00  0.00    +0.000 A 
ATOM     21  C   UNL     1       0.704   9.154  20.827  0.00  0.00    +0.000 A 
ENDBRANCH   1  18
BRANCH   8  22
ATOM     22  C   UNL     1       7.447   5.271  17.579  0.00  0.00    +0.000 C 
ATOM     23  N   UNL     1       7.525   6.585  17.956  0.00  0.00    +0.000 N 
ATOM     24  O   UNL     1       7.968   4.414  18.291  0.00  0.00    +0.000 OA
ATOM     25  H   UNL     1       6.878   7.283  17.617  0.00  0.00    +0.000 HD
ATOM     26  H   UNL     1       7.895   6.746  18.887  0.00  0.00    +0.000 HD
ENDBRANCH   8  22
TORSDOF 2
ENDMDL
MODEL 9
REMARK VINA RESULT:      -7.1      2.177      3.346
REMARK  Name = 
REMARK  3 active torsions:
REMARK  status: ('A' for Active; 'I' for Inactive)
REMARK    1  A    between atoms: C_1  and  N_2
REMARK    2  A    between atoms: C_8  and  N_9
REMARK    3  A    between atoms: C_16  and  C_17
REMARK                            x       y       z     vdW  Elec       q    Type
REMARK                         _______ _______ _______ _____ _____    ______ ____
ROOT
ATOM      1  N   UNL     1       2.560   7.252  19.912  0.00  0.00    +0.000 N 
ATOM      2  C   UNL     1       2.729   6.677  18.675  0.00  0.00    +0.000 C 
ATOM      3  O   UNL     1       2.144   7.040  17.656  0.00  0.00    +0.000 OA
ATOM      4  N   UNL     1       3.628   5.624  18.613  0.00  0.00    +0.000 N 
ATOM      5  C   UNL     1       4.474   5.059  19.669  0.00  0.00    +0.000 C 
ATOM      6  C   UNL     1       5.937   4.968  19.206  0.00  0.00    +0.000 C 
ATOM      7  O   UNL     1       6.073   4.332  17.925  0.00  0.00    +0.000 OA
ATOM      8  C   UNL     1       5.284   4.963  16.904  0.00  0.00    +0.000 C 
ATOM      9  C   UNL     1       3.810   4.944  17.325  0.00  0.00    +0.000 C 
ATOM     10  H   UNL     1       3.247   7.052  20.614  0.00  0.00    +0.000 HD
ENDROOT
BRANCH   1  18
ATOM     11  C   UNL     1      -1.409  11.457  22.912  0.00  0.00    +0.000 C 
ATOM     12  N   UNL     1      -1.135  11.257  21.493  0.00  0.00    +0.000 N 
ATOM     13  C   UNL     1      -1.240  12.447  20.645  0.00  0.00    +0.000 C 
ATOM     14  C   UNL     1      -1.340  12.052  19.183  0.00  0.00    +0.000 C 
ATOM     15  C   UNL     1      -0.080  11.309  18.779  0.00  0.00    +0.000 C 
ATOM     16  C   UNL     1       0.286  10.244  19.783  0.00  0.00    +0.000 A 
ATOM     17  C   UNL     1       1.200   9.251  19.376  0.00  0.00    +0.000 A 
ATOM     18  C   UNL     1       1.632   8.263  20.254  0.00  0.00    +0.000 A 
ATOM     19  C   UNL     1       1.111   8.260  21.547  0.00  0.00    +0.000 A 
ATOM     20  C   UNL     1       0.199   9.246  21.957  0.00  0.00    +0.000 A 
ATOM     21  C   UNL     1      -0.219  10.274  21.099  0.00  0.00    +0.000 A 
ENDBRANCH   1  18
BRANCH   8  22
ATOM     22  C   UNL     1       5.744   6.374  16.457  0.00  0.00    +0.000 C 
ATOM     23  N   UNL     1       4.884   7.079  15.659  0.00  0.00    +0.000 N 
ATOM     24  O   UNL     1       6.844   6.856  16.722  0.00  0.00    +0.000 OA
ATOM     25  H   UNL     1       3.887   6.912  15.659  0.00  0.00    +0.000 HD
ATOM     26  H   UNL     1       5.168   8.031  15.454  0.00  0.00    +0.000 HD
ENDBRANCH   8  22
TORSDOF 2
ENDMDL
