MODEL 1
REMARK VINA RESULT:      -7.8      0.000      0.000
REMARK  Name = 
REMARK  2 active torsions:
REMARK  status: ('A' for Active; 'I' for Inactive)
REMARK    1  A    between atoms: C_1  and  N_2
REMARK    2  A    between atoms: C_10  and  C_11
REMARK                            x       y       z     vdW  Elec       q    Type
REMARK                         _______ _______ _______ _____ _____    ______ ____
ROOT
ATOM      1  C   UNL     1       3.680   7.333  17.585  0.00  0.00    +0.000 C 
ATOM      2  N   UNL     1       3.329   6.203  18.424  0.00  0.00    +0.000 N 
ATOM      3  C   UNL     1       2.120   6.116  19.088  0.00  0.00    +0.000 A 
ATOM      4  C   UNL     1       2.114   4.919  19.747  0.00  0.00    +0.000 A 
ATOM      5  C   UNL     1       1.085   4.440  20.546  0.00  0.00    +0.000 A 
ATOM      6  C   UNL     1       1.420   3.174  21.078  0.00  0.00    +0.000 A 
ATOM      7  C   UNL     1       2.659   2.492  20.815  0.00  0.00    +0.000 A 
ATOM      8  C   UNL     1       3.689   3.006  19.994  0.00  0.00    +0.000 A 
ATOM      9  C   UNL     1       3.345   4.255  19.473  0.00  0.00    +0.000 A 
ATOM     10  C   UNL     1       4.109   5.061  18.641  0.00  0.00    +0.000 A 
ENDROOT
BRANCH  10  11
ATOM     11  C   UNL     1       5.436   4.851  18.061  0.00  0.00    +0.000 A 
ATOM     12  N   UNL     1       5.492   4.502  16.786  0.00  0.00    +0.000 NA
ATOM     13  C   UNL     1       6.722   4.328  16.325  0.00  0.00    +0.000 A 
ATOM     14  F   UNL     1       6.839   3.973  15.037  0.00  0.00    +0.000 F 
ATOM     15  N   UNL     1       7.848   4.469  17.006  0.00  0.00    +0.000 NA
ATOM     16  C   UNL     1       7.651   4.817  18.267  0.00  0.00    +0.000 A 
ATOM     17  F   UNL     1       8.743   4.991  19.025  0.00  0.00    +0.000 F 
ATOM     18  N   UNL     1       6.481   5.029  18.855  0.00  0.00    +0.000 NA
ENDBRANCH  10  11
TORSDOF 1
ENDMDL
MODEL 2
REMARK VINA RESULT:      -7.8      1.996      2.526
REMARK  Name = 
REMARK  2 active torsions:
REMARK  status: ('A' for Active; 'I' for Inactive)
REMARK    1  A    between atoms: C_1  and  N_2
REMARK    2  A    between atoms: C_10  and  C_11
REMARK                            x       y       z     vdW  Elec       q    Type
REMARK                         _______ _______ _______ _____ _____    ______ ____
ROOT
ATOM      1  C   UNL     1       5.211   3.692  15.864  0.00  0.00    +0.000 C 
ATOM      2  N   UNL     1       4.315   3.949  16.976  0.00  0.00    +0.000 N 
ATOM      3  C   UNL     1       3.067   3.364  17.075  0.00  0.00    +0.000 A 
ATOM      4  C   UNL     1       2.519   3.795  18.251  0.00  0.00    +0.000 A 
ATOM      5  C   UNL     1       1.264   3.452  18.733  0.00  0.00    +0.000 A 
ATOM      6  C   UNL     1       1.019   4.088  19.972  0.00  0.00    +0.000 A 
ATOM      7  C   UNL     1       1.953   4.963  20.626  0.00  0.00    +0.000 A 
ATOM      8  C   UNL     1       3.227   5.293  20.110  0.00  0.00    +0.000 A 
ATOM      9  C   UNL     1       3.458   4.658  18.888  0.00  0.00    +0.000 A 
ATOM     10  C   UNL     1       4.587   4.754  18.087  0.00  0.00    +0.000 A 
ENDROOT
BRANCH  10  11
ATOM     11  C   UNL     1       5.835   5.495  18.279  0.00  0.00    +0.000 A 
ATOM     12  N   UNL     1       5.990   6.611  17.583  0.00  0.00    +0.000 NA
ATOM     13  C   UNL     1       7.140   7.231  17.805  0.00  0.00    +0.000 A 
ATOM     14  F   UNL     1       7.352   8.368  17.126  0.00  0.00    +0.000 F 
ATOM     15  N   UNL     1       8.101   6.843  18.627  0.00  0.00    +0.000 NA
ATOM     16  C   UNL     1       7.820   5.714  19.257  0.00  0.00    +0.000 A 
ATOM     17  F   UNL     1       8.740   5.257  20.119  0.00  0.00    +0.000 F 
ATOM     18  N   UNL     1       6.711   4.996  19.136  0.00  0.00    +0.000 NA
ENDBRANCH  10  11
TORSDOF 1
ENDMDL
MODEL 3
REMARK VINA RESULT:      -7.8      1.995      2.875
REMARK  Name = 
REMARK  2 active torsions:
REMARK  status: ('A' for Active; 'I' for Inactive)
REMARK    1  A    between atoms: C_1  and  N_2
REMARK    2  A    between atoms: C_10  and  C_11
REMARK                            x       y       z     vdW  Elec       q    Type
REMARK                         _______ _______ _______ _____ _____    ______ ____
ROOT
ATOM      1  C   UNL     1       5.196   3.717  15.854  0.00  0.00    +0.000 C 
ATOM      2  N   UNL     1       4.305   3.967  16.971  0.00  0.00    +0.000 N 
ATOM      3  C   UNL     1       3.058   3.381  17.074  0.00  0.00    +0.000 A 
ATOM      4  C   UNL     1       2.515   3.807  18.253  0.00  0.00    +0.000 A 
ATOM      5  C   UNL     1       1.261   3.461  18.740  0.00  0.00    +0.000 A 
ATOM      6  C   UNL     1       1.022   4.090  19.983  0.00  0.00    +0.000 A 
ATOM      7  C   UNL     1       1.958   4.962  20.637  0.00  0.00    +0.000 A 
ATOM      8  C   UNL     1       3.231   5.294  20.118  0.00  0.00    +0.000 A 
ATOM      9  C   UNL     1       3.456   4.666  18.891  0.00  0.00    +0.000 A 
ATOM     10  C   UNL     1       4.582   4.767  18.086  0.00  0.00    +0.000 A 
ENDROOT
BRANCH  10  11
ATOM     11  C   UNL     1       5.830   5.507  18.276  0.00  0.00    +0.000 A 
ATOM     12  N   UNL     1       6.710   5.003  19.126  0.00  0.00    +0.000 NA
ATOM     13  C   UNL     1       7.816   5.723  19.250  0.00  0.00    +0.000 A 
ATOM     14  F   UNL     1       8.745   5.260  20.100  0.00  0.00    +0.000 F 
ATOM     15  N   UNL     1       8.099   6.852  18.621  0.00  0.00    +0.000 NA
ATOM     16  C   UNL     1       7.135   7.245  17.804  0.00  0.00    +0.000 A 
ATOM     17  F   UNL     1       7.347   8.378  17.118  0.00  0.00    +0.000 F 
ATOM     18  N   UNL     1       5.985   6.623  17.580  0.00  0.00    +0.000 NA
ENDBRANCH  10  11
TORSDOF 1
ENDMDL
MODEL 4
REMARK VINA RESULT:      -7.8      0.218      1.866
REMARK  Name = 
REMARK  2 active torsions:
REMARK  status: ('A' for Active; 'I' for Inactive)
REMARK    1  A    between atoms: C_1  and  N_2
REMARK    2  A    between atoms: C_10  and  C_11
REMARK                            x       y       z     vdW  Elec       q    Type
REMARK                         _______ _______ _______ _____ _____    ______ ____
ROOT
ATOM      1  C   UNL     1       3.595   7.329  17.723  0.00  0.00    +0.000 C 
ATOM      2  N   UNL     1       3.249   6.180  18.538  0.00  0.00    +0.000 N 
ATOM      3  C   UNL     1       2.018   6.046  19.150  0.00  0.00    +0.000 A 
ATOM      4  C   UNL     1       2.025   4.843  19.798  0.00  0.00    +0.000 A 
ATOM      5  C   UNL     1       0.981   4.322  20.551  0.00  0.00    +0.000 A 
ATOM      6  C   UNL     1       1.337   3.062  21.085  0.00  0.00    +0.000 A 
ATOM      7  C   UNL     1       2.607   2.425  20.868  0.00  0.00    +0.000 A 
ATOM      8  C   UNL     1       3.652   2.981  20.094  0.00  0.00    +0.000 A 
ATOM      9  C   UNL     1       3.288   4.224  19.570  0.00  0.00    +0.000 A 
ATOM     10  C   UNL     1       4.058   5.063  18.778  0.00  0.00    +0.000 A 
ENDROOT
BRANCH  10  11
ATOM     11  C   UNL     1       5.414   4.902  18.251  0.00  0.00    +0.000 A 
ATOM     12  N   UNL     1       6.418   5.159  19.074  0.00  0.00    +0.000 NA
ATOM     13  C   UNL     1       7.616   4.993  18.532  0.00  0.00    +0.000 A 
ATOM     14  F   UNL     1       8.673   5.240  19.321  0.00  0.00    +0.000 F 
ATOM     15  N   UNL     1       7.878   4.610  17.294  0.00  0.00    +0.000 NA
ATOM     16  C   UNL     1       6.787   4.389  16.578  0.00  0.00    +0.000 A 
ATOM     17  F   UNL     1       6.965   3.986  15.311  0.00  0.00    +0.000 F 
ATOM     18  N   UNL     1       5.532   4.509  16.992  0.00  0.00    +0.000 NA
ENDBRANCH  10  11
TORSDOF 1
ENDMDL
MODEL 5
REMARK VINA RESULT:      -7.6      1.565      1.612
REMARK  Name = 
REMARK  2 active torsions:
REMARK  status: ('A' for Active; 'I' for Inactive)
REMARK    1  A    between atoms: C_1  and  N_2
REMARK    2  A    between atoms: C_10  and  C_11
REMARK                            x       y       z     vdW  Elec       q    Type
REMARK                         _______ _______ _______ _____ _____    ______ ____
ROOT
ATOM      1  C   UNL     1       3.041   7.614  17.844  0.00  0.00    +0.000 C 
ATOM      2  N   UNL     1       2.916   6.188  18.084  0.00  0.00    +0.000 N 
ATOM      3  C   UNL     1       1.795   5.628  18.666  0.00  0.00    +0.000 A 
ATOM      4  C   UNL     1       2.002   4.277  18.706  0.00  0.00    +0.000 A 
ATOM      5  C   UNL     1       1.121   3.338  19.225  0.00  0.00    +0.000 A 
ATOM      6  C   UNL     1       1.662   2.037  19.111  0.00  0.00    +0.000 A 
ATOM      7  C   UNL     1       2.946   1.746  18.535  0.00  0.00    +0.000 A 
ATOM      8  C   UNL     1       3.821   2.726  18.011  0.00  0.00    +0.000 A 
ATOM      9  C   UNL     1       3.276   4.006  18.128  0.00  0.00    +0.000 A 
ATOM     10  C   UNL     1       3.851   5.206  17.736  0.00  0.00    +0.000 A 
ENDROOT
BRANCH  10  11
ATOM     11  C   UNL     1       5.133   5.486  17.089  0.00  0.00    +0.000 A 
ATOM     12  N   UNL     1       5.304   5.030  15.859  0.00  0.00    +0.000 NA
ATOM     13  C   UNL     1       6.486   5.319  15.334  0.00  0.00    +0.000 A 
ATOM     14  F   UNL     1       6.715   4.880  14.087  0.00  0.00    +0.000 F 
ATOM     15  N   UNL     1       7.464   5.996  15.913  0.00  0.00    +0.000 NA
ATOM     16  C   UNL     1       7.164   6.392  17.139  0.00  0.00    +0.000 A 
ATOM     17  F   UNL     1       8.100   7.095  17.794  0.00  0.00    +0.000 F 
ATOM     18  N   UNL     1       6.024   6.178  17.783  0.00  0.00    +0.000 NA
ENDBRANCH  10  11
TORSDOF 1
ENDMDL
MODEL 6
REMARK VINA RESULT:      -7.6      1.562      2.429
REMARK  Name = 
REMARK  2 active torsions:
REMARK  status: ('A' for Active; 'I' for Inactive)
REMARK    1  A    between atoms: C_1  and  N_2
REMARK    2  A    between atoms: C_10  and  C_11
REMARK                            x       y       z     vdW  Elec       q    Type
REMARK                         _______ _______ _______ _____ _____    ______ ____
ROOT
ATOM      1  C   UNL     1       3.047   7.609  17.840  0.00  0.00    +0.000 C 
ATOM      2  N   UNL     1       2.916   6.183  18.071  0.00  0.00    +0.000 N 
ATOM      3  C   UNL     1       1.786   5.621  18.633  0.00  0.00    +0.000 A 
ATOM      4  C   UNL     1       1.990   4.270  18.668  0.00  0.00    +0.000 A 
ATOM      5  C   UNL     1       1.100   3.329  19.169  0.00  0.00    +0.000 A 
ATOM      6  C   UNL     1       1.640   2.028  19.056  0.00  0.00    +0.000 A 
ATOM      7  C   UNL     1       2.932   1.738  18.496  0.00  0.00    +0.000 A 
ATOM      8  C   UNL     1       3.817   2.719  17.991  0.00  0.00    +0.000 A 
ATOM      9  C   UNL     1       3.272   4.000  18.107  0.00  0.00    +0.000 A 
ATOM     10  C   UNL     1       3.854   5.201  17.730  0.00  0.00    +0.000 A 
ENDROOT
BRANCH  10  11
ATOM     11  C   UNL     1       5.146   5.483  17.104  0.00  0.00    +0.000 A 
ATOM     12  N   UNL     1       6.037   6.146  17.823  0.00  0.00    +0.000 NA
ATOM     13  C   UNL     1       7.184   6.366  17.196  0.00  0.00    +0.000 A 
ATOM     14  F   UNL     1       8.125   7.035  17.877  0.00  0.00    +0.000 F 
ATOM     15  N   UNL     1       7.495   5.993  15.965  0.00  0.00    +0.000 NA
ATOM     16  C   UNL     1       6.517   5.342  15.358  0.00  0.00    +0.000 A 
ATOM     17  F   UNL     1       6.756   4.919  14.108  0.00  0.00    +0.000 F 
ATOM     18  N   UNL     1       5.327   5.049  15.866  0.00  0.00    +0.000 NA
ENDBRANCH  10  11
TORSDOF 1
ENDMDL
MODEL 7
REMARK VINA RESULT:      -7.6      3.344      5.606
REMARK  Name = 
REMARK  2 active torsions:
REMARK  status: ('A' for Active; 'I' for Inactive)
REMARK    1  A    between atoms: C_1  and  N_2
REMARK    2  A    between atoms: C_10  and  C_11
REMARK                            x       y       z     vdW  Elec       q    Type
REMARK                         _______ _______ _______ _____ _____    ______ ____
ROOT
ATOM      1  C   UNL     1       2.316   7.441  19.115  0.00  0.00    +0.000 C 
ATOM      2  N   UNL     1       3.167   6.682  18.218  0.00  0.00    +0.000 N 
ATOM      3  C   UNL     1       4.019   7.285  17.312  0.00  0.00    +0.000 A 
ATOM      4  C   UNL     1       4.685   6.283  16.665  0.00  0.00    +0.000 A 
ATOM      5  C   UNL     1       5.632   6.454  15.664  0.00  0.00    +0.000 A 
ATOM      6  C   UNL     1       6.108   5.202  15.214  0.00  0.00    +0.000 A 
ATOM      7  C   UNL     1       5.662   3.937  15.733  0.00  0.00    +0.000 A 
ATOM      8  C   UNL     1       4.696   3.794  16.755  0.00  0.00    +0.000 A 
ATOM      9  C   UNL     1       4.235   5.038  17.193  0.00  0.00    +0.000 A 
ATOM     10  C   UNL     1       3.282   5.288  18.169  0.00  0.00    +0.000 A 
ENDROOT
BRANCH  10  11
ATOM     11  C   UNL     1       2.519   4.371  19.018  0.00  0.00    +0.000 A 
ATOM     12  N   UNL     1       2.788   4.381  20.314  0.00  0.00    +0.000 NA
ATOM     13  C   UNL     1       2.062   3.528  21.023  0.00  0.00    +0.000 A 
ATOM     14  F   UNL     1       2.291   3.493  22.344  0.00  0.00    +0.000 F 
ATOM     15  N   UNL     1       1.133   2.707  20.561  0.00  0.00    +0.000 NA
ATOM     16  C   UNL     1       0.966   2.797  19.252  0.00  0.00    +0.000 A 
ATOM     17  F   UNL     1       0.034   2.003  18.704  0.00  0.00    +0.000 F 
ATOM     18  N   UNL     1       1.616   3.606  18.425  0.00  0.00    +0.000 NA
ENDBRANCH  10  11
TORSDOF 1
ENDMDL
MODEL 8
REMARK VINA RESULT:      -7.6      3.328      5.289
REMARK  Name = 
REMARK  2 active torsions:
REMARK  status: ('A' for Active; 'I' for Inactive)
REMARK    1  A    between atoms: C_1  and  N_2
REMARK    2  A    between atoms: C_10  and  C_11
REMARK                            x       y       z     vdW  Elec       q    Type
REMARK                         _______ _______ _______ _____ _____    ______ ____
ROOT
ATOM      1  C   UNL     1       2.349   7.398  19.110  0.00  0.00    +0.000 C 
ATOM      2  N   UNL     1       3.196   6.638  18.210  0.00  0.00    +0.000 N 
ATOM      3  C   UNL     1       4.049   7.241  17.305  0.00  0.00    +0.000 A 
ATOM      4  C   UNL     1       4.711   6.238  16.655  0.00  0.00    +0.000 A 
ATOM      5  C   UNL     1       5.658   6.408  15.654  0.00  0.00    +0.000 A 
ATOM      6  C   UNL     1       6.129   5.155  15.200  0.00  0.00    +0.000 A 
ATOM      7  C   UNL     1       5.680   3.891  15.716  0.00  0.00    +0.000 A 
ATOM      8  C   UNL     1       4.715   3.749  16.740  0.00  0.00    +0.000 A 
ATOM      9  C   UNL     1       4.258   4.993  17.181  0.00  0.00    +0.000 A 
ATOM     10  C   UNL     1       3.307   5.244  18.159  0.00  0.00    +0.000 A 
ENDROOT
BRANCH  10  11
ATOM     11  C   UNL     1       2.542   4.328  19.007  0.00  0.00    +0.000 A 
ATOM     12  N   UNL     1       1.623   3.580  18.417  0.00  0.00    +0.000 NA
ATOM     13  C   UNL     1       0.969   2.775  19.242  0.00  0.00    +0.000 A 
ATOM     14  F   UNL     1       0.024   1.993  18.699  0.00  0.00    +0.000 F 
ATOM     15  N   UNL     1       1.154   2.662  20.547  0.00  0.00    +0.000 NA
ATOM     16  C   UNL     1       2.099   3.465  21.008  0.00  0.00    +0.000 A 
ATOM     17  F   UNL     1       2.355   3.405  22.323  0.00  0.00    +0.000 F 
ATOM     18  N   UNL     1       2.831   4.314  20.299  0.00  0.00    +0.000 NA
ENDBRANCH  10  11
TORSDOF 1
ENDMDL
MODEL 9
REMARK VINA RESULT:      -7.6      1.022      1.066
REMARK  Name = 
REMARK  2 active torsions:
REMARK  status: ('A' for Active; 'I' for Inactive)
REMARK    1  A    between atoms: C_1  and  N_2
REMARK    2  A    between atoms: C_10  and  C_11
REMARK                            x       y       z     vdW  Elec       q    Type
REMARK                         _______ _______ _______ _____ _____    ______ ____
ROOT
ATOM      1  C   UNL     1       3.674   7.470  17.792  0.00  0.00    +0.000 C 
ATOM      2  N   UNL     1       3.222   6.235  18.404  0.00  0.00    +0.000 N 
ATOM      3  C   UNL     1       2.151   6.184  19.275  0.00  0.00    +0.000 A 
ATOM      4  C   UNL     1       1.985   4.873  19.625  0.00  0.00    +0.000 A 
ATOM      5  C   UNL     1       1.021   4.383  20.495  0.00  0.00    +0.000 A 
ATOM      6  C   UNL     1       1.147   2.982  20.634  0.00  0.00    +0.000 A 
ATOM      7  C   UNL     1       2.140   2.192  19.960  0.00  0.00    +0.000 A 
ATOM      8  C   UNL     1       3.109   2.720  19.076  0.00  0.00    +0.000 A 
ATOM      9  C   UNL     1       2.974   4.104  18.945  0.00  0.00    +0.000 A 
ATOM     10  C   UNL     1       3.751   4.959  18.177  0.00  0.00    +0.000 A 
ENDROOT
BRANCH  10  11
ATOM     11  C   UNL     1       4.883   4.685  17.291  0.00  0.00    +0.000 A 
ATOM     12  N   UNL     1       4.621   4.535  16.002  0.00  0.00    +0.000 NA
ATOM     13  C   UNL     1       5.690   4.290  15.258  0.00  0.00    +0.000 A 
ATOM     14  F   UNL     1       5.485   4.128  13.942  0.00  0.00    +0.000 F 
ATOM     15  N   UNL     1       6.940   4.188  15.679  0.00  0.00    +0.000 NA
ATOM     16  C   UNL     1       7.062   4.357  16.986  0.00  0.00    +0.000 A 
ATOM     17  F   UNL     1       8.301   4.279  17.494  0.00  0.00    +0.000 F 
ATOM     18  N   UNL     1       6.084   4.612  17.845  0.00  0.00    +0.000 NA
ENDBRANCH  10  11
TORSDOF 1
ENDMDL
