MODEL 1
REMARK VINA RESULT:      -9.9      0.000      0.000
REMARK  Name = 
REMARK  6 active torsions:
REMARK  status: ('A' for Active; 'I' for Inactive)
REMARK    1  A    between atoms: C_1  and  O_2
REMARK    2  A    between atoms: O_2  and  C_3
REMARK    3  A    between atoms: N_11  and  C_12
REMARK    4  A    between atoms: C_12  and  C_13
REMARK    5  A    between atoms: C_13  and  C_14
REMARK    6  A    between atoms: C_19  and  N_20
REMARK                            x       y       z     vdW  Elec       q    Type
REMARK                         _______ _______ _______ _____ _____    ______ ____
ROOT
ATOM      1  C   UNL     1       2.574   4.239  19.743  0.00  0.00    +0.000 C 
ATOM      2  N   UNL     1       1.785   3.502  18.774  0.00  0.00    +0.000 N 
ATOM      3  C   UNL     1       0.924   2.608  19.348  0.00  0.00    +0.000 C 
ATOM      4  O   UNL     1       0.210   1.826  18.754  0.00  0.00    +0.000 OA
ATOM      5  N   UNL     1       1.016   2.732  20.692  0.00  0.00    +0.000 N 
ATOM      6  C   UNL     1       1.991   3.624  21.029  0.00  0.00    +0.000 C 
ATOM      7  O   UNL     1       2.344   3.860  22.175  0.00  0.00    +0.000 OA
ATOM      8  H   UNL     1       2.026   3.423  17.789  0.00  0.00    +0.000 HD
ATOM      9  H   UNL     1       0.503   2.156  21.338  0.00  0.00    +0.000 HD
ENDROOT
BRANCH   1  10
ATOM     10  C   UNL     1       2.192   5.682  19.663  0.00  0.00    +0.000 A 
ATOM     11  C   UNL     1       2.591   6.719  18.838  0.00  0.00    +0.000 A 
ATOM     12  C   UNL     1       1.938   7.886  19.303  0.00  0.00    +0.000 A 
ATOM     13  C   UNL     1       1.912   9.230  18.960  0.00  0.00    +0.000 A 
ATOM     14  N   UNL     1       1.156  10.091  19.684  0.00  0.00    +0.000 NA
ATOM     15  C   UNL     1       0.421   9.678  20.741  0.00  0.00    +0.000 A 
ATOM     16  C   UNL     1       0.387   8.346  21.143  0.00  0.00    +0.000 A 
ATOM     17  C   UNL     1       1.166   7.489  20.380  0.00  0.00    +0.000 A 
ATOM     18  O   UNL     1       1.298   6.150  20.586  0.00  0.00    +0.000 OA
BRANCH  15  19
ATOM     19  N   UNL     1      -0.292  10.648  21.468  0.00  0.00    +0.000 N 
ATOM     20  C   UNL     1      -0.948  11.796  20.890  0.00  0.00    +0.000 C 
ATOM     21  C   UNL     1      -1.901  12.237  21.991  0.00  0.00    +0.000 C 
ATOM     22  N   UNL     1      -1.277  11.739  23.179  0.00  0.00    +0.000 N 
ATOM     23  C   UNL     1      -0.448  10.657  22.864  0.00  0.00    +0.000 C 
ATOM     24  O   UNL     1      -0.008   9.916  23.726  0.00  0.00    +0.000 OA
ATOM     25  H   UNL     1      -1.663  11.772  24.113  0.00  0.00    +0.000 HD
ENDBRANCH  15  19
ENDBRANCH   1  10
BRANCH   1  26
ATOM     26  C   UNL     1       4.099   3.971  19.678  0.00  0.00    +0.000 C 
BRANCH  26  35
ATOM     27  C   UNL     1       7.316   5.165  14.696  0.00  0.00    +0.000 A 
ATOM     28  C   UNL     1       6.410   4.281  14.070  0.00  0.00    +0.000 A 
ATOM     29  C   UNL     1       5.360   3.671  14.781  0.00  0.00    +0.000 A 
ATOM     30  C   UNL     1       5.230   3.966  16.123  0.00  0.00    +0.000 A 
ATOM     31  C   UNL     1       6.123   4.855  16.712  0.00  0.00    +0.000 A 
ATOM     32  C   UNL     1       7.170   5.459  16.046  0.00  0.00    +0.000 A 
ATOM     33  C   UNL     1       5.782   4.992  18.121  0.00  0.00    +0.000 C 
ATOM     34  O   UNL     1       6.394   5.685  18.908  0.00  0.00    +0.000 OA
ATOM     35  N   UNL     1       4.706   4.164  18.357  0.00  0.00    +0.000 N 
ATOM     36  C   UNL     1       4.259   3.474  17.150  0.00  0.00    +0.000 C 
BRANCH  27  38
ATOM     37  C   UNL     1       8.056   5.588  12.484  0.00  0.00    +0.000 C 
ATOM     38  O   UNL     1       8.296   5.676  13.888  0.00  0.00    +0.000 OA
ENDBRANCH  27  38
ENDBRANCH  26  35
ENDBRANCH   1  26
TORSDOF 5
ENDMDL
MODEL 2
REMARK VINA RESULT:      -9.7      1.595      1.982
REMARK  Name = 
REMARK  6 active torsions:
REMARK  status: ('A' for Active; 'I' for Inactive)
REMARK    1  A    between atoms: C_1  and  O_2
REMARK    2  A    between atoms: O_2  and  C_3
REMARK    3  A    between atoms: N_11  and  C_12
REMARK    4  A    between atoms: C_12  and  C_13
REMARK    5  A    between atoms: C_13  and  C_14
REMARK    6  A    between atoms: C_19  and  N_20
REMARK                            x       y       z     vdW  Elec       q    Type
REMARK                         _______ _______ _______ _____ _____    ______ ____
ROOT
ATOM      1  C   UNL     1       2.612   4.658  19.472  0.00  0.00    +0.000 C 
ATOM      2  N   UNL     1       1.869   3.843  18.531  0.00  0.00    +0.000 N 
ATOM      3  C   UNL     1       0.944   3.034  19.133  0.00  0.00    +0.000 C 
ATOM      4  O   UNL     1       0.247   2.212  18.573  0.00  0.00    +0.000 OA
ATOM      5  N   UNL     1       0.950   3.295  20.460  0.00  0.00    +0.000 N 
ATOM      6  C   UNL     1       1.927   4.194  20.771  0.00  0.00    +0.000 C 
ATOM      7  O   UNL     1       2.209   4.541  21.909  0.00  0.00    +0.000 OA
ATOM      8  H   UNL     1       2.172   3.656  17.578  0.00  0.00    +0.000 HD
ATOM      9  H   UNL     1       0.378   2.802  21.124  0.00  0.00    +0.000 HD
ENDROOT
BRANCH   1  10
ATOM     10  C   UNL     1       2.282   6.094  19.218  0.00  0.00    +0.000 A 
ATOM     11  C   UNL     1       2.492   6.934  18.139  0.00  0.00    +0.000 A 
ATOM     12  C   UNL     1       2.030   8.216  18.523  0.00  0.00    +0.000 A 
ATOM     13  C   UNL     1       1.969   9.478  17.949  0.00  0.00    +0.000 A 
ATOM     14  N   UNL     1       1.464  10.514  18.663  0.00  0.00    +0.000 NA
ATOM     15  C   UNL     1       1.016  10.355  19.929  0.00  0.00    +0.000 A 
ATOM     16  C   UNL     1       1.035   9.120  20.571  0.00  0.00    +0.000 A 
ATOM     17  C   UNL     1       1.552   8.080  19.814  0.00  0.00    +0.000 A 
ATOM     18  O   UNL     1       1.679   6.791  20.229  0.00  0.00    +0.000 OA
BRANCH  15  19
ATOM     19  N   UNL     1       0.557  11.494  20.614  0.00  0.00    +0.000 N 
ATOM     20  C   UNL     1      -0.743  11.622  21.226  0.00  0.00    +0.000 C 
ATOM     21  C   UNL     1      -0.563  12.800  22.172  0.00  0.00    +0.000 C 
ATOM     22  N   UNL     1       0.510  13.534  21.575  0.00  0.00    +0.000 N 
ATOM     23  C   UNL     1       1.286  12.683  20.781  0.00  0.00    +0.000 C 
ATOM     24  O   UNL     1       2.386  13.015  20.374  0.00  0.00    +0.000 OA
ATOM     25  H   UNL     1       0.966  14.348  21.967  0.00  0.00    +0.000 HD
ENDBRANCH  15  19
ENDBRANCH   1  10
BRANCH   1  26
ATOM     26  C   UNL     1       4.130   4.349  19.540  0.00  0.00    +0.000 C 
BRANCH  26  35
ATOM     27  C   UNL     1       6.419   4.051  13.949  0.00  0.00    +0.000 A 
ATOM     28  C   UNL     1       7.118   5.218  14.326  0.00  0.00    +0.000 A 
ATOM     29  C   UNL     1       6.986   5.779  15.609  0.00  0.00    +0.000 A 
ATOM     30  C   UNL     1       6.150   5.149  16.508  0.00  0.00    +0.000 A 
ATOM     31  C   UNL     1       5.486   3.989  16.119  0.00  0.00    +0.000 A 
ATOM     32  C   UNL     1       5.585   3.422  14.865  0.00  0.00    +0.000 A 
ATOM     33  C   UNL     1       4.669   3.526  17.232  0.00  0.00    +0.000 C 
ATOM     34  O   UNL     1       3.954   2.545  17.193  0.00  0.00    +0.000 OA
ATOM     35  N   UNL     1       4.837   4.429  18.258  0.00  0.00    +0.000 N 
ATOM     36  C   UNL     1       5.774   5.496  17.914  0.00  0.00    +0.000 C 
BRANCH  27  38
ATOM     37  C   UNL     1       5.494   3.091  11.988  0.00  0.00    +0.000 C 
ATOM     38  O   UNL     1       6.632   3.623  12.666  0.00  0.00    +0.000 OA
ENDBRANCH  27  38
ENDBRANCH  26  35
ENDBRANCH   1  26
TORSDOF 5
ENDMDL
MODEL 3
REMARK VINA RESULT:      -9.7      3.155     10.594
REMARK  Name = 
REMARK  6 active torsions:
REMARK  status: ('A' for Active; 'I' for Inactive)
REMARK    1  A    between atoms: C_1  and  O_2
REMARK    2  A    between atoms: O_2  and  C_3
REMARK    3  A    between atoms: N_11  and  C_12
REMARK    4  A    between atoms: C_12  and  C_13
REMARK    5  A    between atoms: C_13  and  C_14
REMARK    6  A    between atoms: C_19  and  N_20
REMARK                            x       y       z     vdW  Elec       q    Type
REMARK                         _______ _______ _______ _____ _____    ______ ____
ROOT
ATOM      1  C   UNL     1       0.487  10.720  19.699  0.00  0.00    +0.000 C 
ATOM      2  N   UNL     1      -0.900  10.389  19.439  0.00  0.00    +0.000 N 
ATOM      3  C   UNL     1      -1.503  11.247  18.561  0.00  0.00    +0.000 C 
ATOM      4  O   UNL     1      -2.673  11.225  18.236  0.00  0.00    +0.000 OA
ATOM      5  N   UNL     1      -0.578  12.133  18.129  0.00  0.00    +0.000 N 
ATOM      6  C   UNL     1       0.610  11.945  18.773  0.00  0.00    +0.000 C 
ATOM      7  O   UNL     1       1.590  12.662  18.638  0.00  0.00    +0.000 OA
ATOM      8  H   UNL     1      -1.461   9.786  20.036  0.00  0.00    +0.000 HD
ATOM      9  H   UNL     1      -0.786  12.889  17.499  0.00  0.00    +0.000 HD
ENDROOT
BRANCH   1  10
ATOM     10  C   UNL     1       1.344   9.611  19.176  0.00  0.00    +0.000 A 
ATOM     11  C   UNL     1       2.036   9.433  17.991  0.00  0.00    +0.000 A 
ATOM     12  C   UNL     1       2.599   8.135  18.038  0.00  0.00    +0.000 A 
ATOM     13  C   UNL     1       3.363   7.337  17.198  0.00  0.00    +0.000 A 
ATOM     14  N   UNL     1       3.702   6.084  17.590  0.00  0.00    +0.000 NA
ATOM     15  C   UNL     1       3.312   5.582  18.783  0.00  0.00    +0.000 A 
ATOM     16  C   UNL     1       2.552   6.321  19.685  0.00  0.00    +0.000 A 
ATOM     17  C   UNL     1       2.227   7.600  19.258  0.00  0.00    +0.000 A 
ATOM     18  O   UNL     1       1.487   8.500  19.961  0.00  0.00    +0.000 OA
BRANCH  15  19
ATOM     19  N   UNL     1       3.663   4.254  19.086  0.00  0.00    +0.000 N 
ATOM     20  C   UNL     1       2.725   3.172  19.260  0.00  0.00    +0.000 C 
ATOM     21  C   UNL     1       3.599   1.934  19.122  0.00  0.00    +0.000 C 
ATOM     22  N   UNL     1       4.896   2.410  19.494  0.00  0.00    +0.000 N 
ATOM     23  C   UNL     1       4.974   3.792  19.290  0.00  0.00    +0.000 C 
ATOM     24  O   UNL     1       6.041   4.381  19.296  0.00  0.00    +0.000 OA
ATOM     25  H   UNL     1       5.760   1.884  19.448  0.00  0.00    +0.000 HD
ENDBRANCH  15  19
ENDBRANCH   1  10
BRANCH   1  26
ATOM     26  C   UNL     1       0.793  11.134  21.161  0.00  0.00    +0.000 C 
BRANCH  26  35
ATOM     27  C   UNL     1      -3.562  14.624  23.493  0.00  0.00    +0.000 A 
ATOM     28  C   UNL     1      -4.038  13.416  24.048  0.00  0.00    +0.000 A 
ATOM     29  C   UNL     1      -3.370  12.194  23.844  0.00  0.00    +0.000 A 
ATOM     30  C   UNL     1      -2.218  12.206  23.085  0.00  0.00    +0.000 A 
ATOM     31  C   UNL     1      -1.759  13.412  22.565  0.00  0.00    +0.000 A 
ATOM     32  C   UNL     1      -2.398  14.623  22.736  0.00  0.00    +0.000 A 
ATOM     33  C   UNL     1      -0.544  13.158  21.804  0.00  0.00    +0.000 C 
ATOM     34  O   UNL     1       0.082  14.013  21.211  0.00  0.00    +0.000 OA
ATOM     35  N   UNL     1      -0.310  11.802  21.859  0.00  0.00    +0.000 N 
ATOM     36  C   UNL     1      -1.304  11.097  22.664  0.00  0.00    +0.000 C 
BRANCH  27  38
ATOM     37  C   UNL     1      -4.021  16.411  24.982  0.00  0.00    +0.000 C 
ATOM     38  O   UNL     1      -4.318  15.734  23.761  0.00  0.00    +0.000 OA
ENDBRANCH  27  38
ENDBRANCH  26  35
ENDBRANCH   1  26
TORSDOF 5
ENDMDL
MODEL 4
REMARK VINA RESULT:      -9.7      1.218      1.293
REMARK  Name = 
REMARK  6 active torsions:
REMARK  status: ('A' for Active; 'I' for Inactive)
REMARK    1  A    between atoms: C_1  and  O_2
REMARK    2  A    between atoms: O_2  and  C_3
REMARK    3  A    between atoms: N_11  and  C_12
REMARK    4  A    between atoms: C_12  and  C_13
REMARK    5  A    between atoms: C_13  and  C_14
REMARK    6  A    between atoms: C_19  and  N_20
REMARK                            x       y       z     vdW  Elec       q    Type
REMARK                         _______ _______ _______ _____ _____    ______ ____
ROOT
ATOM      1  C   UNL     1       2.576   4.423  19.521  0.00  0.00    +0.000 C 
ATOM      2  N   UNL     1       1.739   3.612  18.659  0.00  0.00    +0.000 N 
ATOM      3  C   UNL     1       0.842   2.843  19.348  0.00  0.00    +0.000 C 
ATOM      4  O   UNL     1       0.081   2.030  18.862  0.00  0.00    +0.000 OA
ATOM      5  N   UNL     1       0.958   3.130  20.664  0.00  0.00    +0.000 N 
ATOM      6  C   UNL     1       1.982   4.006  20.879  0.00  0.00    +0.000 C 
ATOM      7  O   UNL     1       2.362   4.366  21.984  0.00  0.00    +0.000 OA
ATOM      8  H   UNL     1       1.961   3.398  17.690  0.00  0.00    +0.000 HD
ATOM      9  H   UNL     1       0.427   2.667  21.382  0.00  0.00    +0.000 HD
ENDROOT
BRANCH   1  10
ATOM     10  C   UNL     1       2.267   5.863  19.262  0.00  0.00    +0.000 A 
ATOM     11  C   UNL     1       2.518   6.705  18.193  0.00  0.00    +0.000 A 
ATOM     12  C   UNL     1       2.056   7.989  18.567  0.00  0.00    +0.000 A 
ATOM     13  C   UNL     1       2.025   9.254  17.996  0.00  0.00    +0.000 A 
ATOM     14  N   UNL     1       1.507  10.292  18.697  0.00  0.00    +0.000 NA
ATOM     15  C   UNL     1       1.018  10.133  19.947  0.00  0.00    +0.000 A 
ATOM     16  C   UNL     1       1.006   8.896  20.585  0.00  0.00    +0.000 A 
ATOM     17  C   UNL     1       1.537   7.854  19.841  0.00  0.00    +0.000 A 
ATOM     18  O   UNL     1       1.639   6.562  20.256  0.00  0.00    +0.000 OA
BRANCH  15  19
ATOM     19  N   UNL     1       0.549  11.275  20.622  0.00  0.00    +0.000 N 
ATOM     20  C   UNL     1      -0.693  11.349  21.354  0.00  0.00    +0.000 C 
ATOM     21  C   UNL     1      -0.506  12.584  22.222  0.00  0.00    +0.000 C 
ATOM     22  N   UNL     1       0.451  13.354  21.489  0.00  0.00    +0.000 N 
ATOM     23  C   UNL     1       1.205  12.516  20.661  0.00  0.00    +0.000 C 
ATOM     24  O   UNL     1       2.235  12.896  20.132  0.00  0.00    +0.000 OA
ATOM     25  H   UNL     1       0.884  14.216  21.796  0.00  0.00    +0.000 HD
ENDBRANCH  15  19
ENDBRANCH   1  10
BRANCH   1  26
ATOM     26  C   UNL     1       4.085   4.071  19.479  0.00  0.00    +0.000 C 
BRANCH  26  35
ATOM     27  C   UNL     1       7.429   5.197  14.565  0.00  0.00    +0.000 A 
ATOM     28  C   UNL     1       6.539   4.304  13.929  0.00  0.00    +0.000 A 
ATOM     29  C   UNL     1       5.472   3.704  14.620  0.00  0.00    +0.000 A 
ATOM     30  C   UNL     1       5.307   4.018  15.954  0.00  0.00    +0.000 A 
ATOM     31  C   UNL     1       6.185   4.914  16.554  0.00  0.00    +0.000 A 
ATOM     32  C   UNL     1       7.248   5.509  15.907  0.00  0.00    +0.000 A 
ATOM     33  C   UNL     1       5.807   5.071  17.951  0.00  0.00    +0.000 C 
ATOM     34  O   UNL     1       6.399   5.775  18.745  0.00  0.00    +0.000 OA
ATOM     35  N   UNL     1       4.726   4.247  18.171  0.00  0.00    +0.000 N 
ATOM     36  C   UNL     1       4.310   3.540  16.963  0.00  0.00    +0.000 C 
BRANCH  27  38
ATOM     37  C   UNL     1       8.156   5.741  12.375  0.00  0.00    +0.000 C 
ATOM     38  O   UNL     1       8.429   5.697  13.775  0.00  0.00    +0.000 OA
ENDBRANCH  27  38
ENDBRANCH  26  35
ENDBRANCH   1  26
TORSDOF 5
ENDMDL
MODEL 5
REMARK VINA RESULT:      -9.6      1.630      2.234
REMARK  Name = 
REMARK  6 active torsions:
REMARK  status: ('A' for Active; 'I' for Inactive)
REMARK    1  A    between atoms: C_1  and  O_2
REMARK    2  A    between atoms: O_2  and  C_3
REMARK    3  A    between atoms: N_11  and  C_12
REMARK    4  A    between atoms: C_12  and  C_13
REMARK    5  A    between atoms: C_13  and  C_14
REMARK    6  A    between atoms: C_19  and  N_20
REMARK                            x       y       z     vdW  Elec       q    Type
REMARK                         _______ _______ _______ _____ _____    ______ ____
ROOT
ATOM      1  C   UNL     1       2.503   4.344  19.959  0.00  0.00    +0.000 C 
ATOM      2  N   UNL     1       1.750   3.876  18.812  0.00  0.00    +0.000 N 
ATOM      3  C   UNL     1       0.879   2.866  19.114  0.00  0.00    +0.000 C 
ATOM      4  O   UNL     1       0.189   2.260  18.319  0.00  0.00    +0.000 OA
ATOM      5  N   UNL     1       0.930   2.646  20.447  0.00  0.00    +0.000 N 
ATOM      6  C   UNL     1       1.887   3.423  21.030  0.00  0.00    +0.000 C 
ATOM      7  O   UNL     1       2.203   3.362  22.209  0.00  0.00    +0.000 OA
ATOM      8  H   UNL     1       2.021   4.050  17.846  0.00  0.00    +0.000 HD
ATOM      9  H   UNL     1       0.402   1.926  20.911  0.00  0.00    +0.000 HD
ENDROOT
BRANCH   1  10
ATOM     10  C   UNL     1       2.113   5.761  20.235  0.00  0.00    +0.000 A 
ATOM     11  C   UNL     1       1.656   6.410  21.368  0.00  0.00    +0.000 A 
ATOM     12  C   UNL     1       1.373   7.744  20.988  0.00  0.00    +0.000 A 
ATOM     13  C   UNL     1       0.877   8.883  21.607  0.00  0.00    +0.000 A 
ATOM     14  N   UNL     1       0.711  10.018  20.884  0.00  0.00    +0.000 NA
ATOM     15  C   UNL     1       1.013  10.074  19.567  0.00  0.00    +0.000 A 
ATOM     16  C   UNL     1       1.523   8.978  18.878  0.00  0.00    +0.000 A 
ATOM     17  C   UNL     1       1.687   7.835  19.645  0.00  0.00    +0.000 A 
ATOM     18  O   UNL     1       2.160   6.643  19.190  0.00  0.00    +0.000 OA
BRANCH  15  19
ATOM     19  N   UNL     1       0.759  11.277  18.883  0.00  0.00    +0.000 N 
ATOM     20  C   UNL     1      -0.547  11.860  18.696  0.00  0.00    +0.000 C 
ATOM     21  C   UNL     1      -0.230  13.299  18.319  0.00  0.00    +0.000 C 
ATOM     22  N   UNL     1       1.084  13.206  17.761  0.00  0.00    +0.000 N 
ATOM     23  C   UNL     1       1.735  12.072  18.260  0.00  0.00    +0.000 C 
ATOM     24  O   UNL     1       2.936  11.914  18.129  0.00  0.00    +0.000 OA
ATOM     25  H   UNL     1       1.663  13.982  17.467  0.00  0.00    +0.000 HD
ENDBRANCH  15  19
ENDBRANCH   1  10
BRANCH   1  26
ATOM     26  C   UNL     1       4.032   4.102  19.876  0.00  0.00    +0.000 C 
BRANCH  26  35
ATOM     27  C   UNL     1       7.156   5.154  14.804  0.00  0.00    +0.000 A 
ATOM     28  C   UNL     1       6.223   4.273  14.214  0.00  0.00    +0.000 A 
ATOM     29  C   UNL     1       5.181   3.692  14.959  0.00  0.00    +0.000 A 
ATOM     30  C   UNL     1       5.084   4.014  16.298  0.00  0.00    +0.000 A 
ATOM     31  C   UNL     1       6.003   4.900  16.851  0.00  0.00    +0.000 A 
ATOM     32  C   UNL     1       7.043   5.475  16.150  0.00  0.00    +0.000 A 
ATOM     33  C   UNL     1       5.695   5.068  18.263  0.00  0.00    +0.000 C 
ATOM     34  O   UNL     1       6.334   5.767  19.024  0.00  0.00    +0.000 OA
ATOM     35  N   UNL     1       4.612   4.261  18.539  0.00  0.00    +0.000 N 
ATOM     36  C   UNL     1       4.129   3.556  17.355  0.00  0.00    +0.000 C 
BRANCH  27  38
ATOM     37  C   UNL     1       7.933   5.375  12.575  0.00  0.00    +0.000 C 
ATOM     38  O   UNL     1       8.125   5.636  13.965  0.00  0.00    +0.000 OA
ENDBRANCH  27  38
ENDBRANCH  26  35
ENDBRANCH   1  26
TORSDOF 5
ENDMDL
MODEL 6
REMARK VINA RESULT:      -9.5      1.576      2.013
REMARK  Name = 
REMARK  6 active torsions:
REMARK  status: ('A' for Active; 'I' for Inactive)
REMARK    1  A    between atoms: C_1  and  O_2
REMARK    2  A    between atoms: O_2  and  C_3
REMARK    3  A    between atoms: N_11  and  C_12
REMARK    4  A    between atoms: C_12  and  C_13
REMARK    5  A    between atoms: C_13  and  C_14
REMARK    6  A    between atoms: C_19  and  N_20
REMARK                            x       y       z     vdW  Elec       q    Type
REMARK                         _______ _______ _______ _____ _____    ______ ____
ROOT
ATOM      1  C   UNL     1       2.642   4.474  19.504  0.00  0.00    +0.000 C 
ATOM      2  N   UNL     1       1.845   3.627  18.638  0.00  0.00    +0.000 N 
ATOM      3  C   UNL     1       0.907   2.896  19.313  0.00  0.00    +0.000 C 
ATOM      4  O   UNL     1       0.167   2.065  18.826  0.00  0.00    +0.000 OA
ATOM      5  N   UNL     1       0.957   3.244  20.619  0.00  0.00    +0.000 N 
ATOM      6  C   UNL     1       1.973   4.123  20.847  0.00  0.00    +0.000 C 
ATOM      7  O   UNL     1       2.298   4.533  21.952  0.00  0.00    +0.000 OA
ATOM      8  H   UNL     1       2.116   3.367  17.693  0.00  0.00    +0.000 HD
ATOM      9  H   UNL     1       0.384   2.818  21.328  0.00  0.00    +0.000 HD
ENDROOT
BRANCH   1  10
ATOM     10  C   UNL     1       2.357   5.902  19.163  0.00  0.00    +0.000 A 
ATOM     11  C   UNL     1       2.637   6.680  18.054  0.00  0.00    +0.000 A 
ATOM     12  C   UNL     1       2.188   7.990  18.351  0.00  0.00    +0.000 A 
ATOM     13  C   UNL     1       2.183   9.222  17.712  0.00  0.00    +0.000 A 
ATOM     14  N   UNL     1       1.670  10.304  18.347  0.00  0.00    +0.000 NA
ATOM     15  C   UNL     1       1.160  10.219  19.597  0.00  0.00    +0.000 A 
ATOM     16  C   UNL     1       1.121   9.019  20.301  0.00  0.00    +0.000 A 
ATOM     17  C   UNL     1       1.647   7.931  19.622  0.00  0.00    +0.000 A 
ATOM     18  O   UNL     1       1.725   6.662  20.108  0.00  0.00    +0.000 OA
BRANCH  15  19
ATOM     19  N   UNL     1       0.698  11.402  20.202  0.00  0.00    +0.000 N 
ATOM     20  C   UNL     1       1.532  12.360  20.886  0.00  0.00    +0.000 C 
ATOM     21  C   UNL     1       0.655  13.601  20.942  0.00  0.00    +0.000 C 
ATOM     22  N   UNL     1      -0.670  13.065  20.871  0.00  0.00    +0.000 N 
ATOM     23  C   UNL     1      -0.645  11.811  20.251  0.00  0.00    +0.000 C 
ATOM     24  O   UNL     1      -1.663  11.272  19.856  0.00  0.00    +0.000 OA
ATOM     25  H   UNL     1      -1.526  13.600  20.803  0.00  0.00    +0.000 HD
ENDBRANCH  15  19
ENDBRANCH   1  10
BRANCH   1  26
ATOM     26  C   UNL     1       4.148   4.113  19.558  0.00  0.00    +0.000 C 
BRANCH  26  35
ATOM     27  C   UNL     1       6.450   4.193  13.965  0.00  0.00    +0.000 A 
ATOM     28  C   UNL     1       7.222   5.270  14.450  0.00  0.00    +0.000 A 
ATOM     29  C   UNL     1       7.119   5.715  15.781  0.00  0.00    +0.000 A 
ATOM     30  C   UNL     1       6.237   5.059  16.616  0.00  0.00    +0.000 A 
ATOM     31  C   UNL     1       5.501   3.989  16.119  0.00  0.00    +0.000 A 
ATOM     32  C   UNL     1       5.570   3.537  14.817  0.00  0.00    +0.000 A 
ATOM     33  C   UNL     1       4.648   3.477  17.182  0.00  0.00    +0.000 C 
ATOM     34  O   UNL     1       3.870   2.554  17.050  0.00  0.00    +0.000 OA
ATOM     35  N   UNL     1       4.868   4.267  18.290  0.00  0.00    +0.000 N 
ATOM     36  C   UNL     1       5.875   5.296  18.048  0.00  0.00    +0.000 C 
BRANCH  27  38
ATOM     37  C   UNL     1       5.713   2.949  12.085  0.00  0.00    +0.000 C 
ATOM     38  O   UNL     1       6.643   3.875  12.647  0.00  0.00    +0.000 OA
ENDBRANCH  27  38
ENDBRANCH  26  35
ENDBRANCH   1  26
TORSDOF 5
ENDMDL
MODEL 7
REMARK VINA RESULT:      -9.5      1.020      1.470
REMARK  Name = 
REMARK  6 active torsions:
REMARK  status: ('A' for Active; 'I' for Inactive)
REMARK    1  A    between atoms: C_1  and  O_2
REMARK    2  A    between atoms: O_2  and  C_3
REMARK    3  A    between atoms: N_11  and  C_12
REMARK    4  A    between atoms: C_12  and  C_13
REMARK    5  A    between atoms: C_13  and  C_14
REMARK    6  A    between atoms: C_19  and  N_20
REMARK                            x       y       z     vdW  Elec       q    Type
REMARK                         _______ _______ _______ _____ _____    ______ ____
ROOT
ATOM      1  C   UNL     1       2.562   4.307  19.722  0.00  0.00    +0.000 C 
ATOM      2  N   UNL     1       1.844   3.572  18.699  0.00  0.00    +0.000 N 
ATOM      3  C   UNL     1       0.923   2.699  19.209  0.00  0.00    +0.000 C 
ATOM      4  O   UNL     1       0.247   1.922  18.566  0.00  0.00    +0.000 OA
ATOM      5  N   UNL     1       0.906   2.837  20.554  0.00  0.00    +0.000 N 
ATOM      6  C   UNL     1       1.864   3.717  20.962  0.00  0.00    +0.000 C 
ATOM      7  O   UNL     1       2.125   3.961  22.131  0.00  0.00    +0.000 OA
ATOM      8  H   UNL     1       2.164   3.478  17.738  0.00  0.00    +0.000 HD
ATOM      9  H   UNL     1       0.331   2.278  21.162  0.00  0.00    +0.000 HD
ENDROOT
BRANCH   1  10
ATOM     10  C   UNL     1       2.214   5.756  19.596  0.00  0.00    +0.000 A 
ATOM     11  C   UNL     1       2.522   6.722  18.654  0.00  0.00    +0.000 A 
ATOM     12  C   UNL     1       1.972   7.939  19.123  0.00  0.00    +0.000 A 
ATOM     13  C   UNL     1       1.936   9.259  18.694  0.00  0.00    +0.000 A 
ATOM     14  N   UNL     1       1.313  10.192  19.454  0.00  0.00    +0.000 NA
ATOM     15  C   UNL     1       0.723   9.876  20.629  0.00  0.00    +0.000 A 
ATOM     16  C   UNL     1       0.709   8.575  21.123  0.00  0.00    +0.000 A 
ATOM     17  C   UNL     1       1.349   7.642  20.321  0.00  0.00    +0.000 A 
ATOM     18  O   UNL     1       1.471   6.316  20.599  0.00  0.00    +0.000 OA
BRANCH  15  19
ATOM     19  N   UNL     1       0.146  10.917  21.379  0.00  0.00    +0.000 N 
ATOM     20  C   UNL     1       0.028  12.285  20.937  0.00  0.00    +0.000 C 
ATOM     21  C   UNL     1      -1.021  12.860  21.876  0.00  0.00    +0.000 C 
ATOM     22  N   UNL     1      -0.913  12.024  23.033  0.00  0.00    +0.000 N 
ATOM     23  C   UNL     1      -0.374  10.784  22.677  0.00  0.00    +0.000 C 
ATOM     24  O   UNL     1      -0.416   9.828  23.431  0.00  0.00    +0.000 OA
ATOM     25  H   UNL     1      -1.513  12.054  23.847  0.00  0.00    +0.000 HD
ENDBRANCH  15  19
ENDBRANCH   1  10
BRANCH   1  26
ATOM     26  C   UNL     1       4.083   4.014  19.786  0.00  0.00    +0.000 C 
BRANCH  26  35
ATOM     27  C   UNL     1       6.467   4.324  14.236  0.00  0.00    +0.000 A 
ATOM     28  C   UNL     1       7.145   5.453  14.744  0.00  0.00    +0.000 A 
ATOM     29  C   UNL     1       6.985   5.876  16.076  0.00  0.00    +0.000 A 
ATOM     30  C   UNL     1       6.142   5.146  16.889  0.00  0.00    +0.000 A 
ATOM     31  C   UNL     1       5.500   4.027  16.371  0.00  0.00    +0.000 A 
ATOM     32  C   UNL     1       5.626   3.594  15.067  0.00  0.00    +0.000 A 
ATOM     33  C   UNL     1       4.671   3.441  17.415  0.00  0.00    +0.000 C 
ATOM     34  O   UNL     1       3.969   2.462  17.262  0.00  0.00    +0.000 OA
ATOM     35  N   UNL     1       4.810   4.235  18.532  0.00  0.00    +0.000 N 
ATOM     36  C   UNL     1       5.738   5.341  18.317  0.00  0.00    +0.000 C 
BRANCH  27  38
ATOM     37  C   UNL     1       5.747   3.192  12.280  0.00  0.00    +0.000 C 
ATOM     38  O   UNL     1       6.706   4.034  12.919  0.00  0.00    +0.000 OA
ENDBRANCH  27  38
ENDBRANCH  26  35
ENDBRANCH   1  26
TORSDOF 5
ENDMDL
MODEL 8
REMARK VINA RESULT:      -9.4      0.877      1.039
REMARK  Name = 
REMARK  6 active torsions:
REMARK  status: ('A' for Active; 'I' for Inactive)
REMARK    1  A    between atoms: C_1  and  O_2
REMARK    2  A    between atoms: O_2  and  C_3
REMARK    3  A    between atoms: N_11  and  C_12
REMARK    4  A    between atoms: C_12  and  C_13
REMARK    5  A    between atoms: C_13  and  C_14
REMARK    6  A    between atoms: C_19  and  N_20
REMARK                            x       y       z     vdW  Elec       q    Type
REMARK                         _______ _______ _______ _____ _____    ______ ____
ROOT
ATOM      1  C   UNL     1       2.546   4.304  19.804  0.00  0.00    +0.000 C 
ATOM      2  N   UNL     1       1.771   3.578  18.817  0.00  0.00    +0.000 N 
ATOM      3  C   UNL     1       0.913   2.668  19.368  0.00  0.00    +0.000 C 
ATOM      4  O   UNL     1       0.209   1.891  18.754  0.00  0.00    +0.000 OA
ATOM      5  N   UNL     1       0.994   2.768  20.714  0.00  0.00    +0.000 N 
ATOM      6  C   UNL     1       1.959   3.661  21.075  0.00  0.00    +0.000 C 
ATOM      7  O   UNL     1       2.301   3.880  22.228  0.00  0.00    +0.000 OA
ATOM      8  H   UNL     1       2.019   3.520  17.832  0.00  0.00    +0.000 HD
ATOM      9  H   UNL     1       0.481   2.176  21.346  0.00  0.00    +0.000 HD
ENDROOT
BRANCH   1  10
ATOM     10  C   UNL     1       2.153   5.746  19.748  0.00  0.00    +0.000 A 
ATOM     11  C   UNL     1       2.611   6.820  19.005  0.00  0.00    +0.000 A 
ATOM     12  C   UNL     1       1.902   7.959  19.454  0.00  0.00    +0.000 A 
ATOM     13  C   UNL     1       1.889   9.316  19.164  0.00  0.00    +0.000 A 
ATOM     14  N   UNL     1       1.058  10.139  19.850  0.00  0.00    +0.000 NA
ATOM     15  C   UNL     1       0.236   9.675  20.818  0.00  0.00    +0.000 A 
ATOM     16  C   UNL     1       0.184   8.327  21.162  0.00  0.00    +0.000 A 
ATOM     17  C   UNL     1       1.041   7.511  20.440  0.00  0.00    +0.000 A 
ATOM     18  O   UNL     1       1.172   6.166  20.603  0.00  0.00    +0.000 OA
BRANCH  15  19
ATOM     19  N   UNL     1      -0.554  10.607  21.516  0.00  0.00    +0.000 N 
ATOM     20  C   UNL     1      -0.720  10.640  22.949  0.00  0.00    +0.000 C 
ATOM     21  C   UNL     1      -1.265  12.038  23.199  0.00  0.00    +0.000 C 
ATOM     22  N   UNL     1      -1.890  12.369  21.955  0.00  0.00    +0.000 N 
ATOM     23  C   UNL     1      -1.317  11.625  20.920  0.00  0.00    +0.000 C 
ATOM     24  O   UNL     1      -1.505  11.906  19.749  0.00  0.00    +0.000 OA
ATOM     25  H   UNL     1      -2.299  13.263  21.714  0.00  0.00    +0.000 HD
ENDBRANCH  15  19
ENDBRANCH   1  10
BRANCH   1  26
ATOM     26  C   UNL     1       4.074   4.050  19.746  0.00  0.00    +0.000 C 
BRANCH  26  35
ATOM     27  C   UNL     1       7.293   5.156  14.745  0.00  0.00    +0.000 A 
ATOM     28  C   UNL     1       6.379   4.272  14.132  0.00  0.00    +0.000 A 
ATOM     29  C   UNL     1       5.325   3.679  14.851  0.00  0.00    +0.000 A 
ATOM     30  C   UNL     1       5.199   3.992  16.189  0.00  0.00    +0.000 A 
ATOM     31  C   UNL     1       6.101   4.880  16.767  0.00  0.00    +0.000 A 
ATOM     32  C   UNL     1       7.151   5.468  16.091  0.00  0.00    +0.000 A 
ATOM     33  C   UNL     1       5.762   5.038  18.174  0.00  0.00    +0.000 C 
ATOM     34  O   UNL     1       6.381   5.736  18.952  0.00  0.00    +0.000 OA
ATOM     35  N   UNL     1       4.680   4.222  18.422  0.00  0.00    +0.000 N 
ATOM     36  C   UNL     1       4.226   3.521  17.224  0.00  0.00    +0.000 C 
BRANCH  27  38
ATOM     37  C   UNL     1       8.037   5.536  12.526  0.00  0.00    +0.000 C 
ATOM     38  O   UNL     1       8.275   5.649  13.929  0.00  0.00    +0.000 OA
ENDBRANCH  27  38
ENDBRANCH  26  35
ENDBRANCH   1  26
TORSDOF 5
ENDMDL
MODEL 9
REMARK VINA RESULT:      -9.4      2.800     10.548
REMARK  Name = 
REMARK  6 active torsions:
REMARK  status: ('A' for Active; 'I' for Inactive)
REMARK    1  A    between atoms: C_1  and  O_2
REMARK    2  A    between atoms: O_2  and  C_3
REMARK    3  A    between atoms: N_11  and  C_12
REMARK    4  A    between atoms: C_12  and  C_13
REMARK    5  A    between atoms: C_13  and  C_14
REMARK    6  A    between atoms: C_19  and  N_20
REMARK                            x       y       z     vdW  Elec       q    Type
REMARK                         _______ _______ _______ _____ _____    ______ ____
ROOT
ATOM      1  C   UNL     1       0.711  10.075  19.887  0.00  0.00    +0.000 C 
ATOM      2  N   UNL     1      -0.693   9.811  19.637  0.00  0.00    +0.000 N 
ATOM      3  C   UNL     1      -1.204  10.547  18.604  0.00  0.00    +0.000 C 
ATOM      4  O   UNL     1      -2.364  10.559  18.244  0.00  0.00    +0.000 OA
ATOM      5  N   UNL     1      -0.199  11.271  18.060  0.00  0.00    +0.000 N 
ATOM      6  C   UNL     1       0.954  11.107  18.770  0.00  0.00    +0.000 C 
ATOM      7  O   UNL     1       1.992  11.714  18.550  0.00  0.00    +0.000 OA
ATOM      8  H   UNL     1      -1.315   9.366  20.308  0.00  0.00    +0.000 HD
ATOM      9  H   UNL     1      -0.331  11.920  17.303  0.00  0.00    +0.000 HD
ENDROOT
BRANCH   1  10
ATOM     10  C   UNL     1       1.486   8.830  19.594  0.00  0.00    +0.000 A 
ATOM     11  C   UNL     1       1.692   7.658  20.300  0.00  0.00    +0.000 A 
ATOM     12  C   UNL     1       2.593   6.876  19.539  0.00  0.00    +0.000 A 
ATOM     13  C   UNL     1       3.219   5.645  19.673  0.00  0.00    +0.000 A 
ATOM     14  N   UNL     1       4.076   5.221  18.712  0.00  0.00    +0.000 NA
ATOM     15  C   UNL     1       4.345   5.969  17.618  0.00  0.00    +0.000 A 
ATOM     16  C   UNL     1       3.752   7.211  17.406  0.00  0.00    +0.000 A 
ATOM     17  C   UNL     1       2.877   7.614  18.403  0.00  0.00    +0.000 A 
ATOM     18  O   UNL     1       2.188   8.787  18.421  0.00  0.00    +0.000 OA
BRANCH  15  19
ATOM     19  N   UNL     1       5.287   5.477  16.697  0.00  0.00    +0.000 N 
ATOM     20  C   UNL     1       5.116   4.288  15.897  0.00  0.00    +0.000 C 
ATOM     21  C   UNL     1       6.161   4.456  14.805  0.00  0.00    +0.000 C 
ATOM     22  N   UNL     1       7.136   5.307  15.417  0.00  0.00    +0.000 N 
ATOM     23  C   UNL     1       6.542   6.053  16.440  0.00  0.00    +0.000 C 
ATOM     24  O   UNL     1       7.100   7.015  16.937  0.00  0.00    +0.000 OA
ATOM     25  H   UNL     1       7.948   5.704  14.963  0.00  0.00    +0.000 HD
ENDBRANCH  15  19
ENDBRANCH   1  10
BRANCH   1  26
ATOM     26  C   UNL     1       1.016  10.713  21.267  0.00  0.00    +0.000 C 
BRANCH  26  35
ATOM     27  C   UNL     1      -3.360  14.471  23.090  0.00  0.00    +0.000 A 
ATOM     28  C   UNL     1      -3.848  13.340  23.781  0.00  0.00    +0.000 A 
ATOM     29  C   UNL     1      -3.183  12.102  23.738  0.00  0.00    +0.000 A 
ATOM     30  C   UNL     1      -2.019  12.018  23.000  0.00  0.00    +0.000 A 
ATOM     31  C   UNL     1      -1.548  13.150  22.344  0.00  0.00    +0.000 A 
ATOM     32  C   UNL     1      -2.184  14.375  22.356  0.00  0.00    +0.000 A 
ATOM     33  C   UNL     1      -0.323  12.803  21.638  0.00  0.00    +0.000 C 
ATOM     34  O   UNL     1       0.315  13.578  20.955  0.00  0.00    +0.000 OA
ATOM     35  N   UNL     1      -0.095  11.463  21.862  0.00  0.00    +0.000 N 
ATOM     36  C   UNL     1      -1.104  10.864  22.731  0.00  0.00    +0.000 C 
BRANCH  27  38
ATOM     37  C   UNL     1      -5.448  15.424  23.684  0.00  0.00    +0.000 C 
ATOM     38  O   UNL     1      -4.114  15.607  23.209  0.00  0.00    +0.000 OA
ENDBRANCH  27  38
ENDBRANCH  26  35
ENDBRANCH   1  26
TORSDOF 5
ENDMDL
