MODEL 1
REMARK VINA RESULT:      -7.3      0.000      0.000
REMARK  Name = 
REMARK  7 active torsions:
REMARK  status: ('A' for Active; 'I' for Inactive)
REMARK    1  A    between atoms: C_1  and  N_2
REMARK    2  A    between atoms: N_2  and  C_3
REMARK    3  A    between atoms: C_3  and  C_4
REMARK    4  A    between atoms: C_4  and  O_5
REMARK    5  A    between atoms: N_12  and  C_13
REMARK    6  A    between atoms: C_16  and  S_17
REMARK    7  A    between atoms: S_17  and  N_18
REMARK                            x       y       z     vdW  Elec       q    Type
REMARK                         _______ _______ _______ _____ _____    ______ ____
ROOT
ATOM      1  C   UNL     1       4.235   2.003  20.396  0.00  0.00    +0.000 C 
ATOM      2  N   UNL     1       3.519   3.139  19.856  0.00  0.00    +0.000 N 
ATOM      3  C   UNL     1       4.192   4.062  19.090  0.00  0.00    +0.000 A 
ATOM      4  N   UNL     1       5.450   3.839  18.754  0.00  0.00    +0.000 NA
ATOM      5  C   UNL     1       5.986   4.789  18.002  0.00  0.00    +0.000 A 
ATOM      6 CL   UNL     1       7.610   4.534  17.529  0.00  0.00    +0.000 Cl
ATOM      7  N   UNL     1       5.433   5.916  17.577  0.00  0.00    +0.000 NA
ATOM      8  C   UNL     1       4.192   6.064  17.995  0.00  0.00    +0.000 A 
ATOM      9  N   UNL     1       3.527   7.242  17.642  0.00  0.00    +0.000 N 
ATOM     10  N   UNL     1       3.543   5.156  18.718  0.00  0.00    +0.000 NA
ATOM     11  H   UNL     1       4.156   7.836  17.116  0.00  0.00    +0.000 HD
ENDROOT
BRANCH   9  12
ATOM     12  C   UNL     1       2.609   7.958  18.433  0.00  0.00    +0.000 A 
ATOM     13  C   UNL     1       2.280   7.574  19.743  0.00  0.00    +0.000 A 
ATOM     14  C   UNL     1       1.390   8.326  20.513  0.00  0.00    +0.000 A 
ATOM     15  C   UNL     1       0.821   9.476  19.971  0.00  0.00    +0.000 A 
ATOM     16  C   UNL     1       1.108   9.862  18.661  0.00  0.00    +0.000 A 
ATOM     17  C   UNL     1       2.011   9.110  17.904  0.00  0.00    +0.000 A 
BRANCH  15  18
ATOM     18  S   UNL     1      -0.269  10.449  20.963  0.00  0.00    +0.000 S 
ATOM     19  O   UNL     1      -1.254  11.083  20.113  0.00  0.00    +0.000 OA
ATOM     20  O   UNL     1      -0.629   9.709  22.149  0.00  0.00    +0.000 OA
BRANCH  18  21
ATOM     21  N   UNL     1       0.761  11.674  21.471  0.00  0.00    +0.000 NA
ATOM     22  H   UNL     1       0.290  12.273  22.148  0.00  0.00    +0.000 HD
ATOM     23  H   UNL     1       1.641  11.278  21.803  0.00  0.00    +0.000 HD
ENDBRANCH  18  21
ENDBRANCH  15  18
ENDBRANCH   9  12
BRANCH   2  24
ATOM     24  C   UNL     1       2.078   3.285  20.075  0.00  0.00    +0.000 C 
BRANCH  24  25
ATOM     25  C   UNL     1       1.270   2.534  19.007  0.00  0.00    +0.000 C 
BRANCH  25  26
ATOM     26  O   UNL     1       1.129   3.327  17.827  0.00  0.00    +0.000 OA
ATOM     27  H   UNL     1       0.359   2.956  17.359  0.00  0.00    +0.000 HD
ENDBRANCH  25  26
ENDBRANCH  24  25
ENDBRANCH   2  24
TORSDOF 6
ENDMDL
MODEL 2
REMARK VINA RESULT:      -7.2      1.377      1.730
REMARK  Name = 
REMARK  7 active torsions:
REMARK  status: ('A' for Active; 'I' for Inactive)
REMARK    1  A    between atoms: C_1  and  N_2
REMARK    2  A    between atoms: N_2  and  C_3
REMARK    3  A    between atoms: C_3  and  C_4
REMARK    4  A    between atoms: C_4  and  O_5
REMARK    5  A    between atoms: N_12  and  C_13
REMARK    6  A    between atoms: C_16  and  S_17
REMARK    7  A    between atoms: S_17  and  N_18
REMARK                            x       y       z     vdW  Elec       q    Type
REMARK                         _______ _______ _______ _____ _____    ______ ____
ROOT
ATOM      1  C   UNL     1       3.642   1.615  18.187  0.00  0.00    +0.000 C 
ATOM      2  N   UNL     1       3.027   2.922  18.098  0.00  0.00    +0.000 N 
ATOM      3  C   UNL     1       3.762   3.986  17.625  0.00  0.00    +0.000 A 
ATOM      4  N   UNL     1       4.975   3.779  17.145  0.00  0.00    +0.000 NA
ATOM      5  C   UNL     1       5.577   4.874  16.704  0.00  0.00    +0.000 A 
ATOM      6 CL   UNL     1       7.145   4.650  16.058  0.00  0.00    +0.000 Cl
ATOM      7  N   UNL     1       5.128   6.120  16.708  0.00  0.00    +0.000 NA
ATOM      8  C   UNL     1       3.927   6.229  17.240  0.00  0.00    +0.000 A 
ATOM      9  N   UNL     1       3.376   7.509  17.337  0.00  0.00    +0.000 N 
ATOM     10  N   UNL     1       3.216   5.192  17.676  0.00  0.00    +0.000 NA
ATOM     11  H   UNL     1       4.042   8.187  16.988  0.00  0.00    +0.000 HD
ENDROOT
BRANCH   9  12
ATOM     12  C   UNL     1       2.570   8.001  18.382  0.00  0.00    +0.000 A 
ATOM     13  C   UNL     1       1.821   9.183  18.265  0.00  0.00    +0.000 A 
ATOM     14  C   UNL     1       1.006   9.625  19.310  0.00  0.00    +0.000 A 
ATOM     15  C   UNL     1       0.935   8.879  20.484  0.00  0.00    +0.000 A 
ATOM     16  C   UNL     1       1.694   7.717  20.635  0.00  0.00    +0.000 A 
ATOM     17  C   UNL     1       2.496   7.276  19.579  0.00  0.00    +0.000 A 
BRANCH  15  18
ATOM     18  S   UNL     1      -0.131   9.417  21.785  0.00  0.00    +0.000 S 
ATOM     19  O   UNL     1      -0.725  10.686  21.425  0.00  0.00    +0.000 OA
ATOM     20  O   UNL     1      -0.915   8.299  22.257  0.00  0.00    +0.000 OA
BRANCH  18  21
ATOM     21  N   UNL     1       0.979   9.752  22.998  0.00  0.00    +0.000 NA
ATOM     22  H   UNL     1       0.499  10.073  23.838  0.00  0.00    +0.000 HD
ATOM     23  H   UNL     1       1.592   8.950  23.147  0.00  0.00    +0.000 HD
ENDBRANCH  18  21
ENDBRANCH  15  18
ENDBRANCH   9  12
BRANCH   2  24
ATOM     24  C   UNL     1       1.619   3.111  18.456  0.00  0.00    +0.000 C 
BRANCH  24  25
ATOM     25  C   UNL     1       1.369   2.790  19.936  0.00  0.00    +0.000 C 
BRANCH  25  26
ATOM     26  O   UNL     1       0.350   3.635  20.474  0.00  0.00    +0.000 OA
ATOM     27  H   UNL     1       0.739   4.025  21.277  0.00  0.00    +0.000 HD
ENDBRANCH  25  26
ENDBRANCH  24  25
ENDBRANCH   2  24
TORSDOF 6
ENDMDL
MODEL 3
REMARK VINA RESULT:      -7.2      2.666      3.941
REMARK  Name = 
REMARK  7 active torsions:
REMARK  status: ('A' for Active; 'I' for Inactive)
REMARK    1  A    between atoms: C_1  and  N_2
REMARK    2  A    between atoms: N_2  and  C_3
REMARK    3  A    between atoms: C_3  and  C_4
REMARK    4  A    between atoms: C_4  and  O_5
REMARK    5  A    between atoms: N_12  and  C_13
REMARK    6  A    between atoms: C_16  and  S_17
REMARK    7  A    between atoms: S_17  and  N_18
REMARK                            x       y       z     vdW  Elec       q    Type
REMARK                         _______ _______ _______ _____ _____    ______ ____
ROOT
ATOM      1  C   UNL     1       6.146   4.547  15.683  0.00  0.00    +0.000 C 
ATOM      2  N   UNL     1       5.573   5.376  16.722  0.00  0.00    +0.000 N 
ATOM      3  C   UNL     1       4.716   4.815  17.642  0.00  0.00    +0.000 A 
ATOM      4  N   UNL     1       4.523   3.508  17.641  0.00  0.00    +0.000 NA
ATOM      5  C   UNL     1       3.692   3.083  18.581  0.00  0.00    +0.000 A 
ATOM      6 CL   UNL     1       3.424   1.395  18.628  0.00  0.00    +0.000 Cl
ATOM      7  N   UNL     1       3.033   3.796  19.483  0.00  0.00    +0.000 NA
ATOM      8  C   UNL     1       3.262   5.090  19.378  0.00  0.00    +0.000 A 
ATOM      9  N   UNL     1       2.581   5.940  20.253  0.00  0.00    +0.000 N 
ATOM     10  N   UNL     1       4.108   5.621  18.500  0.00  0.00    +0.000 NA
ATOM     11  H   UNL     1       1.963   5.392  20.839  0.00  0.00    +0.000 HD
ENDROOT
BRANCH   9  12
ATOM     12  C   UNL     1       2.082   7.224  19.959  0.00  0.00    +0.000 A 
ATOM     13  C   UNL     1       2.228   7.820  18.696  0.00  0.00    +0.000 A 
ATOM     14  C   UNL     1       1.692   9.081  18.428  0.00  0.00    +0.000 A 
ATOM     15  C   UNL     1       1.002   9.758  19.431  0.00  0.00    +0.000 A 
ATOM     16  C   UNL     1       0.870   9.200  20.704  0.00  0.00    +0.000 A 
ATOM     17  C   UNL     1       1.398   7.931  20.957  0.00  0.00    +0.000 A 
BRANCH  15  18
ATOM     18  S   UNL     1       0.287  11.333  19.075  0.00  0.00    +0.000 S 
ATOM     19  O   UNL     1      -0.592  11.716  20.159  0.00  0.00    +0.000 OA
ATOM     20  O   UNL     1       1.303  12.214  18.551  0.00  0.00    +0.000 OA
BRANCH  18  21
ATOM     21  N   UNL     1      -0.712  10.951  17.782  0.00  0.00    +0.000 NA
ATOM     22  H   UNL     1      -1.268  10.124  17.997  0.00  0.00    +0.000 HD
ATOM     23  H   UNL     1      -1.262  11.766  17.508  0.00  0.00    +0.000 HD
ENDBRANCH  18  21
ENDBRANCH  15  18
ENDBRANCH   9  12
BRANCH   2  24
ATOM     24  C   UNL     1       5.938   6.790  16.834  0.00  0.00    +0.000 C 
BRANCH  24  25
ATOM     25  C   UNL     1       7.304   6.965  17.512  0.00  0.00    +0.000 C 
BRANCH  25  26
ATOM     26  O   UNL     1       7.848   8.257  17.233  0.00  0.00    +0.000 OA
ATOM     27  H   UNL     1       7.317   8.604  16.494  0.00  0.00    +0.000 HD
ENDBRANCH  25  26
ENDBRANCH  24  25
ENDBRANCH   2  24
TORSDOF 6
ENDMDL
MODEL 4
REMARK VINA RESULT:      -7.2      0.196      1.025
REMARK  Name = 
REMARK  7 active torsions:
REMARK  status: ('A' for Active; 'I' for Inactive)
REMARK    1  A    between atoms: C_1  and  N_2
REMARK    2  A    between atoms: N_2  and  C_3
REMARK    3  A    between atoms: C_3  and  C_4
REMARK    4  A    between atoms: C_4  and  O_5
REMARK    5  A    between atoms: N_12  and  C_13
REMARK    6  A    between atoms: C_16  and  S_17
REMARK    7  A    between atoms: S_17  and  N_18
REMARK                            x       y       z     vdW  Elec       q    Type
REMARK                         _______ _______ _______ _____ _____    ______ ____
ROOT
ATOM      1  C   UNL     1       4.402   2.093  20.388  0.00  0.00    +0.000 C 
ATOM      2  N   UNL     1       3.662   3.210  19.840  0.00  0.00    +0.000 N 
ATOM      3  C   UNL     1       4.297   4.099  19.004  0.00  0.00    +0.000 A 
ATOM      4  N   UNL     1       5.536   3.857  18.614  0.00  0.00    +0.000 NA
ATOM      5  C   UNL     1       6.035   4.774  17.798  0.00  0.00    +0.000 A 
ATOM      6 CL   UNL     1       7.632   4.493  17.254  0.00  0.00    +0.000 Cl
ATOM      7  N   UNL     1       5.464   5.885  17.357  0.00  0.00    +0.000 NA
ATOM      8  C   UNL     1       4.245   6.055  17.831  0.00  0.00    +0.000 A 
ATOM      9  N   UNL     1       3.567   7.221  17.465  0.00  0.00    +0.000 N 
ATOM     10  N   UNL     1       3.632   5.179  18.622  0.00  0.00    +0.000 NA
ATOM     11  H   UNL     1       4.169   7.791  16.885  0.00  0.00    +0.000 HD
ENDROOT
BRANCH   9  12
ATOM     12  C   UNL     1       2.691   7.972  18.273  0.00  0.00    +0.000 A 
ATOM     13  C   UNL     1       2.116   9.179  17.843  0.00  0.00    +0.000 A 
ATOM     14  C   UNL     1       1.226   9.883  18.657  0.00  0.00    +0.000 A 
ATOM     15  C   UNL     1       0.903   9.376  19.914  0.00  0.00    +0.000 A 
ATOM     16  C   UNL     1       1.484   8.195  20.375  0.00  0.00    +0.000 A 
ATOM     17  C   UNL     1       2.364   7.491  19.548  0.00  0.00    +0.000 A 
BRANCH  15  18
ATOM     18  S   UNL     1      -0.259  10.245  20.921  0.00  0.00    +0.000 S 
ATOM     19  O   UNL     1      -1.221  10.915  20.074  0.00  0.00    +0.000 OA
ATOM     20  O   UNL     1      -0.651   9.410  22.032  0.00  0.00    +0.000 OA
BRANCH  18  21
ATOM     21  N   UNL     1       0.711  11.454  21.566  0.00  0.00    +0.000 NA
ATOM     22  H   UNL     1       0.626  11.470  22.582  0.00  0.00    +0.000 HD
ATOM     23  H   UNL     1       1.669  11.355  21.228  0.00  0.00    +0.000 HD
ENDBRANCH  18  21
ENDBRANCH  15  18
ENDBRANCH   9  12
BRANCH   2  24
ATOM     24  C   UNL     1       2.234   3.370  20.126  0.00  0.00    +0.000 C 
BRANCH  24  25
ATOM     25  C   UNL     1       1.373   2.534  19.169  0.00  0.00    +0.000 C 
BRANCH  25  26
ATOM     26  O   UNL     1       1.085   3.265  17.975  0.00  0.00    +0.000 OA
ATOM     27  H   UNL     1       1.754   3.972  17.940  0.00  0.00    +0.000 HD
ENDBRANCH  25  26
ENDBRANCH  24  25
ENDBRANCH   2  24
TORSDOF 6
ENDMDL
MODEL 5
REMARK VINA RESULT:      -7.2      1.606      1.804
REMARK  Name = 
REMARK  7 active torsions:
REMARK  status: ('A' for Active; 'I' for Inactive)
REMARK    1  A    between atoms: C_1  and  N_2
REMARK    2  A    between atoms: N_2  and  C_3
REMARK    3  A    between atoms: C_3  and  C_4
REMARK    4  A    between atoms: C_4  and  O_5
REMARK    5  A    between atoms: N_12  and  C_13
REMARK    6  A    between atoms: C_16  and  S_17
REMARK    7  A    between atoms: S_17  and  N_18
REMARK                            x       y       z     vdW  Elec       q    Type
REMARK                         _______ _______ _______ _____ _____    ______ ____
ROOT
ATOM      1  C   UNL     1       3.410   1.733  18.179  0.00  0.00    +0.000 C 
ATOM      2  N   UNL     1       2.786   3.039  18.162  0.00  0.00    +0.000 N 
ATOM      3  C   UNL     1       3.492   4.121  17.689  0.00  0.00    +0.000 A 
ATOM      4  N   UNL     1       4.681   3.937  17.143  0.00  0.00    +0.000 NA
ATOM      5  C   UNL     1       5.256   5.049  16.710  0.00  0.00    +0.000 A 
ATOM      6 CL   UNL     1       6.791   4.856  15.981  0.00  0.00    +0.000 Cl
ATOM      7  N   UNL     1       4.803   6.292  16.777  0.00  0.00    +0.000 NA
ATOM      8  C   UNL     1       3.629   6.376  17.371  0.00  0.00    +0.000 A 
ATOM      9  N   UNL     1       3.078   7.650  17.536  0.00  0.00    +0.000 N 
ATOM     10  N   UNL     1       2.944   5.322  17.806  0.00  0.00    +0.000 NA
ATOM     11  H   UNL     1       3.723   8.343  17.177  0.00  0.00    +0.000 HD
ENDROOT
BRANCH   9  12
ATOM     12  C   UNL     1       2.322   8.103  18.635  0.00  0.00    +0.000 A 
ATOM     13  C   UNL     1       2.266   7.404  19.852  0.00  0.00    +0.000 A 
ATOM     14  C   UNL     1       1.533   7.898  20.933  0.00  0.00    +0.000 A 
ATOM     15  C   UNL     1       0.849   9.105  20.801  0.00  0.00    +0.000 A 
ATOM     16  C   UNL     1       0.866   9.802  19.592  0.00  0.00    +0.000 A 
ATOM     17  C   UNL     1       1.613   9.306  18.521  0.00  0.00    +0.000 A 
BRANCH  15  18
ATOM     18  S   UNL     1      -0.038   9.749  22.185  0.00  0.00    +0.000 S 
ATOM     19  O   UNL     1       0.866   9.909  23.302  0.00  0.00    +0.000 OA
ATOM     20  O   UNL     1      -0.919  10.804  21.742  0.00  0.00    +0.000 OA
BRANCH  18  21
ATOM     21  N   UNL     1      -1.026   8.448  22.571  0.00  0.00    +0.000 NA
ATOM     22  H   UNL     1      -1.960   8.589  22.188  0.00  0.00    +0.000 HD
ATOM     23  H   UNL     1      -0.584   7.573  22.287  0.00  0.00    +0.000 HD
ENDBRANCH  18  21
ENDBRANCH  15  18
ENDBRANCH   9  12
BRANCH   2  24
ATOM     24  C   UNL     1       1.397   3.208  18.595  0.00  0.00    +0.000 C 
BRANCH  24  25
ATOM     25  C   UNL     1       1.230   2.886  20.087  0.00  0.00    +0.000 C 
BRANCH  25  26
ATOM     26  O   UNL     1       1.367   4.068  20.878  0.00  0.00    +0.000 OA
ATOM     27  H   UNL     1       2.263   4.022  21.256  0.00  0.00    +0.000 HD
ENDBRANCH  25  26
ENDBRANCH  24  25
ENDBRANCH   2  24
TORSDOF 6
ENDMDL
MODEL 6
REMARK VINA RESULT:      -7.1      1.012      1.071
REMARK  Name = 
REMARK  7 active torsions:
REMARK  status: ('A' for Active; 'I' for Inactive)
REMARK    1  A    between atoms: C_1  and  N_2
REMARK    2  A    between atoms: N_2  and  C_3
REMARK    3  A    between atoms: C_3  and  C_4
REMARK    4  A    between atoms: C_4  and  O_5
REMARK    5  A    between atoms: N_12  and  C_13
REMARK    6  A    between atoms: C_16  and  S_17
REMARK    7  A    between atoms: S_17  and  N_18
REMARK                            x       y       z     vdW  Elec       q    Type
REMARK                         _______ _______ _______ _____ _____    ______ ____
ROOT
ATOM      1  C   UNL     1       3.419   1.748  18.877  0.00  0.00    +0.000 C 
ATOM      2  N   UNL     1       2.871   3.052  18.574  0.00  0.00    +0.000 N 
ATOM      3  C   UNL     1       3.698   4.037  18.081  0.00  0.00    +0.000 A 
ATOM      4  N   UNL     1       4.949   3.746  17.776  0.00  0.00    +0.000 NA
ATOM      5  C   UNL     1       5.641   4.768  17.296  0.00  0.00    +0.000 A 
ATOM      6 CL   UNL     1       7.264   4.433  16.872  0.00  0.00    +0.000 Cl
ATOM      7  N   UNL     1       5.244   6.019  17.111  0.00  0.00    +0.000 NA
ATOM      8  C   UNL     1       3.994   6.217  17.480  0.00  0.00    +0.000 A 
ATOM      9  N   UNL     1       3.486   7.515  17.370  0.00  0.00    +0.000 N 
ATOM     10  N   UNL     1       3.197   5.255  17.935  0.00  0.00    +0.000 NA
ATOM     11  H   UNL     1       4.215   8.132  17.033  0.00  0.00    +0.000 HD
ENDROOT
BRANCH   9  12
ATOM     12  C   UNL     1       2.583   8.141  18.251  0.00  0.00    +0.000 A 
ATOM     13  C   UNL     1       2.302   7.634  19.530  0.00  0.00    +0.000 A 
ATOM     14  C   UNL     1       1.426   8.298  20.391  0.00  0.00    +0.000 A 
ATOM     15  C   UNL     1       0.824   9.483  19.974  0.00  0.00    +0.000 A 
ATOM     16  C   UNL     1       1.064   9.991  18.696  0.00  0.00    +0.000 A 
ATOM     17  C   UNL     1       1.953   9.326  17.847  0.00  0.00    +0.000 A 
BRANCH  15  18
ATOM     18  S   UNL     1      -0.247  10.345  21.083  0.00  0.00    +0.000 S 
ATOM     19  O   UNL     1      -1.241  11.070  20.322  0.00  0.00    +0.000 OA
ATOM     20  O   UNL     1      -0.592   9.480  22.186  0.00  0.00    +0.000 OA
BRANCH  18  21
ATOM     21  N   UNL     1       0.795  11.503  21.706  0.00  0.00    +0.000 NA
ATOM     22  H   UNL     1       1.034  11.280  22.672  0.00  0.00    +0.000 HD
ATOM     23  H   UNL     1       1.602  11.619  21.092  0.00  0.00    +0.000 HD
ENDBRANCH  18  21
ENDBRANCH  15  18
ENDBRANCH   9  12
BRANCH   2  24
ATOM     24  C   UNL     1       1.439   3.316  18.736  0.00  0.00    +0.000 C 
BRANCH  24  25
ATOM     25  C   UNL     1       1.067   3.500  20.214  0.00  0.00    +0.000 C 
BRANCH  25  26
ATOM     26  O   UNL     1       1.985   4.381  20.863  0.00  0.00    +0.000 OA
ATOM     27  H   UNL     1       1.865   5.244  20.427  0.00  0.00    +0.000 HD
ENDBRANCH  25  26
ENDBRANCH  24  25
ENDBRANCH   2  24
TORSDOF 6
ENDMDL
MODEL 7
REMARK VINA RESULT:      -7.1      1.283      1.468
REMARK  Name = 
REMARK  7 active torsions:
REMARK  status: ('A' for Active; 'I' for Inactive)
REMARK    1  A    between atoms: C_1  and  N_2
REMARK    2  A    between atoms: N_2  and  C_3
REMARK    3  A    between atoms: C_3  and  C_4
REMARK    4  A    between atoms: C_4  and  O_5
REMARK    5  A    between atoms: N_12  and  C_13
REMARK    6  A    between atoms: C_16  and  S_17
REMARK    7  A    between atoms: S_17  and  N_18
REMARK                            x       y       z     vdW  Elec       q    Type
REMARK                         _______ _______ _______ _____ _____    ______ ____
ROOT
ATOM      1  C   UNL     1       4.412   2.125  20.080  0.00  0.00    +0.000 C 
ATOM      2  N   UNL     1       3.625   3.253  19.630  0.00  0.00    +0.000 N 
ATOM      3  C   UNL     1       4.189   4.175  18.778  0.00  0.00    +0.000 A 
ATOM      4  N   UNL     1       5.395   3.957  18.285  0.00  0.00    +0.000 NA
ATOM      5  C   UNL     1       5.824   4.905  17.464  0.00  0.00    +0.000 A 
ATOM      6 CL   UNL     1       7.375   4.656  16.789  0.00  0.00    +0.000 Cl
ATOM      7  N   UNL     1       5.213   6.025  17.107  0.00  0.00    +0.000 NA
ATOM      8  C   UNL     1       4.035   6.170  17.680  0.00  0.00    +0.000 A 
ATOM      9  N   UNL     1       3.323   7.341  17.409  0.00  0.00    +0.000 N 
ATOM     10  N   UNL     1       3.490   5.263  18.486  0.00  0.00    +0.000 NA
ATOM     11  H   UNL     1       3.876   7.935  16.803  0.00  0.00    +0.000 HD
ENDROOT
BRANCH   9  12
ATOM     12  C   UNL     1       2.509   8.058  18.307  0.00  0.00    +0.000 A 
ATOM     13  C   UNL     1       2.220   7.592  19.600  0.00  0.00    +0.000 A 
ATOM     14  C   UNL     1       1.436   8.343  20.478  0.00  0.00    +0.000 A 
ATOM     15  C   UNL     1       0.935   9.575  20.063  0.00  0.00    +0.000 A 
ATOM     16  C   UNL     1       1.183  10.046  18.773  0.00  0.00    +0.000 A 
ATOM     17  C   UNL     1       1.980   9.292  17.907  0.00  0.00    +0.000 A 
BRANCH  15  18
ATOM     18  S   UNL     1      -0.018  10.543  21.191  0.00  0.00    +0.000 S 
ATOM     19  O   UNL     1      -0.696   9.667  22.122  0.00  0.00    +0.000 OA
ATOM     20  O   UNL     1       0.758  11.682  21.622  0.00  0.00    +0.000 OA
BRANCH  18  21
ATOM     21  N   UNL     1      -1.209  11.148  20.174  0.00  0.00    +0.000 NA
ATOM     22  H   UNL     1      -1.982  10.488  20.105  0.00  0.00    +0.000 HD
ATOM     23  H   UNL     1      -1.484  12.085  20.472  0.00  0.00    +0.000 HD
ENDBRANCH  18  21
ENDBRANCH  15  18
ENDBRANCH   9  12
BRANCH   2  24
ATOM     24  C   UNL     1       2.223   3.392  20.031  0.00  0.00    +0.000 C 
BRANCH  24  25
ATOM     25  C   UNL     1       2.094   3.651  21.539  0.00  0.00    +0.000 C 
BRANCH  25  26
ATOM     26  O   UNL     1       1.732   2.455  22.230  0.00  0.00    +0.000 OA
ATOM     27  H   UNL     1       2.375   2.375  22.958  0.00  0.00    +0.000 HD
ENDBRANCH  25  26
ENDBRANCH  24  25
ENDBRANCH   2  24
TORSDOF 6
ENDMDL
MODEL 8
REMARK VINA RESULT:      -7.0      2.570      3.836
REMARK  Name = 
REMARK  7 active torsions:
REMARK  status: ('A' for Active; 'I' for Inactive)
REMARK    1  A    between atoms: C_1  and  N_2
REMARK    2  A    between atoms: N_2  and  C_3
REMARK    3  A    between atoms: C_3  and  C_4
REMARK    4  A    between atoms: C_4  and  O_5
REMARK    5  A    between atoms: N_12  and  C_13
REMARK    6  A    between atoms: C_16  and  S_17
REMARK    7  A    between atoms: S_17  and  N_18
REMARK                            x       y       z     vdW  Elec       q    Type
REMARK                         _______ _______ _______ _____ _____    ______ ____
ROOT
ATOM      1  C   UNL     1       6.833   4.819  16.235  0.00  0.00    +0.000 C 
ATOM      2  N   UNL     1       6.082   5.557  17.228  0.00  0.00    +0.000 N 
ATOM      3  C   UNL     1       5.089   4.920  17.937  0.00  0.00    +0.000 A 
ATOM      4  N   UNL     1       4.915   3.619  17.793  0.00  0.00    +0.000 NA
ATOM      5  C   UNL     1       3.942   3.117  18.538  0.00  0.00    +0.000 A 
ATOM      6 CL   UNL     1       3.692   1.431  18.395  0.00  0.00    +0.000 Cl
ATOM      7  N   UNL     1       3.130   3.751  19.372  0.00  0.00    +0.000 NA
ATOM      8  C   UNL     1       3.358   5.049  19.418  0.00  0.00    +0.000 A 
ATOM      9  N   UNL     1       2.527   5.822  20.233  0.00  0.00    +0.000 N 
ATOM     10  N   UNL     1       4.334   5.651  18.744  0.00  0.00    +0.000 NA
ATOM     11  H   UNL     1       1.826   5.227  20.657  0.00  0.00    +0.000 HD
ENDROOT
BRANCH   9  12
ATOM     12  C   UNL     1       2.069   7.128  19.969  0.00  0.00    +0.000 A 
ATOM     13  C   UNL     1       1.438   7.918  20.943  0.00  0.00    +0.000 A 
ATOM     14  C   UNL     1       1.026   9.221  20.656  0.00  0.00    +0.000 A 
ATOM     15  C   UNL     1       1.247   9.744  19.384  0.00  0.00    +0.000 A 
ATOM     16  C   UNL     1       1.846   8.968  18.391  0.00  0.00    +0.000 A 
ATOM     17  C   UNL     1       2.267   7.670  18.691  0.00  0.00    +0.000 A 
BRANCH  15  18
ATOM     18  S   UNL     1       0.766  11.408  19.040  0.00  0.00    +0.000 S 
ATOM     19  O   UNL     1       0.100  11.964  20.197  0.00  0.00    +0.000 OA
ATOM     20  O   UNL     1       1.845  12.090  18.363  0.00  0.00    +0.000 OA
BRANCH  18  21
ATOM     21  N   UNL     1      -0.430  11.168  17.887  0.00  0.00    +0.000 NA
ATOM     22  H   UNL     1      -0.852  12.059  17.626  0.00  0.00    +0.000 HD
ATOM     23  H   UNL     1      -0.059  10.634  17.101  0.00  0.00    +0.000 HD
ENDBRANCH  18  21
ENDBRANCH  15  18
ENDBRANCH   9  12
BRANCH   2  24
ATOM     24  C   UNL     1       6.405   6.956  17.520  0.00  0.00    +0.000 C 
BRANCH  24  25
ATOM     25  C   UNL     1       7.840   7.103  18.046  0.00  0.00    +0.000 C 
BRANCH  25  26
ATOM     26  O   UNL     1       8.038   6.299  19.211  0.00  0.00    +0.000 OA
ATOM     27  H   UNL     1       8.680   6.789  19.755  0.00  0.00    +0.000 HD
ENDBRANCH  25  26
ENDBRANCH  24  25
ENDBRANCH   2  24
TORSDOF 6
ENDMDL
MODEL 9
REMARK VINA RESULT:      -7.0      2.568      3.861
REMARK  Name = 
REMARK  7 active torsions:
REMARK  status: ('A' for Active; 'I' for Inactive)
REMARK    1  A    between atoms: C_1  and  N_2
REMARK    2  A    between atoms: N_2  and  C_3
REMARK    3  A    between atoms: C_3  and  C_4
REMARK    4  A    between atoms: C_4  and  O_5
REMARK    5  A    between atoms: N_12  and  C_13
REMARK    6  A    between atoms: C_16  and  S_17
REMARK    7  A    between atoms: S_17  and  N_18
REMARK                            x       y       z     vdW  Elec       q    Type
REMARK                         _______ _______ _______ _____ _____    ______ ____
ROOT
ATOM      1  C   UNL     1       7.060   4.376  16.844  0.00  0.00    +0.000 C 
ATOM      2  N   UNL     1       6.246   5.168  17.740  0.00  0.00    +0.000 N 
ATOM      3  C   UNL     1       5.119   4.612  18.302  0.00  0.00    +0.000 A 
ATOM      4  N   UNL     1       4.862   3.330  18.116  0.00  0.00    +0.000 NA
ATOM      5  C   UNL     1       3.761   2.906  18.719  0.00  0.00    +0.000 A 
ATOM      6 CL   UNL     1       3.397   1.246  18.518  0.00  0.00    +0.000 Cl
ATOM      7  N   UNL     1       2.899   3.600  19.447  0.00  0.00    +0.000 NA
ATOM      8  C   UNL     1       3.222   4.875  19.543  0.00  0.00    +0.000 A 
ATOM      9  N   UNL     1       2.355   5.710  20.252  0.00  0.00    +0.000 N 
ATOM     10  N   UNL     1       4.325   5.399  19.014  0.00  0.00    +0.000 NA
ATOM     11  H   UNL     1       1.559   5.173  20.571  0.00  0.00    +0.000 HD
ENDROOT
BRANCH   9  12
ATOM     12  C   UNL     1       2.044   7.050  19.950  0.00  0.00    +0.000 A 
ATOM     13  C   UNL     1       2.298   7.618  18.691  0.00  0.00    +0.000 A 
ATOM     14  C   UNL     1       1.946   8.941  18.414  0.00  0.00    +0.000 A 
ATOM     15  C   UNL     1       1.331   9.706  19.402  0.00  0.00    +0.000 A 
ATOM     16  C   UNL     1       1.095   9.173  20.670  0.00  0.00    +0.000 A 
ATOM     17  C   UNL     1       1.439   7.844  20.933  0.00  0.00    +0.000 A 
BRANCH  15  18
ATOM     18  S   UNL     1       0.846  11.364  19.033  0.00  0.00    +0.000 S 
ATOM     19  O   UNL     1       0.174  11.933  20.181  0.00  0.00    +0.000 OA
ATOM     20  O   UNL     1       1.925  12.040  18.351  0.00  0.00    +0.000 OA
BRANCH  18  21
ATOM     21  N   UNL     1      -0.345  11.104  17.880  0.00  0.00    +0.000 NA
ATOM     22  H   UNL     1      -0.824  11.978  17.664  0.00  0.00    +0.000 HD
ATOM     23  H   UNL     1       0.049  10.631  17.066  0.00  0.00    +0.000 HD
ENDBRANCH  18  21
ENDBRANCH  15  18
ENDBRANCH   9  12
BRANCH   2  24
ATOM     24  C   UNL     1       6.638   6.535  18.094  0.00  0.00    +0.000 C 
BRANCH  24  25
ATOM     25  C   UNL     1       7.966   6.555  18.865  0.00  0.00    +0.000 C 
BRANCH  25  26
ATOM     26  O   UNL     1       7.899   5.707  20.012  0.00  0.00    +0.000 OA
ATOM     27  H   UNL     1       6.955   5.669  20.250  0.00  0.00    +0.000 HD
ENDBRANCH  25  26
ENDBRANCH  24  25
ENDBRANCH   2  24
TORSDOF 6
ENDMDL
