MODEL 1
REMARK VINA RESULT:      -7.5      0.000      0.000
REMARK  Name = 
REMARK  7 active torsions:
REMARK  status: ('A' for Active; 'I' for Inactive)
REMARK    1  A    between atoms: C_2  and  C_3
REMARK    2  A    between atoms: C_3  and  N_4
REMARK    3  A    between atoms: C_8  and  C_9
REMARK    4  A    between atoms: C_9  and  N_10
REMARK    5  A    between atoms: N_15  and  C_16
REMARK    6  A    between atoms: C_16  and  C_17
REMARK    7  A    between atoms: C_17  and  C_18
REMARK                            x       y       z     vdW  Elec       q    Type
REMARK                         _______ _______ _______ _____ _____    ______ ____
ROOT
ATOM      1  O   UNL     1       2.639   3.112  17.315  0.00  0.00    +0.000 OA
ATOM      2  C   UNL     1       3.566   3.427  18.061  0.00  0.00    +0.000 C 
ATOM      3  N   UNL     1       4.469   4.402  17.707  0.00  0.00    +0.000 N 
ATOM      4  H   UNL     1       5.257   4.584  18.312  0.00  0.00    +0.000 HD
ENDROOT
BRANCH   2   5
ATOM      5  C   UNL     1       3.777   2.856  19.477  0.00  0.00    +0.000 C 
BRANCH   5   6
ATOM      6  N   UNL     1       3.193   3.689  20.568  0.00  0.00    +0.000 NA
ATOM      7  C   UNL     1       2.438   2.899  21.558  0.00  0.00    +0.000 C 
ATOM      8  C   UNL     1       1.092   2.663  20.913  0.00  0.00    +0.000 C 
ATOM      9  C   UNL     1       0.801   4.005  20.269  0.00  0.00    +0.000 C 
ATOM     10  C   UNL     1       2.182   4.628  19.989  0.00  0.00    +0.000 C 
BRANCH  10  11
ATOM     11  C   UNL     1       2.271   6.027  20.622  0.00  0.00    +0.000 C 
BRANCH  11  12
ATOM     12  N   UNL     1       2.237   7.087  19.642  0.00  0.00    +0.000 N 
ATOM     13  C   UNL     1       1.679   8.320  19.768  0.00  0.00    +0.000 A 
ATOM     14  N   UNL     1       1.776   8.962  18.626  0.00  0.00    +0.000 NA
ATOM     15  C   UNL     1       2.424   8.067  17.826  0.00  0.00    +0.000 A 
ATOM     16  N   UNL     1       2.724   6.898  18.401  0.00  0.00    +0.000 NA
ENDBRANCH  11  12
ENDBRANCH  10  11
ENDBRANCH   5   6
ENDBRANCH   2   5
BRANCH   3  17
ATOM     17  C   UNL     1       4.524   4.923  16.355  0.00  0.00    +0.000 C 
BRANCH  17  18
ATOM     18  C   UNL     1       5.958   4.848  15.845  0.00  0.00    +0.000 C 
ATOM     19  C   UNL     1       6.378   3.633  15.044  0.00  0.00    +0.000 C 
ATOM     20  C   UNL     1       6.158   4.939  14.341  0.00  0.00    +0.000 C 
BRANCH  18  21
ATOM     21  C   UNL     1       6.949   5.536  16.784  0.00  0.00    +0.000 A 
ATOM     22  C   UNL     1       7.528   4.828  17.854  0.00  0.00    +0.000 A 
ATOM     23  C   UNL     1       8.130   5.497  18.921  0.00  0.00    +0.000 A 
ATOM     24  C   UNL     1       8.199   6.886  18.922  0.00  0.00    +0.000 A 
ATOM     25  C   UNL     1       7.721   7.604  17.830  0.00  0.00    +0.000 A 
ATOM     26  C   UNL     1       7.118   6.933  16.766  0.00  0.00    +0.000 A 
ENDBRANCH  18  21
ENDBRANCH  17  18
ENDBRANCH   3  17
TORSDOF 7
ENDMDL
MODEL 2
REMARK VINA RESULT:      -7.3      3.276      7.425
REMARK  Name = 
REMARK  7 active torsions:
REMARK  status: ('A' for Active; 'I' for Inactive)
REMARK    1  A    between atoms: C_2  and  C_3
REMARK    2  A    between atoms: C_3  and  N_4
REMARK    3  A    between atoms: C_8  and  C_9
REMARK    4  A    between atoms: C_9  and  N_10
REMARK    5  A    between atoms: N_15  and  C_16
REMARK    6  A    between atoms: C_16  and  C_17
REMARK    7  A    between atoms: C_17  and  C_18
REMARK                            x       y       z     vdW  Elec       q    Type
REMARK                         _______ _______ _______ _____ _____    ______ ____
ROOT
ATOM      1  O   UNL     1       3.147   7.961  17.359  0.00  0.00    +0.000 OA
ATOM      2  C   UNL     1       2.519   7.805  18.405  0.00  0.00    +0.000 C 
ATOM      3  N   UNL     1       1.517   8.672  18.774  0.00  0.00    +0.000 N 
ATOM      4  H   UNL     1       1.072   8.553  19.673  0.00  0.00    +0.000 HD
ENDROOT
BRANCH   2   5
ATOM      5  C   UNL     1       2.702   6.609  19.360  0.00  0.00    +0.000 C 
BRANCH   5   6
ATOM      6  N   UNL     1       3.049   5.327  18.680  0.00  0.00    +0.000 NA
ATOM      7  C   UNL     1       1.868   4.600  18.180  0.00  0.00    +0.000 C 
ATOM      8  C   UNL     1       1.312   3.893  19.395  0.00  0.00    +0.000 C 
ATOM      9  C   UNL     1       2.568   3.407  20.091  0.00  0.00    +0.000 C 
ATOM     10  C   UNL     1       3.674   4.394  19.669  0.00  0.00    +0.000 C 
BRANCH  10  11
ATOM     11  C   UNL     1       4.862   3.630  19.062  0.00  0.00    +0.000 C 
BRANCH  11  12
ATOM     12  N   UNL     1       5.958   4.499  18.700  0.00  0.00    +0.000 N 
ATOM     13  C   UNL     1       6.569   4.610  17.490  0.00  0.00    +0.000 A 
ATOM     14  N   UNL     1       7.579   5.444  17.586  0.00  0.00    +0.000 NA
ATOM     15  C   UNL     1       7.533   5.831  18.894  0.00  0.00    +0.000 A 
ATOM     16  N   UNL     1       6.559   5.276  19.621  0.00  0.00    +0.000 NA
ENDBRANCH  11  12
ENDBRANCH  10  11
ENDBRANCH   5   6
ENDBRANCH   2   5
BRANCH   3  17
ATOM     17  C   UNL     1       1.323   9.934  18.089  0.00  0.00    +0.000 C 
BRANCH  17  18
ATOM     18  C   UNL     1       0.374  10.807  18.902  0.00  0.00    +0.000 C 
ATOM     19  C   UNL     1       0.721  11.100  20.348  0.00  0.00    +0.000 C 
ATOM     20  C   UNL     1       0.888  12.176  19.318  0.00  0.00    +0.000 C 
BRANCH  18  21
ATOM     21  C   UNL     1      -1.083  10.642  18.475  0.00  0.00    +0.000 A 
ATOM     22  C   UNL     1      -1.414   9.872  17.345  0.00  0.00    +0.000 A 
ATOM     23  C   UNL     1      -2.658   9.997  16.724  0.00  0.00    +0.000 A 
ATOM     24  C   UNL     1      -3.610  10.867  17.243  0.00  0.00    +0.000 A 
ATOM     25  C   UNL     1      -3.344  11.565  18.416  0.00  0.00    +0.000 A 
ATOM     26  C   UNL     1      -2.100  11.440  19.034  0.00  0.00    +0.000 A 
ENDBRANCH  18  21
ENDBRANCH  17  18
ENDBRANCH   3  17
TORSDOF 7
ENDMDL
MODEL 3
REMARK VINA RESULT:      -7.1      2.745      7.071
REMARK  Name = 
REMARK  7 active torsions:
REMARK  status: ('A' for Active; 'I' for Inactive)
REMARK    1  A    between atoms: C_2  and  C_3
REMARK    2  A    between atoms: C_3  and  N_4
REMARK    3  A    between atoms: C_8  and  C_9
REMARK    4  A    between atoms: C_9  and  N_10
REMARK    5  A    between atoms: N_15  and  C_16
REMARK    6  A    between atoms: C_16  and  C_17
REMARK    7  A    between atoms: C_17  and  C_18
REMARK                            x       y       z     vdW  Elec       q    Type
REMARK                         _______ _______ _______ _____ _____    ______ ____
ROOT
ATOM      1  O   UNL     1       2.678   7.648  18.699  0.00  0.00    +0.000 OA
ATOM      2  C   UNL     1       2.333   6.906  19.617  0.00  0.00    +0.000 C 
ATOM      3  N   UNL     1       1.787   7.408  20.776  0.00  0.00    +0.000 N 
ATOM      4  H   UNL     1       1.581   6.774  21.536  0.00  0.00    +0.000 HD
ENDROOT
BRANCH   2   5
ATOM      5  C   UNL     1       2.380   5.366  19.558  0.00  0.00    +0.000 C 
BRANCH   5   6
ATOM      6  N   UNL     1       2.502   4.809  18.180  0.00  0.00    +0.000 NA
ATOM      7  C   UNL     1       1.395   3.902  17.823  0.00  0.00    +0.000 C 
ATOM      8  C   UNL     1       1.757   2.584  18.470  0.00  0.00    +0.000 C 
ATOM      9  C   UNL     1       3.248   2.495  18.214  0.00  0.00    +0.000 C 
ATOM     10  C   UNL     1       3.728   3.955  18.096  0.00  0.00    +0.000 C 
BRANCH  10  11
ATOM     11  C   UNL     1       4.480   4.161  16.770  0.00  0.00    +0.000 C 
BRANCH  11  12
ATOM     12  N   UNL     1       5.591   5.076  16.895  0.00  0.00    +0.000 N 
ATOM     13  C   UNL     1       6.479   5.443  15.934  0.00  0.00    +0.000 A 
ATOM     14  N   UNL     1       7.395   6.223  16.462  0.00  0.00    +0.000 NA
ATOM     15  C   UNL     1       7.006   6.313  17.766  0.00  0.00    +0.000 A 
ATOM     16  N   UNL     1       5.907   5.622  18.084  0.00  0.00    +0.000 NA
ENDBRANCH  11  12
ENDBRANCH  10  11
ENDBRANCH   5   6
ENDBRANCH   2   5
BRANCH   3  17
ATOM     17  C   UNL     1       1.821   8.826  21.072  0.00  0.00    +0.000 C 
BRANCH  17  18
ATOM     18  C   UNL     1       0.396   9.360  21.147  0.00  0.00    +0.000 C 
ATOM     19  C   UNL     1      -0.684   8.462  21.718  0.00  0.00    +0.000 C 
ATOM     20  C   UNL     1      -0.172   9.611  22.535  0.00  0.00    +0.000 C 
BRANCH  18  21
ATOM     21  C   UNL     1       0.074  10.328  20.010  0.00  0.00    +0.000 A 
ATOM     22  C   UNL     1       0.720  11.575  19.929  0.00  0.00    +0.000 A 
ATOM     23  C   UNL     1       0.202  12.608  19.145  0.00  0.00    +0.000 A 
ATOM     24  C   UNL     1      -0.952  12.402  18.397  0.00  0.00    +0.000 A 
ATOM     25  C   UNL     1      -1.553  11.148  18.382  0.00  0.00    +0.000 A 
ATOM     26  C   UNL     1      -1.035  10.118  19.168  0.00  0.00    +0.000 A 
ENDBRANCH  18  21
ENDBRANCH  17  18
ENDBRANCH   3  17
TORSDOF 7
ENDMDL
MODEL 4
REMARK VINA RESULT:      -7.0      0.983      2.857
REMARK  Name = 
REMARK  7 active torsions:
REMARK  status: ('A' for Active; 'I' for Inactive)
REMARK    1  A    between atoms: C_2  and  C_3
REMARK    2  A    between atoms: C_3  and  N_4
REMARK    3  A    between atoms: C_8  and  C_9
REMARK    4  A    between atoms: C_9  and  N_10
REMARK    5  A    between atoms: N_15  and  C_16
REMARK    6  A    between atoms: C_16  and  C_17
REMARK    7  A    between atoms: C_17  and  C_18
REMARK                            x       y       z     vdW  Elec       q    Type
REMARK                         _______ _______ _______ _____ _____    ______ ____
ROOT
ATOM      1  O   UNL     1       3.306   2.870  17.457  0.00  0.00    +0.000 OA
ATOM      2  C   UNL     1       4.054   3.388  18.285  0.00  0.00    +0.000 C 
ATOM      3  N   UNL     1       4.837   4.471  17.962  0.00  0.00    +0.000 N 
ATOM      4  H   UNL     1       5.491   4.826  18.647  0.00  0.00    +0.000 HD
ENDROOT
BRANCH   2   5
ATOM      5  C   UNL     1       4.142   2.964  19.765  0.00  0.00    +0.000 C 
BRANCH   5   6
ATOM      6  N   UNL     1       3.247   3.733  20.678  0.00  0.00    +0.000 NA
ATOM      7  C   UNL     1       2.374   2.869  21.494  0.00  0.00    +0.000 C 
ATOM      8  C   UNL     1       1.237   2.493  20.571  0.00  0.00    +0.000 C 
ATOM      9  C   UNL     1       0.963   3.796  19.846  0.00  0.00    +0.000 C 
ATOM     10  C   UNL     1       2.301   4.561  19.865  0.00  0.00    +0.000 C 
BRANCH  10  11
ATOM     11  C   UNL     1       2.103   5.961  20.468  0.00  0.00    +0.000 C 
BRANCH  11  12
ATOM     12  N   UNL     1       2.239   7.015  19.488  0.00  0.00    +0.000 N 
ATOM     13  C   UNL     1       1.723   8.271  19.540  0.00  0.00    +0.000 A 
ATOM     14  N   UNL     1       1.992   8.900  18.418  0.00  0.00    +0.000 NA
ATOM     15  C   UNL     1       2.697   7.972  17.709  0.00  0.00    +0.000 A 
ATOM     16  N   UNL     1       2.871   6.796  18.320  0.00  0.00    +0.000 NA
ENDBRANCH  11  12
ENDBRANCH  10  11
ENDBRANCH   5   6
ENDBRANCH   2   5
BRANCH   3  17
ATOM     17  C   UNL     1       5.007   4.895  16.587  0.00  0.00    +0.000 C 
BRANCH  17  18
ATOM     18  C   UNL     1       6.495   4.971  16.264  0.00  0.00    +0.000 C 
ATOM     19  C   UNL     1       7.333   6.027  16.958  0.00  0.00    +0.000 C 
ATOM     20  C   UNL     1       7.459   4.593  17.377  0.00  0.00    +0.000 C 
BRANCH  18  21
ATOM     21  C   UNL     1       6.802   4.563  14.825  0.00  0.00    +0.000 A 
ATOM     22  C   UNL     1       7.695   5.319  14.042  0.00  0.00    +0.000 A 
ATOM     23  C   UNL     1       7.717   5.200  12.652  0.00  0.00    +0.000 A 
ATOM     24  C   UNL     1       6.873   4.295  12.017  0.00  0.00    +0.000 A 
ATOM     25  C   UNL     1       6.052   3.466  12.775  0.00  0.00    +0.000 A 
ATOM     26  C   UNL     1       6.031   3.588  14.164  0.00  0.00    +0.000 A 
ENDBRANCH  18  21
ENDBRANCH  17  18
ENDBRANCH   3  17
TORSDOF 7
ENDMDL
MODEL 5
REMARK VINA RESULT:      -6.9      3.849      6.660
REMARK  Name = 
REMARK  7 active torsions:
REMARK  status: ('A' for Active; 'I' for Inactive)
REMARK    1  A    between atoms: C_2  and  C_3
REMARK    2  A    between atoms: C_3  and  N_4
REMARK    3  A    between atoms: C_8  and  C_9
REMARK    4  A    between atoms: C_9  and  N_10
REMARK    5  A    between atoms: N_15  and  C_16
REMARK    6  A    between atoms: C_16  and  C_17
REMARK    7  A    between atoms: C_17  and  C_18
REMARK                            x       y       z     vdW  Elec       q    Type
REMARK                         _______ _______ _______ _____ _____    ______ ____
ROOT
ATOM      1  O   UNL     1       2.602   9.726  17.452  0.00  0.00    +0.000 OA
ATOM      2  C   UNL     1       2.047   8.996  18.271  0.00  0.00    +0.000 C 
ATOM      3  N   UNL     1       2.495   7.718  18.509  0.00  0.00    +0.000 N 
ATOM      4  H   UNL     1       1.971   7.123  19.136  0.00  0.00    +0.000 HD
ENDROOT
BRANCH   2   5
ATOM      5  C   UNL     1       0.874   9.432  19.172  0.00  0.00    +0.000 C 
BRANCH   5   6
ATOM      6  N   UNL     1       0.520  10.877  19.062  0.00  0.00    +0.000 NA
ATOM      7  C   UNL     1       1.034  11.685  20.183  0.00  0.00    +0.000 C 
ATOM      8  C   UNL     1       0.049  11.450  21.307  0.00  0.00    +0.000 C 
ATOM      9  C   UNL     1      -1.282  11.473  20.582  0.00  0.00    +0.000 C 
ATOM     10  C   UNL     1      -0.967  11.031  19.140  0.00  0.00    +0.000 C 
BRANCH  10  11
ATOM     11  C   UNL     1      -1.487  12.076  18.139  0.00  0.00    +0.000 C 
BRANCH  11  12
ATOM     12  N   UNL     1      -2.677  11.641  17.446  0.00  0.00    +0.000 N 
ATOM     13  C   UNL     1      -3.950  11.600  17.922  0.00  0.00    +0.000 A 
ATOM     14  N   UNL     1      -4.737  11.060  17.019  0.00  0.00    +0.000 NA
ATOM     15  C   UNL     1      -3.884  10.797  15.988  0.00  0.00    +0.000 A 
ATOM     16  N   UNL     1      -2.607  11.130  16.203  0.00  0.00    +0.000 NA
ENDBRANCH  11  12
ENDBRANCH  10  11
ENDBRANCH   5   6
ENDBRANCH   2   5
BRANCH   3  17
ATOM     17  C   UNL     1       3.471   7.087  17.643  0.00  0.00    +0.000 C 
BRANCH  17  18
ATOM     18  C   UNL     1       3.804   5.702  18.184  0.00  0.00    +0.000 C 
ATOM     19  C   UNL     1       4.900   4.905  17.506  0.00  0.00    +0.000 C 
ATOM     20  C   UNL     1       5.163   5.531  18.843  0.00  0.00    +0.000 C 
BRANCH  18  21
ATOM     21  C   UNL     1       2.583   4.995  18.770  0.00  0.00    +0.000 A 
ATOM     22  C   UNL     1       2.320   5.051  20.152  0.00  0.00    +0.000 A 
ATOM     23  C   UNL     1       1.453   4.141  20.760  0.00  0.00    +0.000 A 
ATOM     24  C   UNL     1       0.804   3.179  19.993  0.00  0.00    +0.000 A 
ATOM     25  C   UNL     1       0.971   3.166  18.612  0.00  0.00    +0.000 A 
ATOM     26  C   UNL     1       1.839   4.076  18.007  0.00  0.00    +0.000 A 
ENDBRANCH  18  21
ENDBRANCH  17  18
ENDBRANCH   3  17
TORSDOF 7
ENDMDL
MODEL 6
REMARK VINA RESULT:      -6.9      2.915      7.158
REMARK  Name = 
REMARK  7 active torsions:
REMARK  status: ('A' for Active; 'I' for Inactive)
REMARK    1  A    between atoms: C_2  and  C_3
REMARK    2  A    between atoms: C_3  and  N_4
REMARK    3  A    between atoms: C_8  and  C_9
REMARK    4  A    between atoms: C_9  and  N_10
REMARK    5  A    between atoms: N_15  and  C_16
REMARK    6  A    between atoms: C_16  and  C_17
REMARK    7  A    between atoms: C_17  and  C_18
REMARK                            x       y       z     vdW  Elec       q    Type
REMARK                         _______ _______ _______ _____ _____    ______ ____
ROOT
ATOM      1  O   UNL     1       2.801   8.349  17.288  0.00  0.00    +0.000 OA
ATOM      2  C   UNL     1       2.365   8.014  18.388  0.00  0.00    +0.000 C 
ATOM      3  N   UNL     1       1.498   8.819  19.089  0.00  0.00    +0.000 N 
ATOM      4  H   UNL     1       1.217   8.545  20.020  0.00  0.00    +0.000 HD
ENDROOT
BRANCH   2   5
ATOM      5  C   UNL     1       2.650   6.658  19.063  0.00  0.00    +0.000 C 
BRANCH   5   6
ATOM      6  N   UNL     1       2.958   5.552  18.110  0.00  0.00    +0.000 NA
ATOM      7  C   UNL     1       1.790   4.701  17.815  0.00  0.00    +0.000 C 
ATOM      8  C   UNL     1       1.695   3.761  18.996  0.00  0.00    +0.000 C 
ATOM      9  C   UNL     1       3.149   3.415  19.253  0.00  0.00    +0.000 C 
ATOM     10  C   UNL     1       3.952   4.622  18.733  0.00  0.00    +0.000 C 
BRANCH  10  11
ATOM     11  C   UNL     1       5.013   4.158  17.721  0.00  0.00    +0.000 C 
BRANCH  11  12
ATOM     12  N   UNL     1       5.995   5.178  17.434  0.00  0.00    +0.000 N 
ATOM     13  C   UNL     1       6.578   5.460  16.238  0.00  0.00    +0.000 A 
ATOM     14  N   UNL     1       7.484   6.397  16.405  0.00  0.00    +0.000 NA
ATOM     15  C   UNL     1       7.404   6.666  17.740  0.00  0.00    +0.000 A 
ATOM     16  N   UNL     1       6.508   5.940  18.417  0.00  0.00    +0.000 NA
ENDBRANCH  11  12
ENDBRANCH  10  11
ENDBRANCH   5   6
ENDBRANCH   2   5
BRANCH   3  17
ATOM     17  C   UNL     1       1.253  10.191  18.690  0.00  0.00    +0.000 C 
BRANCH  17  18
ATOM     18  C   UNL     1      -0.198  10.551  18.988  0.00  0.00    +0.000 C 
ATOM     19  C   UNL     1      -0.850  11.653  18.177  0.00  0.00    +0.000 C 
ATOM     20  C   UNL     1      -1.221  10.224  17.912  0.00  0.00    +0.000 C 
BRANCH  18  21
ATOM     21  C   UNL     1      -0.557  10.358  20.460  0.00  0.00    +0.000 A 
ATOM     22  C   UNL     1      -0.870  11.464  21.271  0.00  0.00    +0.000 A 
ATOM     23  C   UNL     1      -0.842  11.371  22.663  0.00  0.00    +0.000 A 
ATOM     24  C   UNL     1      -0.536  10.159  23.274  0.00  0.00    +0.000 A 
ATOM     25  C   UNL     1      -0.320   9.027  22.495  0.00  0.00    +0.000 A 
ATOM     26  C   UNL     1      -0.348   9.123  21.104  0.00  0.00    +0.000 A 
ENDBRANCH  18  21
ENDBRANCH  17  18
ENDBRANCH   3  17
TORSDOF 7
ENDMDL
MODEL 7
REMARK VINA RESULT:      -6.9      2.897      6.774
REMARK  Name = 
REMARK  7 active torsions:
REMARK  status: ('A' for Active; 'I' for Inactive)
REMARK    1  A    between atoms: C_2  and  C_3
REMARK    2  A    between atoms: C_3  and  N_4
REMARK    3  A    between atoms: C_8  and  C_9
REMARK    4  A    between atoms: C_9  and  N_10
REMARK    5  A    between atoms: N_15  and  C_16
REMARK    6  A    between atoms: C_16  and  C_17
REMARK    7  A    between atoms: C_17  and  C_18
REMARK                            x       y       z     vdW  Elec       q    Type
REMARK                         _______ _______ _______ _____ _____    ______ ____
ROOT
ATOM      1  O   UNL     1       1.909   6.398  20.414  0.00  0.00    +0.000 OA
ATOM      2  C   UNL     1       2.253   6.969  19.380  0.00  0.00    +0.000 C 
ATOM      3  N   UNL     1       1.999   8.306  19.183  0.00  0.00    +0.000 N 
ATOM      4  H   UNL     1       2.232   8.724  18.293  0.00  0.00    +0.000 HD
ENDROOT
BRANCH   2   5
ATOM      5  C   UNL     1       3.065   6.307  18.248  0.00  0.00    +0.000 C 
BRANCH   5   6
ATOM      6  N   UNL     1       3.799   5.076  18.659  0.00  0.00    +0.000 NA
ATOM      7  C   UNL     1       5.264   5.225  18.585  0.00  0.00    +0.000 C 
ATOM      8  C   UNL     1       5.595   5.027  17.123  0.00  0.00    +0.000 C 
ATOM      9  C   UNL     1       4.683   3.879  16.737  0.00  0.00    +0.000 C 
ATOM     10  C   UNL     1       3.486   3.968  17.702  0.00  0.00    +0.000 C 
BRANCH  10  11
ATOM     11  C   UNL     1       3.287   2.626  18.426  0.00  0.00    +0.000 C 
BRANCH  11  12
ATOM     12  N   UNL     1       2.654   2.777  19.716  0.00  0.00    +0.000 N 
ATOM     13  C   UNL     1       3.223   2.640  20.944  0.00  0.00    +0.000 A 
ATOM     14  N   UNL     1       2.299   2.767  21.869  0.00  0.00    +0.000 NA
ATOM     15  C   UNL     1       1.167   2.998  21.142  0.00  0.00    +0.000 A 
ATOM     16  N   UNL     1       1.332   3.008  19.816  0.00  0.00    +0.000 NA
ENDBRANCH  11  12
ENDBRANCH  10  11
ENDBRANCH   5   6
ENDBRANCH   2   5
BRANCH   3  17
ATOM     17  C   UNL     1       1.107   9.041  20.058  0.00  0.00    +0.000 C 
BRANCH  17  18
ATOM     18  C   UNL     1       0.525  10.228  19.300  0.00  0.00    +0.000 C 
ATOM     19  C   UNL     1      -0.280   9.961  18.044  0.00  0.00    +0.000 C 
ATOM     20  C   UNL     1      -0.989  10.368  19.301  0.00  0.00    +0.000 C 
BRANCH  18  21
ATOM     21  C   UNL     1       1.400  11.476  19.406  0.00  0.00    +0.000 A 
ATOM     22  C   UNL     1       1.347  12.291  20.552  0.00  0.00    +0.000 A 
ATOM     23  C   UNL     1       1.838  13.597  20.533  0.00  0.00    +0.000 A 
ATOM     24  C   UNL     1       2.426  14.103  19.379  0.00  0.00    +0.000 A 
ATOM     25  C   UNL     1       2.580  13.285  18.264  0.00  0.00    +0.000 A 
ATOM     26  C   UNL     1       2.087  11.980  18.285  0.00  0.00    +0.000 A 
ENDBRANCH  18  21
ENDBRANCH  17  18
ENDBRANCH   3  17
TORSDOF 7
ENDMDL
MODEL 8
REMARK VINA RESULT:      -6.8      2.704      7.310
REMARK  Name = 
REMARK  7 active torsions:
REMARK  status: ('A' for Active; 'I' for Inactive)
REMARK    1  A    between atoms: C_2  and  C_3
REMARK    2  A    between atoms: C_3  and  N_4
REMARK    3  A    between atoms: C_8  and  C_9
REMARK    4  A    between atoms: C_9  and  N_10
REMARK    5  A    between atoms: N_15  and  C_16
REMARK    6  A    between atoms: C_16  and  C_17
REMARK    7  A    between atoms: C_17  and  C_18
REMARK                            x       y       z     vdW  Elec       q    Type
REMARK                         _______ _______ _______ _____ _____    ______ ____
ROOT
ATOM      1  O   UNL     1       2.533   8.871  18.039  0.00  0.00    +0.000 OA
ATOM      2  C   UNL     1       2.347   7.799  18.614  0.00  0.00    +0.000 C 
ATOM      3  N   UNL     1       1.905   7.753  19.915  0.00  0.00    +0.000 N 
ATOM      4  H   UNL     1       1.831   6.857  20.376  0.00  0.00    +0.000 HD
ENDROOT
BRANCH   2   5
ATOM      5  C   UNL     1       2.493   6.417  17.947  0.00  0.00    +0.000 C 
BRANCH   5   6
ATOM      6  N   UNL     1       3.665   5.626  18.424  0.00  0.00    +0.000 NA
ATOM      7  C   UNL     1       4.938   6.055  17.814  0.00  0.00    +0.000 C 
ATOM      8  C   UNL     1       4.950   5.395  16.453  0.00  0.00    +0.000 C 
ATOM      9  C   UNL     1       4.397   4.017  16.756  0.00  0.00    +0.000 C 
ATOM     10  C   UNL     1       3.507   4.200  18.001  0.00  0.00    +0.000 C 
BRANCH  10  11
ATOM     11  C   UNL     1       3.938   3.224  19.108  0.00  0.00    +0.000 C 
BRANCH  11  12
ATOM     12  N   UNL     1       2.924   3.048  20.123  0.00  0.00    +0.000 N 
ATOM     13  C   UNL     1       3.074   2.524  21.368  0.00  0.00    +0.000 A 
ATOM     14  N   UNL     1       1.900   2.452  21.955  0.00  0.00    +0.000 NA
ATOM     15  C   UNL     1       1.056   2.966  21.015  0.00  0.00    +0.000 A 
ATOM     16  N   UNL     1       1.635   3.342  19.870  0.00  0.00    +0.000 NA
ENDBRANCH  11  12
ENDBRANCH  10  11
ENDBRANCH   5   6
ENDBRANCH   2   5
BRANCH   3  17
ATOM     17  C   UNL     1       1.875   8.941  20.744  0.00  0.00    +0.000 C 
BRANCH  17  18
ATOM     18  C   UNL     1       0.434   9.416  20.892  0.00  0.00    +0.000 C 
ATOM     19  C   UNL     1      -0.579   8.472  21.507  0.00  0.00    +0.000 C 
ATOM     20  C   UNL     1      -0.074   9.636  22.308  0.00  0.00    +0.000 C 
BRANCH  18  21
ATOM     21  C   UNL     1       0.019  10.378  19.780  0.00  0.00    +0.000 A 
ATOM     22  C   UNL     1       0.718  11.582  19.578  0.00  0.00    +0.000 A 
ATOM     23  C   UNL     1       0.160  12.627  18.840  0.00  0.00    +0.000 A 
ATOM     24  C   UNL     1      -1.094  12.476  18.257  0.00  0.00    +0.000 A 
ATOM     25  C   UNL     1      -1.762  11.260  18.359  0.00  0.00    +0.000 A 
ATOM     26  C   UNL     1      -1.203  10.218  19.099  0.00  0.00    +0.000 A 
ENDBRANCH  18  21
ENDBRANCH  17  18
ENDBRANCH   3  17
TORSDOF 7
ENDMDL
MODEL 9
REMARK VINA RESULT:      -6.8      2.742      7.029
REMARK  Name = 
REMARK  7 active torsions:
REMARK  status: ('A' for Active; 'I' for Inactive)
REMARK    1  A    between atoms: C_2  and  C_3
REMARK    2  A    between atoms: C_3  and  N_4
REMARK    3  A    between atoms: C_8  and  C_9
REMARK    4  A    between atoms: C_9  and  N_10
REMARK    5  A    between atoms: N_15  and  C_16
REMARK    6  A    between atoms: C_16  and  C_17
REMARK    7  A    between atoms: C_17  and  C_18
REMARK                            x       y       z     vdW  Elec       q    Type
REMARK                         _______ _______ _______ _____ _____    ______ ____
ROOT
ATOM      1  O   UNL     1       2.579   7.533  18.819  0.00  0.00    +0.000 OA
ATOM      2  C   UNL     1       2.206   6.846  19.768  0.00  0.00    +0.000 C 
ATOM      3  N   UNL     1       1.677   7.419  20.901  0.00  0.00    +0.000 N 
ATOM      4  H   UNL     1       1.448   6.828  21.689  0.00  0.00    +0.000 HD
ENDROOT
BRANCH   2   5
ATOM      5  C   UNL     1       2.198   5.304  19.778  0.00  0.00    +0.000 C 
BRANCH   5   6
ATOM      6  N   UNL     1       2.315   4.681  18.428  0.00  0.00    +0.000 NA
ATOM      7  C   UNL     1       1.331   3.607  18.200  0.00  0.00    +0.000 C 
ATOM      8  C   UNL     1       1.918   2.398  18.893  0.00  0.00    +0.000 C 
ATOM      9  C   UNL     1       3.388   2.503  18.538  0.00  0.00    +0.000 C 
ATOM     10  C   UNL     1       3.644   4.005  18.307  0.00  0.00    +0.000 C 
BRANCH  10  11
ATOM     11  C   UNL     1       4.275   4.228  16.922  0.00  0.00    +0.000 C 
BRANCH  11  12
ATOM     12  N   UNL     1       5.461   5.052  16.976  0.00  0.00    +0.000 N 
ATOM     13  C   UNL     1       6.755   4.644  17.070  0.00  0.00    +0.000 A 
ATOM     14  N   UNL     1       7.536   5.694  17.183  0.00  0.00    +0.000 NA
ATOM     15  C   UNL     1       6.656   6.736  17.138  0.00  0.00    +0.000 A 
ATOM     16  N   UNL     1       5.370   6.394  17.017  0.00  0.00    +0.000 NA
ENDBRANCH  11  12
ENDBRANCH  10  11
ENDBRANCH   5   6
ENDBRANCH   2   5
BRANCH   3  17
ATOM     17  C   UNL     1       1.762   8.847  21.134  0.00  0.00    +0.000 C 
BRANCH  17  18
ATOM     18  C   UNL     1       0.377   9.386  21.470  0.00  0.00    +0.000 C 
ATOM     19  C   UNL     1      -0.662   8.423  22.009  0.00  0.00    +0.000 C 
ATOM     20  C   UNL     1      -0.015   9.404  22.939  0.00  0.00    +0.000 C 
BRANCH  18  21
ATOM     21  C   UNL     1      -0.038  10.541  20.561  0.00  0.00    +0.000 A 
ATOM     22  C   UNL     1      -0.886  10.316  19.461  0.00  0.00    +0.000 A 
ATOM     23  C   UNL     1      -0.986  11.244  18.423  0.00  0.00    +0.000 A 
ATOM     24  C   UNL     1      -0.267  12.433  18.482  0.00  0.00    +0.000 A 
ATOM     25  C   UNL     1       0.502  12.723  19.604  0.00  0.00    +0.000 A 
ATOM     26  C   UNL     1       0.601  11.793  20.639  0.00  0.00    +0.000 A 
ENDBRANCH  18  21
ENDBRANCH  17  18
ENDBRANCH   3  17
TORSDOF 7
ENDMDL
