MODEL 1
REMARK VINA RESULT:      -9.2      0.000      0.000
REMARK  Name = 
REMARK  8 active torsions:
REMARK  status: ('A' for Active; 'I' for Inactive)
REMARK    1  A    between atoms: C_1  and  C_2
REMARK    2  A    between atoms: C_2  and  S_3
REMARK    3  A    between atoms: S_3  and  C_6
REMARK    4  A    between atoms: C_9  and  O_10
REMARK    5  A    between atoms: O_10  and  C_11
REMARK    6  A    between atoms: C_15  and  C_16
REMARK    7  A    between atoms: C_25  and  C_26
REMARK    8  A    between atoms: C_26  and  N_27
REMARK                            x       y       z     vdW  Elec       q    Type
REMARK                         _______ _______ _______ _____ _____    ______ ____
ROOT
ATOM      1  C   UNL     1       3.113   6.612  19.167  0.00  0.00    +0.000 A 
ATOM      2  C   UNL     1       3.669   7.010  17.954  0.00  0.00    +0.000 A 
ATOM      3  C   UNL     1       4.480   6.098  17.220  0.00  0.00    +0.000 A 
ATOM      4  N   UNL     1       5.068   6.269  15.998  0.00  0.00    +0.000 NA
ATOM      5  C   UNL     1       5.645   5.119  15.682  0.00  0.00    +0.000 A 
ATOM      6  N   UNL     1       5.535   4.242  16.747  0.00  0.00    +0.000 N 
ATOM      7  C   UNL     1       4.726   4.827  17.714  0.00  0.00    +0.000 A 
ATOM      8  C   UNL     1       4.172   4.375  18.925  0.00  0.00    +0.000 A 
ATOM      9  C   UNL     1       3.340   5.283  19.630  0.00  0.00    +0.000 A 
ATOM     10  H   UNL     1       5.931   3.311  16.755  0.00  0.00    +0.000 HD
ENDROOT
BRANCH   5  11
ATOM     11  C   UNL     1       6.235   4.851  14.361  0.00  0.00    +0.000 A 
ATOM     12  C   UNL     1       5.632   3.892  13.544  0.00  0.00    +0.000 A 
ATOM     13  C   UNL     1       6.246   3.499  12.362  0.00  0.00    +0.000 A 
ATOM     14  C   UNL     1       7.446   4.094  12.004  0.00  0.00    +0.000 A 
ATOM     15  C   UNL     1       7.965   5.070  12.847  0.00  0.00    +0.000 A 
ATOM     16  N   UNL     1       7.400   5.465  14.024  0.00  0.00    +0.000 NA
ENDBRANCH   5  11
BRANCH   1  17
ATOM     17  O   UNL     1       2.167   7.311  19.890  0.00  0.00    +0.000 OA
BRANCH  17  21
ATOM     18  C   UNL     1      -0.308  10.571  19.174  0.00  0.00    +0.000 A 
ATOM     19  C   UNL     1       0.595  10.204  18.168  0.00  0.00    +0.000 A 
ATOM     20  C   UNL     1       1.549   9.181  18.394  0.00  0.00    +0.000 A 
ATOM     21  C   UNL     1       1.613   8.545  19.631  0.00  0.00    +0.000 A 
ATOM     22  C   UNL     1       0.755   8.994  20.656  0.00  0.00    +0.000 A 
ATOM     23  C   UNL     1      -0.196  10.003  20.441  0.00  0.00    +0.000 A 
BRANCH  18  24
ATOM     24  S   UNL     1      -1.671  11.689  18.838  0.00  0.00    +0.000 S 
ATOM     25  O   UNL     1      -1.164  12.738  17.974  0.00  0.00    +0.000 OA
ATOM     26  O   UNL     1      -2.283  12.000  20.115  0.00  0.00    +0.000 OA
BRANCH  24  28
ATOM     27  C   UNL     1      -2.631  10.838  16.381  0.00  0.00    +0.000 C 
ATOM     28  C   UNL     1      -2.820  10.699  17.883  0.00  0.00    +0.000 C 
ENDBRANCH  24  28
ENDBRANCH  18  24
ENDBRANCH  17  21
ENDBRANCH   1  17
BRANCH   9  29
ATOM     29  C   UNL     1       2.673   4.834  20.935  0.00  0.00    +0.000 C 
BRANCH  29  30
ATOM     30  N   UNL     1       1.745   3.689  20.895  0.00  0.00    +0.000 NA
ATOM     31  C   UNL     1       2.304   2.352  20.705  0.00  0.00    +0.000 C 
ATOM     32  C   UNL     1       1.779   1.776  19.403  0.00  0.00    +0.000 C 
ATOM     33  C   UNL     1       0.674   2.698  18.946  0.00  0.00    +0.000 C 
ATOM     34  C   UNL     1       0.709   3.902  19.871  0.00  0.00    +0.000 C 
ENDBRANCH  29  30
ENDBRANCH   9  29
TORSDOF 7
ENDMDL
MODEL 2
REMARK VINA RESULT:      -9.0      1.600      1.668
REMARK  Name = 
REMARK  8 active torsions:
REMARK  status: ('A' for Active; 'I' for Inactive)
REMARK    1  A    between atoms: C_1  and  C_2
REMARK    2  A    between atoms: C_2  and  S_3
REMARK    3  A    between atoms: S_3  and  C_6
REMARK    4  A    between atoms: C_9  and  O_10
REMARK    5  A    between atoms: O_10  and  C_11
REMARK    6  A    between atoms: C_15  and  C_16
REMARK    7  A    between atoms: C_25  and  C_26
REMARK    8  A    between atoms: C_26  and  N_27
REMARK                            x       y       z     vdW  Elec       q    Type
REMARK                         _______ _______ _______ _____ _____    ______ ____
ROOT
ATOM      1  C   UNL     1       2.828   6.487  19.102  0.00  0.00    +0.000 A 
ATOM      2  C   UNL     1       3.311   6.873  17.854  0.00  0.00    +0.000 A 
ATOM      3  C   UNL     1       4.283   6.067  17.196  0.00  0.00    +0.000 A 
ATOM      4  N   UNL     1       4.839   6.238  15.959  0.00  0.00    +0.000 NA
ATOM      5  C   UNL     1       5.622   5.190  15.739  0.00  0.00    +0.000 A 
ATOM      6  N   UNL     1       5.667   4.404  16.878  0.00  0.00    +0.000 N 
ATOM      7  C   UNL     1       4.756   4.911  17.796  0.00  0.00    +0.000 A 
ATOM      8  C   UNL     1       4.285   4.471  19.046  0.00  0.00    +0.000 A 
ATOM      9  C   UNL     1       3.293   5.268  19.677  0.00  0.00    +0.000 A 
ATOM     10  H   UNL     1       6.229   3.567  16.963  0.00  0.00    +0.000 HD
ENDROOT
BRANCH   5  11
ATOM     11  C   UNL     1       6.262   4.923  14.442  0.00  0.00    +0.000 A 
ATOM     12  C   UNL     1       5.674   3.986  13.590  0.00  0.00    +0.000 A 
ATOM     13  C   UNL     1       6.330   3.592  12.430  0.00  0.00    +0.000 A 
ATOM     14  C   UNL     1       7.557   4.163  12.131  0.00  0.00    +0.000 A 
ATOM     15  C   UNL     1       8.061   5.118  13.007  0.00  0.00    +0.000 A 
ATOM     16  N   UNL     1       7.454   5.514  14.163  0.00  0.00    +0.000 NA
ENDBRANCH   5  11
BRANCH   1  17
ATOM     17  O   UNL     1       1.763   7.058  19.768  0.00  0.00    +0.000 OA
BRANCH  17  21
ATOM     18  C   UNL     1       0.439  10.674  21.329  0.00  0.00    +0.000 A 
ATOM     19  C   UNL     1       0.713  10.617  19.956  0.00  0.00    +0.000 A 
ATOM     20  C   UNL     1       1.282   9.453  19.383  0.00  0.00    +0.000 A 
ATOM     21  C   UNL     1       1.597   8.359  20.186  0.00  0.00    +0.000 A 
ATOM     22  C   UNL     1       1.397   8.476  21.577  0.00  0.00    +0.000 A 
ATOM     23  C   UNL     1       0.830   9.622  22.154  0.00  0.00    +0.000 A 
BRANCH  18  24
ATOM     24  S   UNL     1      -0.492  12.036  22.035  0.00  0.00    +0.000 S 
ATOM     25  O   UNL     1       0.355  13.212  21.980  0.00  0.00    +0.000 OA
ATOM     26  O   UNL     1      -1.037  11.563  23.293  0.00  0.00    +0.000 OA
BRANCH  24  28
ATOM     27  C   UNL     1      -1.621  13.436  19.927  0.00  0.00    +0.000 C 
ATOM     28  C   UNL     1      -1.845  12.279  20.886  0.00  0.00    +0.000 C 
ENDBRANCH  24  28
ENDBRANCH  18  24
ENDBRANCH  17  21
ENDBRANCH   1  17
BRANCH   9  29
ATOM     29  C   UNL     1       2.710   4.818  21.020  0.00  0.00    +0.000 C 
BRANCH  29  30
ATOM     30  N   UNL     1       1.835   3.631  21.048  0.00  0.00    +0.000 NA
ATOM     31  C   UNL     1       2.436   2.323  20.794  0.00  0.00    +0.000 C 
ATOM     32  C   UNL     1       1.825   1.734  19.535  0.00  0.00    +0.000 C 
ATOM     33  C   UNL     1       0.643   2.607  19.188  0.00  0.00    +0.000 C 
ATOM     34  C   UNL     1       0.705   3.804  20.122  0.00  0.00    +0.000 C 
ENDBRANCH  29  30
ENDBRANCH   9  29
TORSDOF 7
ENDMDL
MODEL 3
REMARK VINA RESULT:      -9.0      0.951      1.353
REMARK  Name = 
REMARK  8 active torsions:
REMARK  status: ('A' for Active; 'I' for Inactive)
REMARK    1  A    between atoms: C_1  and  C_2
REMARK    2  A    between atoms: C_2  and  S_3
REMARK    3  A    between atoms: S_3  and  C_6
REMARK    4  A    between atoms: C_9  and  O_10
REMARK    5  A    between atoms: O_10  and  C_11
REMARK    6  A    between atoms: C_15  and  C_16
REMARK    7  A    between atoms: C_25  and  C_26
REMARK    8  A    between atoms: C_26  and  N_27
REMARK                            x       y       z     vdW  Elec       q    Type
REMARK                         _______ _______ _______ _____ _____    ______ ____
ROOT
ATOM      1  C   UNL     1       2.963   6.648  19.171  0.00  0.00    +0.000 A 
ATOM      2  C   UNL     1       3.494   7.028  17.941  0.00  0.00    +0.000 A 
ATOM      3  C   UNL     1       4.366   6.141  17.248  0.00  0.00    +0.000 A 
ATOM      4  N   UNL     1       4.944   6.298  16.018  0.00  0.00    +0.000 NA
ATOM      5  C   UNL     1       5.597   5.176  15.753  0.00  0.00    +0.000 A 
ATOM      6  N   UNL     1       5.543   4.341  16.855  0.00  0.00    +0.000 N 
ATOM      7  C   UNL     1       4.695   4.912  17.796  0.00  0.00    +0.000 A 
ATOM      8  C   UNL     1       4.169   4.477  19.025  0.00  0.00    +0.000 A 
ATOM      9  C   UNL     1       3.276   5.358  19.691  0.00  0.00    +0.000 A 
ATOM     10  H   UNL     1       6.000   3.439  16.903  0.00  0.00    +0.000 HD
ENDROOT
BRANCH   5  11
ATOM     11  C   UNL     1       6.206   4.891  14.444  0.00  0.00    +0.000 A 
ATOM     12  C   UNL     1       5.602   3.939  13.621  0.00  0.00    +0.000 A 
ATOM     13  C   UNL     1       6.231   3.529  12.452  0.00  0.00    +0.000 A 
ATOM     14  C   UNL     1       7.448   4.101  12.114  0.00  0.00    +0.000 A 
ATOM     15  C   UNL     1       7.969   5.071  12.963  0.00  0.00    +0.000 A 
ATOM     16  N   UNL     1       7.388   5.483  14.127  0.00  0.00    +0.000 NA
ENDBRANCH   5  11
BRANCH   1  17
ATOM     17  O   UNL     1       1.971   7.313  19.863  0.00  0.00    +0.000 OA
BRANCH  17  21
ATOM     18  C   UNL     1      -0.216  10.839  19.642  0.00  0.00    +0.000 A 
ATOM     19  C   UNL     1       0.387  10.370  18.467  0.00  0.00    +0.000 A 
ATOM     20  C   UNL     1       1.244   9.243  18.498  0.00  0.00    +0.000 A 
ATOM     21  C   UNL     1       1.516   8.602  19.705  0.00  0.00    +0.000 A 
ATOM     22  C   UNL     1       0.970   9.148  20.886  0.00  0.00    +0.000 A 
ATOM     23  C   UNL     1       0.117  10.261  20.865  0.00  0.00    +0.000 A 
BRANCH  18  24
ATOM     24  S   UNL     1      -1.484  12.109  19.593  0.00  0.00    +0.000 S 
ATOM     25  O   UNL     1      -1.906  12.347  20.960  0.00  0.00    +0.000 OA
ATOM     26  O   UNL     1      -2.434  11.714  18.572  0.00  0.00    +0.000 OA
BRANCH  24  28
ATOM     27  C   UNL     1       0.663  13.849  19.801  0.00  0.00    +0.000 C 
ATOM     28  C   UNL     1      -0.614  13.569  19.026  0.00  0.00    +0.000 C 
ENDBRANCH  24  28
ENDBRANCH  18  24
ENDBRANCH  17  21
ENDBRANCH   1  17
BRANCH   9  29
ATOM     29  C   UNL     1       2.638   4.922  21.014  0.00  0.00    +0.000 C 
BRANCH  29  30
ATOM     30  N   UNL     1       1.714   3.773  21.007  0.00  0.00    +0.000 NA
ATOM     31  C   UNL     1       2.283   2.429  20.929  0.00  0.00    +0.000 C 
ATOM     32  C   UNL     1       1.818   1.768  19.644  0.00  0.00    +0.000 C 
ATOM     33  C   UNL     1       0.733   2.653  19.081  0.00  0.00    +0.000 C 
ATOM     34  C   UNL     1       0.725   3.915  19.927  0.00  0.00    +0.000 C 
ENDBRANCH  29  30
ENDBRANCH   9  29
TORSDOF 7
ENDMDL
MODEL 4
REMARK VINA RESULT:      -8.8      1.320      1.831
REMARK  Name = 
REMARK  8 active torsions:
REMARK  status: ('A' for Active; 'I' for Inactive)
REMARK    1  A    between atoms: C_1  and  C_2
REMARK    2  A    between atoms: C_2  and  S_3
REMARK    3  A    between atoms: S_3  and  C_6
REMARK    4  A    between atoms: C_9  and  O_10
REMARK    5  A    between atoms: O_10  and  C_11
REMARK    6  A    between atoms: C_15  and  C_16
REMARK    7  A    between atoms: C_25  and  C_26
REMARK    8  A    between atoms: C_26  and  N_27
REMARK                            x       y       z     vdW  Elec       q    Type
REMARK                         _______ _______ _______ _____ _____    ______ ____
ROOT
ATOM      1  C   UNL     1       2.841   6.552  19.207  0.00  0.00    +0.000 A 
ATOM      2  C   UNL     1       3.350   6.946  17.973  0.00  0.00    +0.000 A 
ATOM      3  C   UNL     1       4.277   6.105  17.294  0.00  0.00    +0.000 A 
ATOM      4  N   UNL     1       4.848   6.280  16.063  0.00  0.00    +0.000 NA
ATOM      5  C   UNL     1       5.570   5.196  15.815  0.00  0.00    +0.000 A 
ATOM      6  N   UNL     1       5.565   4.376  16.930  0.00  0.00    +0.000 N 
ATOM      7  C   UNL     1       4.681   4.907  17.861  0.00  0.00    +0.000 A 
ATOM      8  C   UNL     1       4.180   4.459  19.096  0.00  0.00    +0.000 A 
ATOM      9  C   UNL     1       3.232   5.292  19.747  0.00  0.00    +0.000 A 
ATOM     10  H   UNL     1       6.077   3.505  16.992  0.00  0.00    +0.000 HD
ENDROOT
BRANCH   5  11
ATOM     11  C   UNL     1       6.199   4.930  14.512  0.00  0.00    +0.000 A 
ATOM     12  C   UNL     1       5.596   4.005  13.658  0.00  0.00    +0.000 A 
ATOM     13  C   UNL     1       6.241   3.611  12.492  0.00  0.00    +0.000 A 
ATOM     14  C   UNL     1       7.472   4.172  12.189  0.00  0.00    +0.000 A 
ATOM     15  C   UNL     1       7.990   5.117  13.067  0.00  0.00    +0.000 A 
ATOM     16  N   UNL     1       7.395   5.511  14.229  0.00  0.00    +0.000 NA
ENDBRANCH   5  11
BRANCH   1  17
ATOM     17  O   UNL     1       1.808   7.164  19.887  0.00  0.00    +0.000 OA
BRANCH  17  21
ATOM     18  C   UNL     1       0.277  10.918  20.801  0.00  0.00    +0.000 A 
ATOM     19  C   UNL     1       0.618  10.659  19.467  0.00  0.00    +0.000 A 
ATOM     20  C   UNL     1       1.257   9.446  19.109  0.00  0.00    +0.000 A 
ATOM     21  C   UNL     1       1.573   8.506  20.087  0.00  0.00    +0.000 A 
ATOM     22  C   UNL     1       1.302   8.829  21.433  0.00  0.00    +0.000 A 
ATOM     23  C   UNL     1       0.667  10.025  21.797  0.00  0.00    +0.000 A 
BRANCH  18  24
ATOM     24  S   UNL     1      -0.738  12.330  21.244  0.00  0.00    +0.000 S 
ATOM     25  O   UNL     1      -1.627  12.588  20.128  0.00  0.00    +0.000 OA
ATOM     26  O   UNL     1       0.163  13.354  21.738  0.00  0.00    +0.000 OA
BRANCH  24  28
ATOM     27  C   UNL     1      -2.420  12.853  23.383  0.00  0.00    +0.000 C 
ATOM     28  C   UNL     1      -1.731  11.739  22.614  0.00  0.00    +0.000 C 
ENDBRANCH  24  28
ENDBRANCH  18  24
ENDBRANCH  17  21
ENDBRANCH   1  17
BRANCH   9  29
ATOM     29  C   UNL     1       2.619   4.837  21.075  0.00  0.00    +0.000 C 
BRANCH  29  30
ATOM     30  N   UNL     1       1.702   3.682  21.071  0.00  0.00    +0.000 NA
ATOM     31  C   UNL     1       2.275   2.345  20.933  0.00  0.00    +0.000 C 
ATOM     32  C   UNL     1       1.765   1.718  19.648  0.00  0.00    +0.000 C 
ATOM     33  C   UNL     1       0.654   2.611  19.152  0.00  0.00    +0.000 C 
ATOM     34  C   UNL     1       0.672   3.848  20.033  0.00  0.00    +0.000 C 
ENDBRANCH  29  30
ENDBRANCH   9  29
TORSDOF 7
ENDMDL
MODEL 5
REMARK VINA RESULT:      -8.7      4.114      8.418
REMARK  Name = 
REMARK  8 active torsions:
REMARK  status: ('A' for Active; 'I' for Inactive)
REMARK    1  A    between atoms: C_1  and  C_2
REMARK    2  A    between atoms: C_2  and  S_3
REMARK    3  A    between atoms: S_3  and  C_6
REMARK    4  A    between atoms: C_9  and  O_10
REMARK    5  A    between atoms: O_10  and  C_11
REMARK    6  A    between atoms: C_15  and  C_16
REMARK    7  A    between atoms: C_25  and  C_26
REMARK    8  A    between atoms: C_26  and  N_27
REMARK                            x       y       z     vdW  Elec       q    Type
REMARK                         _______ _______ _______ _____ _____    ______ ____
ROOT
ATOM      1  C   UNL     1       4.393   6.194  18.036  0.00  0.00    +0.000 A 
ATOM      2  C   UNL     1       3.959   7.387  17.464  0.00  0.00    +0.000 A 
ATOM      3  C   UNL     1       2.851   8.077  18.032  0.00  0.00    +0.000 A 
ATOM      4  N   UNL     1       2.307   9.275  17.660  0.00  0.00    +0.000 NA
ATOM      5  C   UNL     1       1.352   9.555  18.536  0.00  0.00    +0.000 A 
ATOM      6  N   UNL     1       1.196   8.486  19.402  0.00  0.00    +0.000 N 
ATOM      7  C   UNL     1       2.198   7.560  19.140  0.00  0.00    +0.000 A 
ATOM      8  C   UNL     1       2.612   6.369  19.762  0.00  0.00    +0.000 A 
ATOM      9  C   UNL     1       3.738   5.708  19.205  0.00  0.00    +0.000 A 
ATOM     10  H   UNL     1       0.500   8.452  20.136  0.00  0.00    +0.000 HD
ENDROOT
BRANCH   5  11
ATOM     11  C   UNL     1       0.650  10.847  18.575  0.00  0.00    +0.000 A 
ATOM     12  C   UNL     1      -0.729  10.862  18.357  0.00  0.00    +0.000 A 
ATOM     13  C   UNL     1      -1.401  12.071  18.229  0.00  0.00    +0.000 A 
ATOM     14  C   UNL     1      -0.680  13.250  18.348  0.00  0.00    +0.000 A 
ATOM     15  C   UNL     1       0.683  13.156  18.605  0.00  0.00    +0.000 A 
ATOM     16  N   UNL     1       1.377  11.986  18.716  0.00  0.00    +0.000 NA
ENDBRANCH   5  11
BRANCH   1  17
ATOM     17  O   UNL     1       5.554   5.520  17.714  0.00  0.00    +0.000 OA
BRANCH  17  21
ATOM     18  C   UNL     1       6.215   3.935  13.930  0.00  0.00    +0.000 A 
ATOM     19  C   UNL     1       5.178   3.386  14.696  0.00  0.00    +0.000 A 
ATOM     20  C   UNL     1       4.978   3.796  16.037  0.00  0.00    +0.000 A 
ATOM     21  C   UNL     1       5.827   4.735  16.616  0.00  0.00    +0.000 A 
ATOM     22  C   UNL     1       6.918   5.205  15.855  0.00  0.00    +0.000 A 
ATOM     23  C   UNL     1       7.122   4.809  14.526  0.00  0.00    +0.000 A 
BRANCH  18  24
ATOM     24  S   UNL     1       6.343   3.611  12.169  0.00  0.00    +0.000 S 
ATOM     25  O   UNL     1       6.465   2.176  12.004  0.00  0.00    +0.000 OA
ATOM     26  O   UNL     1       7.350   4.515  11.649  0.00  0.00    +0.000 OA
BRANCH  24  28
ATOM     27  C   UNL     1       3.870   2.930  11.121  0.00  0.00    +0.000 C 
ATOM     28  C   UNL     1       4.747   4.104  11.520  0.00  0.00    +0.000 C 
ENDBRANCH  24  28
ENDBRANCH  18  24
ENDBRANCH  17  21
ENDBRANCH   1  17
BRANCH   9  29
ATOM     29  C   UNL     1       4.262   4.429  19.865  0.00  0.00    +0.000 C 
BRANCH  29  30
ATOM     30  N   UNL     1       3.426   3.215  19.815  0.00  0.00    +0.000 NA
ATOM     31  C   UNL     1       2.535   3.037  18.671  0.00  0.00    +0.000 C 
ATOM     32  C   UNL     1       1.097   3.019  19.160  0.00  0.00    +0.000 C 
ATOM     33  C   UNL     1       1.163   2.922  20.665  0.00  0.00    +0.000 C 
ATOM     34  C   UNL     1       2.624   3.093  21.043  0.00  0.00    +0.000 C 
ENDBRANCH  29  30
ENDBRANCH   9  29
TORSDOF 7
ENDMDL
MODEL 6
REMARK VINA RESULT:      -8.7      1.048      1.409
REMARK  Name = 
REMARK  8 active torsions:
REMARK  status: ('A' for Active; 'I' for Inactive)
REMARK    1  A    between atoms: C_1  and  C_2
REMARK    2  A    between atoms: C_2  and  S_3
REMARK    3  A    between atoms: S_3  and  C_6
REMARK    4  A    between atoms: C_9  and  O_10
REMARK    5  A    between atoms: O_10  and  C_11
REMARK    6  A    between atoms: C_15  and  C_16
REMARK    7  A    between atoms: C_25  and  C_26
REMARK    8  A    between atoms: C_26  and  N_27
REMARK                            x       y       z     vdW  Elec       q    Type
REMARK                         _______ _______ _______ _____ _____    ______ ____
ROOT
ATOM      1  C   UNL     1       3.199   6.521  19.201  0.00  0.00    +0.000 A 
ATOM      2  C   UNL     1       3.799   6.869  17.993  0.00  0.00    +0.000 A 
ATOM      3  C   UNL     1       4.546   5.894  17.274  0.00  0.00    +0.000 A 
ATOM      4  N   UNL     1       5.161   6.013  16.058  0.00  0.00    +0.000 NA
ATOM      5  C   UNL     1       5.651   4.820  15.754  0.00  0.00    +0.000 A 
ATOM      6  N   UNL     1       5.460   3.959  16.821  0.00  0.00    +0.000 N 
ATOM      7  C   UNL     1       4.688   4.610  17.775  0.00  0.00    +0.000 A 
ATOM      8  C   UNL     1       4.085   4.208  18.981  0.00  0.00    +0.000 A 
ATOM      9  C   UNL     1       3.316   5.181  19.672  0.00  0.00    +0.000 A 
ATOM     10  H   UNL     1       5.783   3.000  16.837  0.00  0.00    +0.000 HD
ENDROOT
BRANCH   5  11
ATOM     11  C   UNL     1       6.235   4.501  14.442  0.00  0.00    +0.000 A 
ATOM     12  C   UNL     1       7.333   5.244  14.003  0.00  0.00    +0.000 A 
ATOM     13  C   UNL     1       7.812   5.080  12.710  0.00  0.00    +0.000 A 
ATOM     14  C   UNL     1       7.196   4.154  11.883  0.00  0.00    +0.000 A 
ATOM     15  C   UNL     1       6.135   3.422  12.402  0.00  0.00    +0.000 A 
ATOM     16  N   UNL     1       5.626   3.571  13.660  0.00  0.00    +0.000 NA
ENDBRANCH   5  11
BRANCH   1  17
ATOM     17  O   UNL     1       2.301   7.295  19.908  0.00  0.00    +0.000 OA
BRANCH  17  21
ATOM     18  C   UNL     1      -0.322  10.358  18.906  0.00  0.00    +0.000 A 
ATOM     19  C   UNL     1       0.602   9.946  17.936  0.00  0.00    +0.000 A 
ATOM     20  C   UNL     1       1.602   8.993  18.253  0.00  0.00    +0.000 A 
ATOM     21  C   UNL     1       1.690   8.473  19.542  0.00  0.00    +0.000 A 
ATOM     22  C   UNL     1       0.808   8.971  20.523  0.00  0.00    +0.000 A 
ATOM     23  C   UNL     1      -0.188   9.910  20.219  0.00  0.00    +0.000 A 
BRANCH  18  24
ATOM     24  S   UNL     1      -1.734  11.376  18.472  0.00  0.00    +0.000 S 
ATOM     25  O   UNL     1      -2.815  10.481  18.109  0.00  0.00    +0.000 OA
ATOM     26  O   UNL     1      -1.254  12.385  17.548  0.00  0.00    +0.000 OA
BRANCH  24  28
ATOM     27  C   UNL     1      -3.665  12.472  20.129  0.00  0.00    +0.000 C 
ATOM     28  C   UNL     1      -2.179  12.180  20.010  0.00  0.00    +0.000 C 
ENDBRANCH  24  28
ENDBRANCH  18  24
ENDBRANCH  17  21
ENDBRANCH   1  17
BRANCH   9  29
ATOM     29  C   UNL     1       2.600   4.791  20.969  0.00  0.00    +0.000 C 
BRANCH  29  30
ATOM     30  N   UNL     1       1.531   3.777  20.908  0.00  0.00    +0.000 NA
ATOM     31  C   UNL     1       1.914   2.367  20.933  0.00  0.00    +0.000 C 
ATOM     32  C   UNL     1       1.486   1.714  19.631  0.00  0.00    +0.000 C 
ATOM     33  C   UNL     1       0.593   2.710  18.931  0.00  0.00    +0.000 C 
ATOM     34  C   UNL     1       0.679   4.000  19.729  0.00  0.00    +0.000 C 
ENDBRANCH  29  30
ENDBRANCH   9  29
TORSDOF 7
ENDMDL
MODEL 7
REMARK VINA RESULT:      -8.6      4.050      6.691
REMARK  Name = 
REMARK  8 active torsions:
REMARK  status: ('A' for Active; 'I' for Inactive)
REMARK    1  A    between atoms: C_1  and  C_2
REMARK    2  A    between atoms: C_2  and  S_3
REMARK    3  A    between atoms: S_3  and  C_6
REMARK    4  A    between atoms: C_9  and  O_10
REMARK    5  A    between atoms: O_10  and  C_11
REMARK    6  A    between atoms: C_15  and  C_16
REMARK    7  A    between atoms: C_25  and  C_26
REMARK    8  A    between atoms: C_26  and  N_27
REMARK                            x       y       z     vdW  Elec       q    Type
REMARK                         _______ _______ _______ _____ _____    ______ ____
ROOT
ATOM      1  C   UNL     1       1.210  10.434  19.086  0.00  0.00    +0.000 A 
ATOM      2  C   UNL     1       1.765   9.446  18.278  0.00  0.00    +0.000 A 
ATOM      3  C   UNL     1       2.069   8.171  18.834  0.00  0.00    +0.000 A 
ATOM      4  N   UNL     1       2.561   7.060  18.207  0.00  0.00    +0.000 NA
ATOM      5  C   UNL     1       2.593   6.090  19.109  0.00  0.00    +0.000 A 
ATOM      6  N   UNL     1       2.237   6.600  20.346  0.00  0.00    +0.000 N 
ATOM      7  C   UNL     1       1.826   7.916  20.174  0.00  0.00    +0.000 A 
ATOM      8  C   UNL     1       1.250   8.876  21.025  0.00  0.00    +0.000 A 
ATOM      9  C   UNL     1       0.923  10.133  20.450  0.00  0.00    +0.000 A 
ATOM     10  H   UNL     1       2.223   6.055  21.198  0.00  0.00    +0.000 HD
ENDROOT
BRANCH   5  11
ATOM     11  C   UNL     1       2.901   4.690  18.775  0.00  0.00    +0.000 A 
ATOM     12  C   UNL     1       2.167   4.071  17.761  0.00  0.00    +0.000 A 
ATOM     13  C   UNL     1       2.318   2.711  17.524  0.00  0.00    +0.000 A 
ATOM     14  C   UNL     1       3.224   1.997  18.293  0.00  0.00    +0.000 A 
ATOM     15  C   UNL     1       3.948   2.689  19.256  0.00  0.00    +0.000 A 
ATOM     16  N   UNL     1       3.811   4.019  19.529  0.00  0.00    +0.000 NA
ENDBRANCH   5  11
BRANCH   1  17
ATOM     17  O   UNL     1       0.697  11.640  18.652  0.00  0.00    +0.000 OA
BRANCH  17  21
ATOM     18  C   UNL     1       1.701  15.671  18.584  0.00  0.00    +0.000 A 
ATOM     19  C   UNL     1       2.742  14.741  18.708  0.00  0.00    +0.000 A 
ATOM     20  C   UNL     1       2.461  13.361  18.859  0.00  0.00    +0.000 A 
ATOM     21  C   UNL     1       1.142  12.917  18.910  0.00  0.00    +0.000 A 
ATOM     22  C   UNL     1       0.113  13.882  18.876  0.00  0.00    +0.000 A 
ATOM     23  C   UNL     1       0.381  15.249  18.722  0.00  0.00    +0.000 A 
BRANCH  18  24
ATOM     24  S   UNL     1       2.030  17.383  18.157  0.00  0.00    +0.000 S 
ATOM     25  O   UNL     1       2.828  17.379  16.946  0.00  0.00    +0.000 OA
ATOM     26  O   UNL     1       2.502  18.033  19.363  0.00  0.00    +0.000 OA
BRANCH  24  28
ATOM     27  C   UNL     1       0.313  18.541  16.315  0.00  0.00    +0.000 C 
ATOM     28  C   UNL     1       0.416  18.046  17.748  0.00  0.00    +0.000 C 
ENDBRANCH  24  28
ENDBRANCH  18  24
ENDBRANCH  17  21
ENDBRANCH   1  17
BRANCH   9  29
ATOM     29  C   UNL     1       0.254  11.205  21.317  0.00  0.00    +0.000 C 
BRANCH  29  30
ATOM     30  N   UNL     1      -1.188  11.088  21.596  0.00  0.00    +0.000 NA
ATOM     31  C   UNL     1      -2.098  12.027  20.942  0.00  0.00    +0.000 C 
ATOM     32  C   UNL     1      -2.791  12.865  22.002  0.00  0.00    +0.000 C 
ATOM     33  C   UNL     1      -2.473  12.218  23.328  0.00  0.00    +0.000 C 
ATOM     34  C   UNL     1      -1.437  11.143  23.045  0.00  0.00    +0.000 C 
ENDBRANCH  29  30
ENDBRANCH   9  29
TORSDOF 7
ENDMDL
MODEL 8
REMARK VINA RESULT:      -8.5      1.354      1.671
REMARK  Name = 
REMARK  8 active torsions:
REMARK  status: ('A' for Active; 'I' for Inactive)
REMARK    1  A    between atoms: C_1  and  C_2
REMARK    2  A    between atoms: C_2  and  S_3
REMARK    3  A    between atoms: S_3  and  C_6
REMARK    4  A    between atoms: C_9  and  O_10
REMARK    5  A    between atoms: O_10  and  C_11
REMARK    6  A    between atoms: C_15  and  C_16
REMARK    7  A    between atoms: C_25  and  C_26
REMARK    8  A    between atoms: C_26  and  N_27
REMARK                            x       y       z     vdW  Elec       q    Type
REMARK                         _______ _______ _______ _____ _____    ______ ____
ROOT
ATOM      1  C   UNL     1       2.938   6.595  19.186  0.00  0.00    +0.000 A 
ATOM      2  C   UNL     1       3.440   6.977  17.945  0.00  0.00    +0.000 A 
ATOM      3  C   UNL     1       4.345   6.119  17.258  0.00  0.00    +0.000 A 
ATOM      4  N   UNL     1       4.905   6.281  16.021  0.00  0.00    +0.000 NA
ATOM      5  C   UNL     1       5.605   5.185  15.767  0.00  0.00    +0.000 A 
ATOM      6  N   UNL     1       5.599   4.367  16.884  0.00  0.00    +0.000 N 
ATOM      7  C   UNL     1       4.735   4.916  17.823  0.00  0.00    +0.000 A 
ATOM      8  C   UNL     1       4.240   4.479  19.065  0.00  0.00    +0.000 A 
ATOM      9  C   UNL     1       3.314   5.330  19.725  0.00  0.00    +0.000 A 
ATOM     10  H   UNL     1       6.097   3.488  16.943  0.00  0.00    +0.000 HD
ENDROOT
BRANCH   5  11
ATOM     11  C   UNL     1       6.216   4.905  14.458  0.00  0.00    +0.000 A 
ATOM     12  C   UNL     1       5.603   3.967  13.625  0.00  0.00    +0.000 A 
ATOM     13  C   UNL     1       6.231   3.561  12.454  0.00  0.00    +0.000 A 
ATOM     14  C   UNL     1       7.455   4.122  12.125  0.00  0.00    +0.000 A 
ATOM     15  C   UNL     1       7.984   5.079  12.983  0.00  0.00    +0.000 A 
ATOM     16  N   UNL     1       7.405   5.486  14.150  0.00  0.00    +0.000 NA
ENDBRANCH   5  11
BRANCH   1  17
ATOM     17  O   UNL     1       1.923   7.226  19.876  0.00  0.00    +0.000 OA
BRANCH  17  21
ATOM     18  C   UNL     1       1.227  11.267  19.204  0.00  0.00    +0.000 A 
ATOM     19  C   UNL     1       0.832  10.733  20.438  0.00  0.00    +0.000 A 
ATOM     20  C   UNL     1       0.929   9.342  20.684  0.00  0.00    +0.000 A 
ATOM     21  C   UNL     1       1.398   8.485  19.691  0.00  0.00    +0.000 A 
ATOM     22  C   UNL     1       1.703   9.035  18.428  0.00  0.00    +0.000 A 
ATOM     23  C   UNL     1       1.614  10.411  18.175  0.00  0.00    +0.000 A 
BRANCH  18  24
ATOM     24  S   UNL     1       1.337  13.041  18.951  0.00  0.00    +0.000 S 
ATOM     25  O   UNL     1       2.310  13.266  17.900  0.00  0.00    +0.000 OA
ATOM     26  O   UNL     1       1.495  13.642  20.261  0.00  0.00    +0.000 OA
BRANCH  24  28
ATOM     27  C   UNL     1      -1.305  12.379  18.442  0.00  0.00    +0.000 C 
ATOM     28  C   UNL     1      -0.276  13.489  18.312  0.00  0.00    +0.000 C 
ENDBRANCH  24  28
ENDBRANCH  18  24
ENDBRANCH  17  21
ENDBRANCH   1  17
BRANCH   9  29
ATOM     29  C   UNL     1       2.708   4.889  21.061  0.00  0.00    +0.000 C 
BRANCH  29  30
ATOM     30  N   UNL     1       1.772   3.749  21.070  0.00  0.00    +0.000 NA
ATOM     31  C   UNL     1       2.321   2.403  20.925  0.00  0.00    +0.000 C 
ATOM     32  C   UNL     1       1.784   1.783  19.648  0.00  0.00    +0.000 C 
ATOM     33  C   UNL     1       0.681   2.695  19.166  0.00  0.00    +0.000 C 
ATOM     34  C   UNL     1       0.731   3.932  20.046  0.00  0.00    +0.000 C 
ENDBRANCH  29  30
ENDBRANCH   9  29
TORSDOF 7
ENDMDL
MODEL 9
REMARK VINA RESULT:      -8.4      1.499      2.145
REMARK  Name = 
REMARK  8 active torsions:
REMARK  status: ('A' for Active; 'I' for Inactive)
REMARK    1  A    between atoms: C_1  and  C_2
REMARK    2  A    between atoms: C_2  and  S_3
REMARK    3  A    between atoms: S_3  and  C_6
REMARK    4  A    between atoms: C_9  and  O_10
REMARK    5  A    between atoms: O_10  and  C_11
REMARK    6  A    between atoms: C_15  and  C_16
REMARK    7  A    between atoms: C_25  and  C_26
REMARK    8  A    between atoms: C_26  and  N_27
REMARK                            x       y       z     vdW  Elec       q    Type
REMARK                         _______ _______ _______ _____ _____    ______ ____
ROOT
ATOM      1  C   UNL     1       2.963   6.666  19.177  0.00  0.00    +0.000 A 
ATOM      2  C   UNL     1       3.484   7.043  17.942  0.00  0.00    +0.000 A 
ATOM      3  C   UNL     1       4.354   6.158  17.246  0.00  0.00    +0.000 A 
ATOM      4  N   UNL     1       4.923   6.313  16.012  0.00  0.00    +0.000 NA
ATOM      5  C   UNL     1       5.579   5.192  15.746  0.00  0.00    +0.000 A 
ATOM      6  N   UNL     1       5.537   4.361  16.852  0.00  0.00    +0.000 N 
ATOM      7  C   UNL     1       4.693   4.933  17.796  0.00  0.00    +0.000 A 
ATOM      8  C   UNL     1       4.178   4.500  19.031  0.00  0.00    +0.000 A 
ATOM      9  C   UNL     1       3.286   5.379  19.700  0.00  0.00    +0.000 A 
ATOM     10  H   UNL     1       5.999   3.462  16.900  0.00  0.00    +0.000 HD
ENDROOT
BRANCH   5  11
ATOM     11  C   UNL     1       6.181   4.905  14.434  0.00  0.00    +0.000 A 
ATOM     12  C   UNL     1       5.559   3.966  13.608  0.00  0.00    +0.000 A 
ATOM     13  C   UNL     1       6.179   3.553  12.435  0.00  0.00    +0.000 A 
ATOM     14  C   UNL     1       7.403   4.108  12.097  0.00  0.00    +0.000 A 
ATOM     15  C   UNL     1       7.941   5.066  12.948  0.00  0.00    +0.000 A 
ATOM     16  N   UNL     1       7.370   5.480  14.116  0.00  0.00    +0.000 NA
ENDBRANCH   5  11
BRANCH   1  17
ATOM     17  O   UNL     1       1.973   7.329  19.873  0.00  0.00    +0.000 OA
BRANCH  17  21
ATOM     18  C   UNL     1       1.130  11.342  19.201  0.00  0.00    +0.000 A 
ATOM     19  C   UNL     1       0.518  10.721  20.299  0.00  0.00    +0.000 A 
ATOM     20  C   UNL     1       0.666   9.329  20.513  0.00  0.00    +0.000 A 
ATOM     21  C   UNL     1       1.405   8.557  19.619  0.00  0.00    +0.000 A 
ATOM     22  C   UNL     1       1.934   9.188  18.474  0.00  0.00    +0.000 A 
ATOM     23  C   UNL     1       1.796  10.567  18.255  0.00  0.00    +0.000 A 
BRANCH  18  24
ATOM     24  S   UNL     1       1.154  13.129  19.039  0.00  0.00    +0.000 S 
ATOM     25  O   UNL     1       1.273  13.681  20.375  0.00  0.00    +0.000 OA
ATOM     26  O   UNL     1       0.045  13.487  18.176  0.00  0.00    +0.000 OA
BRANCH  24  28
ATOM     27  C   UNL     1       2.980  14.948  18.020  0.00  0.00    +0.000 C 
ATOM     28  C   UNL     1       2.684  13.465  18.167  0.00  0.00    +0.000 C 
ENDBRANCH  24  28
ENDBRANCH  18  24
ENDBRANCH  17  21
ENDBRANCH   1  17
BRANCH   9  29
ATOM     29  C   UNL     1       2.659   4.946  21.029  0.00  0.00    +0.000 C 
BRANCH  29  30
ATOM     30  N   UNL     1       1.735   3.798  21.033  0.00  0.00    +0.000 NA
ATOM     31  C   UNL     1       2.303   2.453  20.967  0.00  0.00    +0.000 C 
ATOM     32  C   UNL     1       1.838   1.780  19.688  0.00  0.00    +0.000 C 
ATOM     33  C   UNL     1       0.754   2.661  19.116  0.00  0.00    +0.000 C 
ATOM     34  C   UNL     1       0.746   3.931  19.950  0.00  0.00    +0.000 C 
ENDBRANCH  29  30
ENDBRANCH   9  29
TORSDOF 7
ENDMDL
