MODEL 1
REMARK VINA RESULT:      -7.3      0.000      0.000
REMARK  Name = 
REMARK  5 active torsions:
REMARK  status: ('A' for Active; 'I' for Inactive)
REMARK    1  A    between atoms: C_1  and  C_2
REMARK    2  A    between atoms: C_6  and  N_7
REMARK    3  A    between atoms: N_7  and  C_8
REMARK    4  A    between atoms: C_8  and  C_9
REMARK    5  A    between atoms: C_14  and  O_15
REMARK                            x       y       z     vdW  Elec       q    Type
REMARK                         _______ _______ _______ _____ _____    ______ ____
ROOT
ATOM      1  N   UNL     1       5.491   3.619  19.293  0.00  0.00    +0.000 N 
ATOM      2  H   UNL     1       6.107   2.959  18.812  0.00  0.00    +0.000 HD
ENDROOT
BRANCH   1   8
ATOM      3  C   UNL     1       1.191   2.664  21.610  0.00  0.00    +0.000 C 
ATOM      4  C   UNL     1       2.073   2.581  20.402  0.00  0.00    +0.000 A 
ATOM      5  C   UNL     1       1.547   2.170  19.175  0.00  0.00    +0.000 A 
ATOM      6  C   UNL     1       2.338   2.194  18.033  0.00  0.00    +0.000 A 
ATOM      7  C   UNL     1       3.641   2.692  18.107  0.00  0.00    +0.000 A 
ATOM      8  C   UNL     1       4.172   3.173  19.313  0.00  0.00    +0.000 A 
ATOM      9  C   UNL     1       3.405   3.029  20.464  0.00  0.00    +0.000 A 
ENDBRANCH   1   8
BRANCH   1  10
ATOM     10  C   UNL     1       5.878   4.996  18.991  0.00  0.00    +0.000 C 
BRANCH  10  11
ATOM     11  C   UNL     1       6.090   5.192  17.506  0.00  0.00    +0.000 A 
ATOM     12  C   UNL     1       5.113   5.906  16.785  0.00  0.00    +0.000 A 
ATOM     13  C   UNL     1       5.157   5.981  15.391  0.00  0.00    +0.000 A 
ATOM     14  C   UNL     1       6.183   5.352  14.692  0.00  0.00    +0.000 A 
ATOM     15  C   UNL     1       7.199   4.708  15.387  0.00  0.00    +0.000 A 
ATOM     16  C   UNL     1       7.159   4.642  16.776  0.00  0.00    +0.000 A 
BRANCH  16  17
ATOM     17  O   UNL     1       8.209   4.006  17.373  0.00  0.00    +0.000 OA
ATOM     18  H   UNL     1       8.666   4.683  17.911  0.00  0.00    +0.000 HD
ENDBRANCH  16  17
ENDBRANCH  10  11
ENDBRANCH   1  10
TORSDOF 4
ENDMDL
MODEL 2
REMARK VINA RESULT:      -7.2      2.463      5.910
REMARK  Name = 
REMARK  5 active torsions:
REMARK  status: ('A' for Active; 'I' for Inactive)
REMARK    1  A    between atoms: C_1  and  C_2
REMARK    2  A    between atoms: C_6  and  N_7
REMARK    3  A    between atoms: N_7  and  C_8
REMARK    4  A    between atoms: C_8  and  C_9
REMARK    5  A    between atoms: C_14  and  O_15
REMARK                            x       y       z     vdW  Elec       q    Type
REMARK                         _______ _______ _______ _____ _____    ______ ____
ROOT
ATOM      1  N   UNL     1       4.055   6.410  18.343  0.00  0.00    +0.000 N 
ATOM      2  H   UNL     1       4.242   7.407  18.471  0.00  0.00    +0.000 HD
ENDROOT
BRANCH   1   8
ATOM      3  C   UNL     1       6.014   4.122  14.380  0.00  0.00    +0.000 C 
ATOM      4  C   UNL     1       6.088   4.548  15.814  0.00  0.00    +0.000 A 
ATOM      5  C   UNL     1       7.291   4.443  16.517  0.00  0.00    +0.000 A 
ATOM      6  C   UNL     1       7.387   4.935  17.813  0.00  0.00    +0.000 A 
ATOM      7  C   UNL     1       6.296   5.593  18.384  0.00  0.00    +0.000 A 
ATOM      8  C   UNL     1       5.098   5.771  17.676  0.00  0.00    +0.000 A 
ATOM      9  C   UNL     1       4.984   5.166  16.429  0.00  0.00    +0.000 A 
ENDBRANCH   1   8
BRANCH   1  10
ATOM     10  C   UNL     1       2.642   6.186  18.043  0.00  0.00    +0.000 C 
BRANCH  10  11
ATOM     11  C   UNL     1       2.117   4.963  18.762  0.00  0.00    +0.000 A 
ATOM     12  C   UNL     1       1.716   3.858  17.987  0.00  0.00    +0.000 A 
ATOM     13  C   UNL     1       1.068   2.766  18.568  0.00  0.00    +0.000 A 
ATOM     14  C   UNL     1       0.816   2.753  19.937  0.00  0.00    +0.000 A 
ATOM     15  C   UNL     1       1.272   3.798  20.733  0.00  0.00    +0.000 A 
ATOM     16  C   UNL     1       1.925   4.880  20.154  0.00  0.00    +0.000 A 
BRANCH  16  17
ATOM     17  O   UNL     1       2.353   5.849  21.015  0.00  0.00    +0.000 OA
ATOM     18  H   UNL     1       1.567   6.389  21.231  0.00  0.00    +0.000 HD
ENDBRANCH  16  17
ENDBRANCH  10  11
ENDBRANCH   1  10
TORSDOF 4
ENDMDL
MODEL 3
REMARK VINA RESULT:      -7.0      1.902      5.657
REMARK  Name = 
REMARK  5 active torsions:
REMARK  status: ('A' for Active; 'I' for Inactive)
REMARK    1  A    between atoms: C_1  and  C_2
REMARK    2  A    between atoms: C_6  and  N_7
REMARK    3  A    between atoms: N_7  and  C_8
REMARK    4  A    between atoms: C_8  and  C_9
REMARK    5  A    between atoms: C_14  and  O_15
REMARK                            x       y       z     vdW  Elec       q    Type
REMARK                         _______ _______ _______ _____ _____    ______ ____
ROOT
ATOM      1  N   UNL     1       5.459   3.645  19.229  0.00  0.00    +0.000 N 
ATOM      2  H   UNL     1       5.556   4.222  20.068  0.00  0.00    +0.000 HD
ENDROOT
BRANCH   1   8
ATOM      3  C   UNL     1       5.647   4.281  14.297  0.00  0.00    +0.000 C 
ATOM      4  C   UNL     1       5.520   4.834  15.683  0.00  0.00    +0.000 A 
ATOM      5  C   UNL     1       5.132   6.161  15.878  0.00  0.00    +0.000 A 
ATOM      6  C   UNL     1       4.911   6.643  17.162  0.00  0.00    +0.000 A 
ATOM      7  C   UNL     1       5.018   5.776  18.252  0.00  0.00    +0.000 A 
ATOM      8  C   UNL     1       5.343   4.422  18.080  0.00  0.00    +0.000 A 
ATOM      9  C   UNL     1       5.675   3.991  16.799  0.00  0.00    +0.000 A 
ENDBRANCH   1   8
BRANCH   1  10
ATOM     10  C   UNL     1       4.628   2.474  19.505  0.00  0.00    +0.000 C 
BRANCH  10  11
ATOM     11  C   UNL     1       3.162   2.845  19.564  0.00  0.00    +0.000 A 
ATOM     12  C   UNL     1       2.721   3.640  20.640  0.00  0.00    +0.000 A 
ATOM     13  C   UNL     1       1.361   3.878  20.850  0.00  0.00    +0.000 A 
ATOM     14  C   UNL     1       0.416   3.336  19.983  0.00  0.00    +0.000 A 
ATOM     15  C   UNL     1       0.834   2.613  18.872  0.00  0.00    +0.000 A 
ATOM     16  C   UNL     1       2.188   2.383  18.659  0.00  0.00    +0.000 A 
BRANCH  16  17
ATOM     17  O   UNL     1       2.505   1.680  17.532  0.00  0.00    +0.000 OA
ATOM     18  H   UNL     1       2.847   0.817  17.837  0.00  0.00    +0.000 HD
ENDBRANCH  16  17
ENDBRANCH  10  11
ENDBRANCH   1  10
TORSDOF 4
ENDMDL
MODEL 4
REMARK VINA RESULT:      -7.0      1.881      2.518
REMARK  Name = 
REMARK  5 active torsions:
REMARK  status: ('A' for Active; 'I' for Inactive)
REMARK    1  A    between atoms: C_1  and  C_2
REMARK    2  A    between atoms: C_6  and  N_7
REMARK    3  A    between atoms: N_7  and  C_8
REMARK    4  A    between atoms: C_8  and  C_9
REMARK    5  A    between atoms: C_14  and  O_15
REMARK                            x       y       z     vdW  Elec       q    Type
REMARK                         _______ _______ _______ _____ _____    ______ ____
ROOT
ATOM      1  N   UNL     1       4.837   3.008  17.478  0.00  0.00    +0.000 N 
ATOM      2  H   UNL     1       4.961   2.031  17.202  0.00  0.00    +0.000 HD
ENDROOT
BRANCH   1   8
ATOM      3  C   UNL     1       2.090   2.740  21.619  0.00  0.00    +0.000 C 
ATOM      4  C   UNL     1       2.219   2.998  20.149  0.00  0.00    +0.000 A 
ATOM      5  C   UNL     1       1.167   3.588  19.444  0.00  0.00    +0.000 A 
ATOM      6  C   UNL     1       1.326   3.923  18.105  0.00  0.00    +0.000 A 
ATOM      7  C   UNL     1       2.563   3.727  17.487  0.00  0.00    +0.000 A 
ATOM      8  C   UNL     1       3.656   3.198  18.190  0.00  0.00    +0.000 A 
ATOM      9  C   UNL     1       3.440   2.759  19.492  0.00  0.00    +0.000 A 
ENDBRANCH   1   8
BRANCH   1  10
ATOM     10  C   UNL     1       5.299   3.903  16.418  0.00  0.00    +0.000 C 
BRANCH  10  11
ATOM     11  C   UNL     1       6.216   4.974  16.966  0.00  0.00    +0.000 A 
ATOM     12  C   UNL     1       7.126   4.614  17.979  0.00  0.00    +0.000 A 
ATOM     13  C   UNL     1       7.881   5.580  18.646  0.00  0.00    +0.000 A 
ATOM     14  C   UNL     1       7.750   6.924  18.307  0.00  0.00    +0.000 A 
ATOM     15  C   UNL     1       6.917   7.293  17.258  0.00  0.00    +0.000 A 
ATOM     16  C   UNL     1       6.171   6.329  16.589  0.00  0.00    +0.000 A 
BRANCH  16  17
ATOM     17  O   UNL     1       5.395   6.782  15.561  0.00  0.00    +0.000 OA
ATOM     18  H   UNL     1       5.884   6.577  14.740  0.00  0.00    +0.000 HD
ENDBRANCH  16  17
ENDBRANCH  10  11
ENDBRANCH   1  10
TORSDOF 4
ENDMDL
MODEL 5
REMARK VINA RESULT:      -7.0      1.721      5.606
REMARK  Name = 
REMARK  5 active torsions:
REMARK  status: ('A' for Active; 'I' for Inactive)
REMARK    1  A    between atoms: C_1  and  C_2
REMARK    2  A    between atoms: C_6  and  N_7
REMARK    3  A    between atoms: N_7  and  C_8
REMARK    4  A    between atoms: C_8  and  C_9
REMARK    5  A    between atoms: C_14  and  O_15
REMARK                            x       y       z     vdW  Elec       q    Type
REMARK                         _______ _______ _______ _____ _____    ______ ____
ROOT
ATOM      1  N   UNL     1       5.688   3.715  18.514  0.00  0.00    +0.000 N 
ATOM      2  H   UNL     1       6.662   3.542  18.774  0.00  0.00    +0.000 HD
ENDROOT
BRANCH   1   8
ATOM      3  C   UNL     1       6.006   3.883  13.550  0.00  0.00    +0.000 C 
ATOM      4  C   UNL     1       5.828   4.562  14.873  0.00  0.00    +0.000 A 
ATOM      5  C   UNL     1       5.407   5.893  14.930  0.00  0.00    +0.000 A 
ATOM      6  C   UNL     1       5.140   6.489  16.156  0.00  0.00    +0.000 A 
ATOM      7  C   UNL     1       5.233   5.732  17.326  0.00  0.00    +0.000 A 
ATOM      8  C   UNL     1       5.590   4.376  17.292  0.00  0.00    +0.000 A 
ATOM      9  C   UNL     1       5.967   3.833  16.069  0.00  0.00    +0.000 A 
ENDBRANCH   1   8
BRANCH   1  10
ATOM     10  C   UNL     1       4.897   4.066  19.693  0.00  0.00    +0.000 C 
BRANCH  10  11
ATOM     11  C   UNL     1       3.458   3.626  19.536  0.00  0.00    +0.000 A 
ATOM     12  C   UNL     1       2.445   4.498  19.979  0.00  0.00    +0.000 A 
ATOM     13  C   UNL     1       1.110   4.091  20.022  0.00  0.00    +0.000 A 
ATOM     14  C   UNL     1       0.760   2.807  19.613  0.00  0.00    +0.000 A 
ATOM     15  C   UNL     1       1.732   1.957  19.099  0.00  0.00    +0.000 A 
ATOM     16  C   UNL     1       3.060   2.367  19.050  0.00  0.00    +0.000 A 
BRANCH  16  17
ATOM     17  O   UNL     1       3.940   1.473  18.513  0.00  0.00    +0.000 OA
ATOM     18  H   UNL     1       4.412   1.949  17.802  0.00  0.00    +0.000 HD
ENDBRANCH  16  17
ENDBRANCH  10  11
ENDBRANCH   1  10
TORSDOF 4
ENDMDL
MODEL 6
REMARK VINA RESULT:      -7.0      2.406      5.920
REMARK  Name = 
REMARK  5 active torsions:
REMARK  status: ('A' for Active; 'I' for Inactive)
REMARK    1  A    between atoms: C_1  and  C_2
REMARK    2  A    between atoms: C_6  and  N_7
REMARK    3  A    between atoms: N_7  and  C_8
REMARK    4  A    between atoms: C_8  and  C_9
REMARK    5  A    between atoms: C_14  and  O_15
REMARK                            x       y       z     vdW  Elec       q    Type
REMARK                         _______ _______ _______ _____ _____    ______ ____
ROOT
ATOM      1  N   UNL     1       4.150   6.189  18.796  0.00  0.00    +0.000 N 
ATOM      2  H   UNL     1       4.421   7.128  19.098  0.00  0.00    +0.000 HD
ENDROOT
BRANCH   1   8
ATOM      3  C   UNL     1       5.603   4.337  14.411  0.00  0.00    +0.000 C 
ATOM      4  C   UNL     1       5.850   4.608  15.863  0.00  0.00    +0.000 A 
ATOM      5  C   UNL     1       7.126   4.430  16.404  0.00  0.00    +0.000 A 
ATOM      6  C   UNL     1       7.380   4.782  17.724  0.00  0.00    +0.000 A 
ATOM      7  C   UNL     1       6.370   5.375  18.486  0.00  0.00    +0.000 A 
ATOM      8  C   UNL     1       5.099   5.626  17.947  0.00  0.00    +0.000 A 
ATOM      9  C   UNL     1       4.833   5.157  16.665  0.00  0.00    +0.000 A 
ENDBRANCH   1   8
BRANCH   1  10
ATOM     10  C   UNL     1       2.709   6.122  18.560  0.00  0.00    +0.000 C 
BRANCH  10  11
ATOM     11  C   UNL     1       2.092   4.939  19.274  0.00  0.00    +0.000 A 
ATOM     12  C   UNL     1       2.259   4.844  20.669  0.00  0.00    +0.000 A 
ATOM     13  C   UNL     1       1.865   3.701  21.367  0.00  0.00    +0.000 A 
ATOM     14  C   UNL     1       1.288   2.633  20.686  0.00  0.00    +0.000 A 
ATOM     15  C   UNL     1       1.042   2.736  19.322  0.00  0.00    +0.000 A 
ATOM     16  C   UNL     1       1.428   3.879  18.629  0.00  0.00    +0.000 A 
BRANCH  16  17
ATOM     17  O   UNL     1       1.129   3.899  17.297  0.00  0.00    +0.000 OA
ATOM     18  H   UNL     1       0.437   3.221  17.164  0.00  0.00    +0.000 HD
ENDBRANCH  16  17
ENDBRANCH  10  11
ENDBRANCH   1  10
TORSDOF 4
ENDMDL
MODEL 7
REMARK VINA RESULT:      -7.0      2.618      6.062
REMARK  Name = 
REMARK  5 active torsions:
REMARK  status: ('A' for Active; 'I' for Inactive)
REMARK    1  A    between atoms: C_1  and  C_2
REMARK    2  A    between atoms: C_6  and  N_7
REMARK    3  A    between atoms: N_7  and  C_8
REMARK    4  A    between atoms: C_8  and  C_9
REMARK    5  A    between atoms: C_14  and  O_15
REMARK                            x       y       z     vdW  Elec       q    Type
REMARK                         _______ _______ _______ _____ _____    ______ ____
ROOT
ATOM      1  N   UNL     1       3.052   6.035  17.627  0.00  0.00    +0.000 N 
ATOM      2  H   UNL     1       2.483   5.363  17.106  0.00  0.00    +0.000 HD
ENDROOT
BRANCH   1   8
ATOM      3  C   UNL     1       7.758   7.653  17.556  0.00  0.00    +0.000 C 
ATOM      4  C   UNL     1       6.721   6.629  17.208  0.00  0.00    +0.000 A 
ATOM      5  C   UNL     1       7.104   5.376  16.726  0.00  0.00    +0.000 A 
ATOM      6  C   UNL     1       6.149   4.391  16.504  0.00  0.00    +0.000 A 
ATOM      7  C   UNL     1       4.813   4.641  16.825  0.00  0.00    +0.000 A 
ATOM      8  C   UNL     1       4.410   5.869  17.372  0.00  0.00    +0.000 A 
ATOM      9  C   UNL     1       5.362   6.879  17.473  0.00  0.00    +0.000 A 
ENDBRANCH   1   8
BRANCH   1  10
ATOM     10  C   UNL     1       2.497   6.250  18.963  0.00  0.00    +0.000 C 
BRANCH  10  11
ATOM     11  C   UNL     1       2.024   4.950  19.575  0.00  0.00    +0.000 A 
ATOM     12  C   UNL     1       2.231   4.752  20.954  0.00  0.00    +0.000 A 
ATOM     13  C   UNL     1       1.975   3.516  21.551  0.00  0.00    +0.000 A 
ATOM     14  C   UNL     1       1.498   2.457  20.784  0.00  0.00    +0.000 A 
ATOM     15  C   UNL     1       1.214   2.653  19.438  0.00  0.00    +0.000 A 
ATOM     16  C   UNL     1       1.461   3.887  18.846  0.00  0.00    +0.000 A 
BRANCH  16  17
ATOM     17  O   UNL     1       1.133   3.991  17.525  0.00  0.00    +0.000 OA
ATOM     18  H   UNL     1       1.556   4.812  17.204  0.00  0.00    +0.000 HD
ENDBRANCH  16  17
ENDBRANCH  10  11
ENDBRANCH   1  10
TORSDOF 4
ENDMDL
MODEL 8
REMARK VINA RESULT:      -7.0      2.264      3.078
REMARK  Name = 
REMARK  5 active torsions:
REMARK  status: ('A' for Active; 'I' for Inactive)
REMARK    1  A    between atoms: C_1  and  C_2
REMARK    2  A    between atoms: C_6  and  N_7
REMARK    3  A    between atoms: N_7  and  C_8
REMARK    4  A    between atoms: C_8  and  C_9
REMARK    5  A    between atoms: C_14  and  O_15
REMARK                            x       y       z     vdW  Elec       q    Type
REMARK                         _______ _______ _______ _____ _____    ______ ____
ROOT
ATOM      1  N   UNL     1       3.378   5.975  17.434  0.00  0.00    +0.000 N 
ATOM      2  H   UNL     1       3.475   6.965  17.674  0.00  0.00    +0.000 HD
ENDROOT
BRANCH   1   8
ATOM      3  C   UNL     1       0.616   2.115  18.930  0.00  0.00    +0.000 C 
ATOM      4  C   UNL     1       1.193   3.478  19.160  0.00  0.00    +0.000 A 
ATOM      5  C   UNL     1       1.129   4.064  20.427  0.00  0.00    +0.000 A 
ATOM      6  C   UNL     1       1.756   5.281  20.665  0.00  0.00    +0.000 A 
ATOM      7  C   UNL     1       2.504   5.882  19.651  0.00  0.00    +0.000 A 
ATOM      8  C   UNL     1       2.640   5.283  18.390  0.00  0.00    +0.000 A 
ATOM      9  C   UNL     1       1.907   4.128  18.137  0.00  0.00    +0.000 A 
ENDBRANCH   1   8
BRANCH   1  10
ATOM     10  C   UNL     1       4.613   5.468  16.838  0.00  0.00    +0.000 C 
BRANCH  10  11
ATOM     11  C   UNL     1       5.828   5.958  17.595  0.00  0.00    +0.000 A 
ATOM     12  C   UNL     1       6.393   7.192  17.217  0.00  0.00    +0.000 A 
ATOM     13  C   UNL     1       7.607   7.624  17.754  0.00  0.00    +0.000 A 
ATOM     14  C   UNL     1       8.275   6.837  18.688  0.00  0.00    +0.000 A 
ATOM     15  C   UNL     1       7.698   5.653  19.132  0.00  0.00    +0.000 A 
ATOM     16  C   UNL     1       6.485   5.228  18.602  0.00  0.00    +0.000 A 
BRANCH  16  17
ATOM     17  O   UNL     1       5.987   4.064  19.113  0.00  0.00    +0.000 OA
ATOM     18  H   UNL     1       6.598   3.357  18.826  0.00  0.00    +0.000 HD
ENDBRANCH  16  17
ENDBRANCH  10  11
ENDBRANCH   1  10
TORSDOF 4
ENDMDL
MODEL 9
REMARK VINA RESULT:      -7.0      1.774      5.996
REMARK  Name = 
REMARK  5 active torsions:
REMARK  status: ('A' for Active; 'I' for Inactive)
REMARK    1  A    between atoms: C_1  and  C_2
REMARK    2  A    between atoms: C_6  and  N_7
REMARK    3  A    between atoms: N_7  and  C_8
REMARK    4  A    between atoms: C_8  and  C_9
REMARK    5  A    between atoms: C_14  and  O_15
REMARK                            x       y       z     vdW  Elec       q    Type
REMARK                         _______ _______ _______ _____ _____    ______ ____
ROOT
ATOM      1  N   UNL     1       4.536   2.607  17.452  0.00  0.00    +0.000 N 
ATOM      2  H   UNL     1       5.029   2.554  18.346  0.00  0.00    +0.000 HD
ENDROOT
BRANCH   1   8
ATOM      3  C   UNL     1       6.969   4.901  13.766  0.00  0.00    +0.000 C 
ATOM      4  C   UNL     1       6.144   4.945  15.016  0.00  0.00    +0.000 A 
ATOM      5  C   UNL     1       5.573   6.148  15.439  0.00  0.00    +0.000 A 
ATOM      6  C   UNL     1       4.722   6.168  16.537  0.00  0.00    +0.000 A 
ATOM      7  C   UNL     1       4.391   4.971  17.175  0.00  0.00    +0.000 A 
ATOM      8  C   UNL     1       4.898   3.741  16.730  0.00  0.00    +0.000 A 
ATOM      9  C   UNL     1       5.839   3.758  15.706  0.00  0.00    +0.000 A 
ENDBRANCH   1   8
BRANCH   1  10
ATOM     10  C   UNL     1       3.157   2.142  17.597  0.00  0.00    +0.000 C 
BRANCH  10  11
ATOM     11  C   UNL     1       2.641   2.389  18.997  0.00  0.00    +0.000 A 
ATOM     12  C   UNL     1       1.288   2.746  19.152  0.00  0.00    +0.000 A 
ATOM     13  C   UNL     1       0.786   3.151  20.391  0.00  0.00    +0.000 A 
ATOM     14  C   UNL     1       1.624   3.196  21.501  0.00  0.00    +0.000 A 
ATOM     15  C   UNL     1       2.944   2.773  21.388  0.00  0.00    +0.000 A 
ATOM     16  C   UNL     1       3.440   2.363  20.155  0.00  0.00    +0.000 A 
BRANCH  16  17
ATOM     17  O   UNL     1       4.740   1.947  20.144  0.00  0.00    +0.000 OA
ATOM     18  H   UNL     1       4.719   0.994  19.929  0.00  0.00    +0.000 HD
ENDBRANCH  16  17
ENDBRANCH  10  11
ENDBRANCH   1  10
TORSDOF 4
ENDMDL
