MODEL 1
REMARK VINA RESULT:      -7.5      0.000      0.000
REMARK  Name = 
REMARK  6 active torsions:
REMARK  status: ('A' for Active; 'I' for Inactive)
REMARK    1  A    between atoms: C_1  and  C_2
REMARK    2  A    between atoms: C_5  and  C_6
REMARK    3  A    between atoms: C_6  and  N_7
REMARK    4  A    between atoms: N_7  and  C_8
REMARK    5  A    between atoms: C_8  and  C_9
REMARK    6  A    between atoms: C_14  and  N_15
REMARK                            x       y       z     vdW  Elec       q    Type
REMARK                         _______ _______ _______ _____ _____    ______ ____
ROOT
ATOM      1  C   UNL     1       1.839   9.031  18.189  0.00  0.00    +0.000 C 
ATOM      2  C   UNL     1       2.654   7.770  18.154  0.00  0.00    +0.000 A 
ATOM      3  C   UNL     1       3.806   7.721  17.386  0.00  0.00    +0.000 A 
ATOM      4  C   UNL     1       4.539   6.547  17.370  0.00  0.00    +0.000 A 
ATOM      5  C   UNL     1       4.118   5.451  18.132  0.00  0.00    +0.000 A 
ATOM      6  C   UNL     1       2.916   5.555  18.865  0.00  0.00    +0.000 A 
ATOM      7  N   UNL     1       2.213   6.714  18.892  0.00  0.00    +0.000 NA
ENDROOT
BRANCH   6   8
ATOM      8  N   UNL     1       2.495   4.491  19.644  0.00  0.00    +0.000 N 
ATOM      9  C   UNL     1       2.259   4.677  21.066  0.00  0.00    +0.000 C 
ATOM     10  C   UNL     1       2.029   3.226  21.481  0.00  0.00    +0.000 C 
ATOM     11  C   UNL     1       1.160   2.676  20.351  0.00  0.00    +0.000 C 
ATOM     12  C   UNL     1       1.487   3.558  19.137  0.00  0.00    +0.000 C 
ENDBRANCH   6   8
BRANCH   5  13
ATOM     13  C   UNL     1       4.916   4.171  18.151  0.00  0.00    +0.000 C 
BRANCH  13  14
ATOM     14  N   UNL     1       6.039   4.127  17.215  0.00  0.00    +0.000 NA
ATOM     15  H   UNL     1       6.699   3.414  17.534  0.00  0.00    +0.000 HD
BRANCH  14  16
ATOM     16  C   UNL     1       5.544   3.700  15.901  0.00  0.00    +0.000 C 
BRANCH  16  17
ATOM     17  C   UNL     1       6.434   4.285  14.858  0.00  0.00    +0.000 A 
ATOM     18  C   UNL     1       6.438   3.998  13.473  0.00  0.00    +0.000 A 
ATOM     19  C   UNL     1       7.408   4.814  12.947  0.00  0.00    +0.000 A 
ATOM     20  N   UNL     1       7.912   5.519  13.994  0.00  0.00    +0.000 N 
ATOM     21  N   UNL     1       7.347   5.214  15.173  0.00  0.00    +0.000 NA
ATOM     22  H   UNL     1       8.637   6.230  13.985  0.00  0.00    +0.000 HD
ENDBRANCH  16  17
ENDBRANCH  14  16
ENDBRANCH  13  14
ENDBRANCH   5  13
TORSDOF 5
ENDMDL
MODEL 2
REMARK VINA RESULT:      -7.3      2.252      6.487
REMARK  Name = 
REMARK  6 active torsions:
REMARK  status: ('A' for Active; 'I' for Inactive)
REMARK    1  A    between atoms: C_1  and  C_2
REMARK    2  A    between atoms: C_5  and  C_6
REMARK    3  A    between atoms: C_6  and  N_7
REMARK    4  A    between atoms: N_7  and  C_8
REMARK    5  A    between atoms: C_8  and  C_9
REMARK    6  A    between atoms: C_14  and  N_15
REMARK                            x       y       z     vdW  Elec       q    Type
REMARK                         _______ _______ _______ _____ _____    ______ ____
ROOT
ATOM      1  C   UNL     1       7.734   4.856  12.621  0.00  0.00    +0.000 C 
ATOM      2  C   UNL     1       6.848   4.736  13.828  0.00  0.00    +0.000 A 
ATOM      3  C   UNL     1       5.625   4.092  13.716  0.00  0.00    +0.000 A 
ATOM      4  C   UNL     1       4.827   3.995  14.843  0.00  0.00    +0.000 A 
ATOM      5  C   UNL     1       5.268   4.527  16.060  0.00  0.00    +0.000 A 
ATOM      6  C   UNL     1       6.508   5.200  16.097  0.00  0.00    +0.000 A 
ATOM      7  N   UNL     1       7.295   5.275  14.995  0.00  0.00    +0.000 NA
ENDROOT
BRANCH   6   8
ATOM      8  N   UNL     1       6.975   5.712  17.295  0.00  0.00    +0.000 N 
ATOM      9  C   UNL     1       7.765   4.880  18.186  0.00  0.00    +0.000 C 
ATOM     10  C   UNL     1       7.844   5.802  19.400  0.00  0.00    +0.000 C 
ATOM     11  C   UNL     1       8.089   7.175  18.776  0.00  0.00    +0.000 C 
ATOM     12  C   UNL     1       7.506   7.075  17.360  0.00  0.00    +0.000 C 
ENDBRANCH   6   8
BRANCH   5  13
ATOM     13  C   UNL     1       4.426   4.408  17.306  0.00  0.00    +0.000 C 
BRANCH  13  14
ATOM     14  N   UNL     1       4.591   3.159  18.048  0.00  0.00    +0.000 NA
ATOM     15  H   UNL     1       4.696   3.383  19.040  0.00  0.00    +0.000 HD
BRANCH  14  16
ATOM     16  C   UNL     1       3.365   2.362  17.913  0.00  0.00    +0.000 C 
BRANCH  16  17
ATOM     17  C   UNL     1       2.476   2.681  19.066  0.00  0.00    +0.000 A 
ATOM     18  C   UNL     1       2.810   2.658  20.440  0.00  0.00    +0.000 A 
ATOM     19  C   UNL     1       1.669   3.061  21.087  0.00  0.00    +0.000 A 
ATOM     20  N   UNL     1       0.751   3.299  20.114  0.00  0.00    +0.000 N 
ATOM     21  N   UNL     1       1.208   3.068  18.872  0.00  0.00    +0.000 NA
ATOM     22  H   UNL     1      -0.205   3.626  20.215  0.00  0.00    +0.000 HD
ENDBRANCH  16  17
ENDBRANCH  14  16
ENDBRANCH  13  14
ENDBRANCH   5  13
TORSDOF 5
ENDMDL
MODEL 3
REMARK VINA RESULT:      -7.2      1.729      2.458
REMARK  Name = 
REMARK  6 active torsions:
REMARK  status: ('A' for Active; 'I' for Inactive)
REMARK    1  A    between atoms: C_1  and  C_2
REMARK    2  A    between atoms: C_5  and  C_6
REMARK    3  A    between atoms: C_6  and  N_7
REMARK    4  A    between atoms: N_7  and  C_8
REMARK    5  A    between atoms: C_8  and  C_9
REMARK    6  A    between atoms: C_14  and  N_15
REMARK                            x       y       z     vdW  Elec       q    Type
REMARK                         _______ _______ _______ _____ _____    ______ ____
ROOT
ATOM      1  C   UNL     1       1.285   9.341  19.262  0.00  0.00    +0.000 C 
ATOM      2  C   UNL     1       2.080   8.146  18.820  0.00  0.00    +0.000 A 
ATOM      3  C   UNL     1       3.018   8.285  17.809  0.00  0.00    +0.000 A 
ATOM      4  C   UNL     1       3.737   7.168  17.419  0.00  0.00    +0.000 A 
ATOM      5  C   UNL     1       3.518   5.940  18.053  0.00  0.00    +0.000 A 
ATOM      6  C   UNL     1       2.523   5.859  19.051  0.00  0.00    +0.000 A 
ATOM      7  N   UNL     1       1.836   6.960  19.443  0.00  0.00    +0.000 NA
ENDROOT
BRANCH   6   8
ATOM      8  N   UNL     1       2.307   4.660  19.708  0.00  0.00    +0.000 N 
ATOM      9  C   UNL     1       2.368   4.601  21.158  0.00  0.00    +0.000 C 
ATOM     10  C   UNL     1       2.275   3.091  21.360  0.00  0.00    +0.000 C 
ATOM     11  C   UNL     1       1.209   2.671  20.350  0.00  0.00    +0.000 C 
ATOM     12  C   UNL     1       1.247   3.754  19.262  0.00  0.00    +0.000 C 
ENDBRANCH   6   8
BRANCH   5  13
ATOM     13  C   UNL     1       4.310   4.717  17.662  0.00  0.00    +0.000 C 
BRANCH  13  14
ATOM     14  N   UNL     1       5.105   4.857  16.443  0.00  0.00    +0.000 NA
ATOM     15  H   UNL     1       5.194   5.852  16.227  0.00  0.00    +0.000 HD
BRANCH  14  16
ATOM     16  C   UNL     1       6.458   4.348  16.699  0.00  0.00    +0.000 C 
BRANCH  16  17
ATOM     17  C   UNL     1       7.161   5.323  17.581  0.00  0.00    +0.000 A 
ATOM     18  C   UNL     1       7.389   6.697  17.332  0.00  0.00    +0.000 A 
ATOM     19  C   UNL     1       8.036   7.155  18.452  0.00  0.00    +0.000 A 
ATOM     20  N   UNL     1       8.156   6.084  19.280  0.00  0.00    +0.000 N 
ATOM     21  N   UNL     1       7.640   4.951  18.776  0.00  0.00    +0.000 NA
ATOM     22  H   UNL     1       8.569   6.046  20.206  0.00  0.00    +0.000 HD
ENDBRANCH  16  17
ENDBRANCH  14  16
ENDBRANCH  13  14
ENDBRANCH   5  13
TORSDOF 5
ENDMDL
MODEL 4
REMARK VINA RESULT:      -7.2      1.307      3.727
REMARK  Name = 
REMARK  6 active torsions:
REMARK  status: ('A' for Active; 'I' for Inactive)
REMARK    1  A    between atoms: C_1  and  C_2
REMARK    2  A    between atoms: C_5  and  C_6
REMARK    3  A    between atoms: C_6  and  N_7
REMARK    4  A    between atoms: N_7  and  C_8
REMARK    5  A    between atoms: C_8  and  C_9
REMARK    6  A    between atoms: C_14  and  N_15
REMARK                            x       y       z     vdW  Elec       q    Type
REMARK                         _______ _______ _______ _____ _____    ______ ____
ROOT
ATOM      1  C   UNL     1       1.194   2.594  21.646  0.00  0.00    +0.000 C 
ATOM      2  C   UNL     1       2.301   3.213  20.842  0.00  0.00    +0.000 A 
ATOM      3  C   UNL     1       3.445   2.478  20.574  0.00  0.00    +0.000 A 
ATOM      4  C   UNL     1       4.451   3.071  19.832  0.00  0.00    +0.000 A 
ATOM      5  C   UNL     1       4.291   4.379  19.359  0.00  0.00    +0.000 A 
ATOM      6  C   UNL     1       3.117   5.085  19.697  0.00  0.00    +0.000 A 
ATOM      7  N   UNL     1       2.126   4.492  20.408  0.00  0.00    +0.000 NA
ENDROOT
BRANCH   6   8
ATOM      8  N   UNL     1       2.928   6.370  19.220  0.00  0.00    +0.000 N 
ATOM      9  C   UNL     1       2.607   6.589  17.820  0.00  0.00    +0.000 C 
ATOM     10  C   UNL     1       2.707   8.111  17.766  0.00  0.00    +0.000 C 
ATOM     11  C   UNL     1       2.031   8.549  19.065  0.00  0.00    +0.000 C 
ATOM     12  C   UNL     1       2.186   7.351  20.013  0.00  0.00    +0.000 C 
ENDBRANCH   6   8
BRANCH   5  13
ATOM     13  C   UNL     1       5.364   5.035  18.525  0.00  0.00    +0.000 C 
BRANCH  13  14
ATOM     14  N   UNL     1       6.516   4.189  18.220  0.00  0.00    +0.000 NA
ATOM     15  H   UNL     1       6.197   3.396  17.659  0.00  0.00    +0.000 HD
BRANCH  14  16
ATOM     16  C   UNL     1       7.459   4.951  17.391  0.00  0.00    +0.000 C 
BRANCH  16  17
ATOM     17  C   UNL     1       7.098   4.734  15.961  0.00  0.00    +0.000 A 
ATOM     18  C   UNL     1       6.202   3.772  15.438  0.00  0.00    +0.000 A 
ATOM     19  C   UNL     1       6.189   4.002  14.085  0.00  0.00    +0.000 A 
ATOM     20  N   UNL     1       7.035   5.044  13.874  0.00  0.00    +0.000 N 
ATOM     21  N   UNL     1       7.612   5.508  14.995  0.00  0.00    +0.000 NA
ATOM     22  H   UNL     1       7.268   5.501  12.998  0.00  0.00    +0.000 HD
ENDBRANCH  16  17
ENDBRANCH  14  16
ENDBRANCH  13  14
ENDBRANCH   5  13
TORSDOF 5
ENDMDL
MODEL 5
REMARK VINA RESULT:      -7.0      1.710      5.790
REMARK  Name = 
REMARK  6 active torsions:
REMARK  status: ('A' for Active; 'I' for Inactive)
REMARK    1  A    between atoms: C_1  and  C_2
REMARK    2  A    between atoms: C_5  and  C_6
REMARK    3  A    between atoms: C_6  and  N_7
REMARK    4  A    between atoms: N_7  and  C_8
REMARK    5  A    between atoms: C_8  and  C_9
REMARK    6  A    between atoms: C_14  and  N_15
REMARK                            x       y       z     vdW  Elec       q    Type
REMARK                         _______ _______ _______ _____ _____    ______ ____
ROOT
ATOM      1  C   UNL     1       2.089   8.848  17.697  0.00  0.00    +0.000 C 
ATOM      2  C   UNL     1       2.816   7.608  18.132  0.00  0.00    +0.000 A 
ATOM      3  C   UNL     1       2.503   7.023  19.349  0.00  0.00    +0.000 A 
ATOM      4  C   UNL     1       3.188   5.882  19.728  0.00  0.00    +0.000 A 
ATOM      5  C   UNL     1       4.161   5.338  18.881  0.00  0.00    +0.000 A 
ATOM      6  C   UNL     1       4.457   6.002  17.672  0.00  0.00    +0.000 A 
ATOM      7  N   UNL     1       3.769   7.109  17.297  0.00  0.00    +0.000 NA
ENDROOT
BRANCH   6   8
ATOM      8  N   UNL     1       5.398   5.469  16.809  0.00  0.00    +0.000 N 
ATOM      9  C   UNL     1       5.004   5.030  15.480  0.00  0.00    +0.000 C 
ATOM     10  C   UNL     1       6.301   4.360  15.034  0.00  0.00    +0.000 C 
ATOM     11  C   UNL     1       7.378   5.324  15.530  0.00  0.00    +0.000 C 
ATOM     12  C   UNL     1       6.733   6.062  16.712  0.00  0.00    +0.000 C 
ENDBRANCH   6   8
BRANCH   5  13
ATOM     13  C   UNL     1       4.900   4.079  19.262  0.00  0.00    +0.000 C 
BRANCH  13  14
ATOM     14  N   UNL     1       4.484   2.875  18.545  0.00  0.00    +0.000 NA
ATOM     15  H   UNL     1       5.296   2.492  18.056  0.00  0.00    +0.000 HD
BRANCH  14  16
ATOM     16  C   UNL     1       4.053   1.867  19.521  0.00  0.00    +0.000 C 
BRANCH  16  17
ATOM     17  C   UNL     1       2.762   2.319  20.114  0.00  0.00    +0.000 A 
ATOM     18  C   UNL     1       2.515   2.681  21.459  0.00  0.00    +0.000 A 
ATOM     19  C   UNL     1       1.194   3.053  21.486  0.00  0.00    +0.000 A 
ATOM     20  N   UNL     1       0.737   2.905  20.214  0.00  0.00    +0.000 N 
ATOM     21  N   UNL     1       1.665   2.451  19.356  0.00  0.00    +0.000 NA
ATOM     22  H   UNL     1      -0.191   3.099  19.851  0.00  0.00    +0.000 HD
ENDBRANCH  16  17
ENDBRANCH  14  16
ENDBRANCH  13  14
ENDBRANCH   5  13
TORSDOF 5
ENDMDL
MODEL 6
REMARK VINA RESULT:      -6.9      1.694      5.758
REMARK  Name = 
REMARK  6 active torsions:
REMARK  status: ('A' for Active; 'I' for Inactive)
REMARK    1  A    between atoms: C_1  and  C_2
REMARK    2  A    between atoms: C_5  and  C_6
REMARK    3  A    between atoms: C_6  and  N_7
REMARK    4  A    between atoms: N_7  and  C_8
REMARK    5  A    between atoms: C_8  and  C_9
REMARK    6  A    between atoms: C_14  and  N_15
REMARK                            x       y       z     vdW  Elec       q    Type
REMARK                         _______ _______ _______ _____ _____    ______ ____
ROOT
ATOM      1  C   UNL     1       1.874   8.654  17.848  0.00  0.00    +0.000 C 
ATOM      2  C   UNL     1       2.743   7.475  18.181  0.00  0.00    +0.000 A 
ATOM      3  C   UNL     1       2.624   6.865  19.420  0.00  0.00    +0.000 A 
ATOM      4  C   UNL     1       3.436   5.781  19.702  0.00  0.00    +0.000 A 
ATOM      5  C   UNL     1       4.340   5.317  18.740  0.00  0.00    +0.000 A 
ATOM      6  C   UNL     1       4.437   6.003  17.511  0.00  0.00    +0.000 A 
ATOM      7  N   UNL     1       3.625   7.053  17.232  0.00  0.00    +0.000 NA
ENDROOT
BRANCH   6   8
ATOM      8  N   UNL     1       5.307   5.546  16.537  0.00  0.00    +0.000 N 
ATOM      9  C   UNL     1       6.737   5.517  16.791  0.00  0.00    +0.000 C 
ATOM     10  C   UNL     1       7.240   5.151  15.396  0.00  0.00    +0.000 C 
ATOM     11  C   UNL     1       6.247   4.083  14.939  0.00  0.00    +0.000 C 
ATOM     12  C   UNL     1       4.965   4.369  15.735  0.00  0.00    +0.000 C 
ENDBRANCH   6   8
BRANCH   5  13
ATOM     13  C   UNL     1       5.216   4.119  19.017  0.00  0.00    +0.000 C 
BRANCH  13  14
ATOM     14  N   UNL     1       4.584   2.822  18.783  0.00  0.00    +0.000 NA
ATOM     15  H   UNL     1       5.211   2.255  18.208  0.00  0.00    +0.000 HD
BRANCH  14  16
ATOM     16  C   UNL     1       4.432   2.129  20.068  0.00  0.00    +0.000 C 
BRANCH  16  17
ATOM     17  C   UNL     1       3.072   2.432  20.599  0.00  0.00    +0.000 A 
ATOM     18  C   UNL     1       1.881   2.611  19.856  0.00  0.00    +0.000 A 
ATOM     19  C   UNL     1       0.908   2.829  20.799  0.00  0.00    +0.000 A 
ATOM     20  N   UNL     1       1.533   2.769  22.004  0.00  0.00    +0.000 N 
ATOM     21  N   UNL     1       2.854   2.537  21.917  0.00  0.00    +0.000 NA
ATOM     22  H   UNL     1       1.130   2.868  22.930  0.00  0.00    +0.000 HD
ENDBRANCH  16  17
ENDBRANCH  14  16
ENDBRANCH  13  14
ENDBRANCH   5  13
TORSDOF 5
ENDMDL
MODEL 7
REMARK VINA RESULT:      -6.9      2.386      6.503
REMARK  Name = 
REMARK  6 active torsions:
REMARK  status: ('A' for Active; 'I' for Inactive)
REMARK    1  A    between atoms: C_1  and  C_2
REMARK    2  A    between atoms: C_5  and  C_6
REMARK    3  A    between atoms: C_6  and  N_7
REMARK    4  A    between atoms: N_7  and  C_8
REMARK    5  A    between atoms: C_8  and  C_9
REMARK    6  A    between atoms: C_14  and  N_15
REMARK                            x       y       z     vdW  Elec       q    Type
REMARK                         _______ _______ _______ _____ _____    ______ ____
ROOT
ATOM      1  C   UNL     1       7.678   4.848  12.294  0.00  0.00    +0.000 C 
ATOM      2  C   UNL     1       6.928   4.714  13.589  0.00  0.00    +0.000 A 
ATOM      3  C   UNL     1       5.716   4.043  13.612  0.00  0.00    +0.000 A 
ATOM      4  C   UNL     1       5.045   3.934  14.817  0.00  0.00    +0.000 A 
ATOM      5  C   UNL     1       5.602   4.483  15.978  0.00  0.00    +0.000 A 
ATOM      6  C   UNL     1       6.822   5.185  15.880  0.00  0.00    +0.000 A 
ATOM      7  N   UNL     1       7.485   5.271  14.700  0.00  0.00    +0.000 NA
ENDROOT
BRANCH   6   8
ATOM      8  N   UNL     1       7.402   5.715  17.020  0.00  0.00    +0.000 N 
ATOM      9  C   UNL     1       7.055   7.056  17.459  0.00  0.00    +0.000 C 
ATOM     10  C   UNL     1       8.075   7.232  18.581  0.00  0.00    +0.000 C 
ATOM     11  C   UNL     1       8.057   5.875  19.283  0.00  0.00    +0.000 C 
ATOM     12  C   UNL     1       7.586   4.882  18.210  0.00  0.00    +0.000 C 
ENDBRANCH   6   8
BRANCH   5  13
ATOM     13  C   UNL     1       4.900   4.352  17.308  0.00  0.00    +0.000 C 
BRANCH  13  14
ATOM     14  N   UNL     1       4.473   2.997  17.652  0.00  0.00    +0.000 NA
ATOM     15  H   UNL     1       4.831   2.771  18.583  0.00  0.00    +0.000 HD
BRANCH  14  16
ATOM     16  C   UNL     1       3.007   2.968  17.734  0.00  0.00    +0.000 C 
BRANCH  16  17
ATOM     17  C   UNL     1       2.624   2.962  19.175  0.00  0.00    +0.000 A 
ATOM     18  C   UNL     1       1.380   3.338  19.735  0.00  0.00    +0.000 A 
ATOM     19  C   UNL     1       1.521   3.120  21.082  0.00  0.00    +0.000 A 
ATOM     20  N   UNL     1       2.781   2.644  21.256  0.00  0.00    +0.000 N 
ATOM     21  N   UNL     1       3.483   2.544  20.115  0.00  0.00    +0.000 NA
ATOM     22  H   UNL     1       3.235   2.358  22.118  0.00  0.00    +0.000 HD
ENDBRANCH  16  17
ENDBRANCH  14  16
ENDBRANCH  13  14
ENDBRANCH   5  13
TORSDOF 5
ENDMDL
MODEL 8
REMARK VINA RESULT:      -6.8      0.680      1.191
REMARK  Name = 
REMARK  6 active torsions:
REMARK  status: ('A' for Active; 'I' for Inactive)
REMARK    1  A    between atoms: C_1  and  C_2
REMARK    2  A    between atoms: C_5  and  C_6
REMARK    3  A    between atoms: C_6  and  N_7
REMARK    4  A    between atoms: N_7  and  C_8
REMARK    5  A    between atoms: C_8  and  C_9
REMARK    6  A    between atoms: C_14  and  N_15
REMARK                            x       y       z     vdW  Elec       q    Type
REMARK                         _______ _______ _______ _____ _____    ______ ____
ROOT
ATOM      1  C   UNL     1       1.525   9.008  17.822  0.00  0.00    +0.000 C 
ATOM      2  C   UNL     1       2.386   7.802  18.067  0.00  0.00    +0.000 A 
ATOM      3  C   UNL     1       3.676   7.768  17.560  0.00  0.00    +0.000 A 
ATOM      4  C   UNL     1       4.449   6.646  17.799  0.00  0.00    +0.000 A 
ATOM      5  C   UNL     1       3.928   5.587  18.551  0.00  0.00    +0.000 A 
ATOM      6  C   UNL     1       2.595   5.669  19.009  0.00  0.00    +0.000 A 
ATOM      7  N   UNL     1       1.849   6.780  18.788  0.00  0.00    +0.000 NA
ENDROOT
BRANCH   6   8
ATOM      8  N   UNL     1       2.069   4.644  19.775  0.00  0.00    +0.000 N 
ATOM      9  C   UNL     1       1.899   3.319  19.203  0.00  0.00    +0.000 C 
ATOM     10  C   UNL     1       1.124   2.647  20.334  0.00  0.00    +0.000 C 
ATOM     11  C   UNL     1       1.836   3.150  21.589  0.00  0.00    +0.000 C 
ATOM     12  C   UNL     1       2.471   4.485  21.174  0.00  0.00    +0.000 C 
ENDBRANCH   6   8
BRANCH   5  13
ATOM     13  C   UNL     1       4.763   4.365  18.847  0.00  0.00    +0.000 C 
BRANCH  13  14
ATOM     14  N   UNL     1       5.354   3.720  17.676  0.00  0.00    +0.000 NA
ATOM     15  H   UNL     1       4.774   3.933  16.861  0.00  0.00    +0.000 HD
BRANCH  14  16
ATOM     16  C   UNL     1       6.677   4.306  17.429  0.00  0.00    +0.000 C 
BRANCH  16  17
ATOM     17  C   UNL     1       6.819   4.529  15.962  0.00  0.00    +0.000 A 
ATOM     18  C   UNL     1       6.190   3.808  14.920  0.00  0.00    +0.000 A 
ATOM     19  C   UNL     1       6.613   4.418  13.765  0.00  0.00    +0.000 A 
ATOM     20  N   UNL     1       7.434   5.428  14.155  0.00  0.00    +0.000 N 
ATOM     21  N   UNL     1       7.587   5.518  15.486  0.00  0.00    +0.000 NA
ATOM     22  H   UNL     1       7.921   6.104  13.575  0.00  0.00    +0.000 HD
ENDBRANCH  16  17
ENDBRANCH  14  16
ENDBRANCH  13  14
ENDBRANCH   5  13
TORSDOF 5
ENDMDL
MODEL 9
REMARK VINA RESULT:      -6.8      1.946      2.330
REMARK  Name = 
REMARK  6 active torsions:
REMARK  status: ('A' for Active; 'I' for Inactive)
REMARK    1  A    between atoms: C_1  and  C_2
REMARK    2  A    between atoms: C_5  and  C_6
REMARK    3  A    between atoms: C_6  and  N_7
REMARK    4  A    between atoms: N_7  and  C_8
REMARK    5  A    between atoms: C_8  and  C_9
REMARK    6  A    between atoms: C_14  and  N_15
REMARK                            x       y       z     vdW  Elec       q    Type
REMARK                         _______ _______ _______ _____ _____    ______ ____
ROOT
ATOM      1  C   UNL     1       1.650   8.992  18.963  0.00  0.00    +0.000 C 
ATOM      2  C   UNL     1       2.327   7.708  18.577  0.00  0.00    +0.000 A 
ATOM      3  C   UNL     1       3.181   7.686  17.485  0.00  0.00    +0.000 A 
ATOM      4  C   UNL     1       3.791   6.490  17.150  0.00  0.00    +0.000 A 
ATOM      5  C   UNL     1       3.551   5.345  17.918  0.00  0.00    +0.000 A 
ATOM      6  C   UNL     1       2.644   5.426  18.995  0.00  0.00    +0.000 A 
ATOM      7  N   UNL     1       2.064   6.605  19.331  0.00  0.00    +0.000 NA
ENDROOT
BRANCH   6   8
ATOM      8  N   UNL     1       2.411   4.312  19.782  0.00  0.00    +0.000 N 
ATOM      9  C   UNL     1       2.505   4.407  21.229  0.00  0.00    +0.000 C 
ATOM     10  C   UNL     1       2.375   2.931  21.594  0.00  0.00    +0.000 C 
ATOM     11  C   UNL     1       1.274   2.437  20.658  0.00  0.00    +0.000 C 
ATOM     12  C   UNL     1       1.316   3.395  19.459  0.00  0.00    +0.000 C 
ENDBRANCH   6   8
BRANCH   5  13
ATOM     13  C   UNL     1       4.228   4.037  17.586  0.00  0.00    +0.000 C 
BRANCH  13  14
ATOM     14  N   UNL     1       5.548   4.161  16.970  0.00  0.00    +0.000 NA
ATOM     15  H   UNL     1       5.555   5.000  16.385  0.00  0.00    +0.000 HD
BRANCH  14  16
ATOM     16  C   UNL     1       6.547   4.364  18.026  0.00  0.00    +0.000 C 
BRANCH  16  17
ATOM     17  C   UNL     1       7.168   5.704  17.826  0.00  0.00    +0.000 A 
ATOM     18  C   UNL     1       7.756   6.534  18.810  0.00  0.00    +0.000 A 
ATOM     19  C   UNL     1       8.210   7.630  18.120  0.00  0.00    +0.000 A 
ATOM     20  N   UNL     1       7.889   7.412  16.817  0.00  0.00    +0.000 N 
ATOM     21  N   UNL     1       7.246   6.252  16.606  0.00  0.00    +0.000 NA
ATOM     22  H   UNL     1       8.080   8.002  16.014  0.00  0.00    +0.000 HD
ENDBRANCH  16  17
ENDBRANCH  14  16
ENDBRANCH  13  14
ENDBRANCH   5  13
TORSDOF 5
ENDMDL
