MODEL 1
REMARK VINA RESULT:      -7.5      0.000      0.000
REMARK  Name = 
REMARK  11 active torsions:
REMARK  status: ('A' for Active; 'I' for Inactive)
REMARK    1  A    between atoms: C_1  and  O_2
REMARK    2  A    between atoms: O_2  and  C_3
REMARK    3  A    between atoms: C_6  and  C_7
REMARK    4  A    between atoms: C_8  and  C_9
REMARK    5  A    between atoms: C_11  and  O_12
REMARK    6  A    between atoms: O_12  and  C_13
REMARK    7  A    between atoms: C_14  and  O_15
REMARK    8  A    between atoms: O_15  and  C_16
REMARK    9  A    between atoms: C_17  and  O_18
REMARK   10  A    between atoms: O_18  and  C_19
REMARK   11  A    between atoms: C_23  and  C_24
REMARK                            x       y       z     vdW  Elec       q    Type
REMARK                         _______ _______ _______ _____ _____    ______ ____
ROOT
ATOM      1  C   UNL     1       3.505   4.544  19.587  0.00  0.00    +0.000 A 
ATOM      2  C   UNL     1       2.461   5.291  20.254  0.00  0.00    +0.000 A 
ATOM      3  C   UNL     1       1.860   4.406  21.122  0.00  0.00    +0.000 A 
ATOM      4  O   UNL     1       2.465   3.198  21.074  0.00  0.00    +0.000 OA
ATOM      5  C   UNL     1       3.461   3.263  20.141  0.00  0.00    +0.000 A 
ENDROOT
BRANCH   1   9
ATOM      6  C   UNL     1       6.402   5.663  16.636  0.00  0.00    +0.000 A 
ATOM      7  C   UNL     1       5.134   5.238  16.247  0.00  0.00    +0.000 A 
ATOM      8  C   UNL     1       4.178   4.878  17.204  0.00  0.00    +0.000 A 
ATOM      9  C   UNL     1       4.461   4.979  18.574  0.00  0.00    +0.000 A 
ATOM     10  C   UNL     1       5.733   5.435  18.950  0.00  0.00    +0.000 A 
ATOM     11  C   UNL     1       6.708   5.738  17.992  0.00  0.00    +0.000 A 
BRANCH   6  13
ATOM     12  C   UNL     1       7.160   5.092  14.478  0.00  0.00    +0.000 C 
ATOM     13  O   UNL     1       7.270   5.939  15.616  0.00  0.00    +0.000 OA
ENDBRANCH   6  13
ENDBRANCH   1   9
BRANCH   2  14
ATOM     14  C   UNL     1       2.024   6.681  20.127  0.00  0.00    +0.000 A 
ATOM     15  C   UNL     1       1.157   7.245  21.066  0.00  0.00    +0.000 A 
ATOM     16  C   UNL     1       0.666   8.546  20.899  0.00  0.00    +0.000 A 
ATOM     17  C   UNL     1       0.979   9.276  19.731  0.00  0.00    +0.000 A 
ATOM     18  C   UNL     1       1.852   8.715  18.781  0.00  0.00    +0.000 A 
ATOM     19  C   UNL     1       2.411   7.453  19.024  0.00  0.00    +0.000 A 
BRANCH  16  20
ATOM     20  O   UNL     1      -0.167   9.149  21.813  0.00  0.00    +0.000 OA
ATOM     21  C   UNL     1       0.415   9.448  23.079  0.00  0.00    +0.000 C 
ENDBRANCH  16  20
BRANCH  17  22
ATOM     22  O   UNL     1       0.337  10.488  19.609  0.00  0.00    +0.000 OA
ATOM     23  C   UNL     1      -0.891  10.506  18.893  0.00  0.00    +0.000 C 
ENDBRANCH  17  22
BRANCH  18  24
ATOM     24  O   UNL     1       2.031   9.374  17.592  0.00  0.00    +0.000 OA
ATOM     25  C   UNL     1       2.567  10.690  17.635  0.00  0.00    +0.000 C 
ENDBRANCH  18  24
ENDBRANCH   2  14
BRANCH   5  26
ATOM     26  C   UNL     1       4.196   2.038  19.933  0.00  0.00    +0.000 C 
ATOM     27  O   UNL     1       5.194   1.664  20.544  0.00  0.00    +0.000 OA
ENDBRANCH   5  26
TORSDOF 7
ENDMDL
MODEL 2
REMARK VINA RESULT:      -7.3      1.408      1.893
REMARK  Name = 
REMARK  11 active torsions:
REMARK  status: ('A' for Active; 'I' for Inactive)
REMARK    1  A    between atoms: C_1  and  O_2
REMARK    2  A    between atoms: O_2  and  C_3
REMARK    3  A    between atoms: C_6  and  C_7
REMARK    4  A    between atoms: C_8  and  C_9
REMARK    5  A    between atoms: C_11  and  O_12
REMARK    6  A    between atoms: O_12  and  C_13
REMARK    7  A    between atoms: C_14  and  O_15
REMARK    8  A    between atoms: O_15  and  C_16
REMARK    9  A    between atoms: C_17  and  O_18
REMARK   10  A    between atoms: O_18  and  C_19
REMARK   11  A    between atoms: C_23  and  C_24
REMARK                            x       y       z     vdW  Elec       q    Type
REMARK                         _______ _______ _______ _____ _____    ______ ____
ROOT
ATOM      1  C   UNL     1       3.176   4.972  19.381  0.00  0.00    +0.000 A 
ATOM      2  C   UNL     1       2.086   5.683  20.012  0.00  0.00    +0.000 A 
ATOM      3  C   UNL     1       1.243   4.714  20.512  0.00  0.00    +0.000 A 
ATOM      4  O   UNL     1       1.737   3.478  20.278  0.00  0.00    +0.000 OA
ATOM      5  C   UNL     1       2.907   3.617  19.585  0.00  0.00    +0.000 A 
ENDROOT
BRANCH   1   9
ATOM      6  C   UNL     1       6.595   6.661  17.428  0.00  0.00    +0.000 A 
ATOM      7  C   UNL     1       6.746   5.958  18.621  0.00  0.00    +0.000 A 
ATOM      8  C   UNL     1       5.636   5.395  19.263  0.00  0.00    +0.000 A 
ATOM      9  C   UNL     1       4.356   5.491  18.697  0.00  0.00    +0.000 A 
ATOM     10  C   UNL     1       4.224   6.178  17.482  0.00  0.00    +0.000 A 
ATOM     11  C   UNL     1       5.326   6.791  16.872  0.00  0.00    +0.000 A 
BRANCH   6  13
ATOM     12  C   UNL     1       8.169   8.413  17.548  0.00  0.00    +0.000 C 
ATOM     13  O   UNL     1       7.739   7.210  16.919  0.00  0.00    +0.000 OA
ENDBRANCH   6  13
ENDBRANCH   1   9
BRANCH   2  14
ATOM     14  C   UNL     1       1.808   7.112  20.156  0.00  0.00    +0.000 A 
ATOM     15  C   UNL     1       1.628   7.680  21.419  0.00  0.00    +0.000 A 
ATOM     16  C   UNL     1       1.272   9.028  21.555  0.00  0.00    +0.000 A 
ATOM     17  C   UNL     1       1.011   9.810  20.409  0.00  0.00    +0.000 A 
ATOM     18  C   UNL     1       1.190   9.245  19.133  0.00  0.00    +0.000 A 
ATOM     19  C   UNL     1       1.646   7.924  19.026  0.00  0.00    +0.000 A 
BRANCH  16  20
ATOM     20  O   UNL     1       1.112   9.634  22.781  0.00  0.00    +0.000 OA
ATOM     21  C   UNL     1      -0.169   9.477  23.386  0.00  0.00    +0.000 C 
ENDBRANCH  16  20
BRANCH  17  22
ATOM     22  O   UNL     1       0.541  11.080  20.663  0.00  0.00    +0.000 OA
ATOM     23  C   UNL     1       1.450  12.159  20.487  0.00  0.00    +0.000 C 
ENDBRANCH  17  22
BRANCH  18  24
ATOM     24  O   UNL     1       0.795   9.971  18.039  0.00  0.00    +0.000 OA
ATOM     25  C   UNL     1      -0.591  10.001  17.725  0.00  0.00    +0.000 C 
ENDBRANCH  18  24
ENDBRANCH   2  14
BRANCH   5  26
ATOM     26  C   UNL     1       3.559   2.383  19.217  0.00  0.00    +0.000 C 
ATOM     27  O   UNL     1       3.696   1.930  18.084  0.00  0.00    +0.000 OA
ENDBRANCH   5  26
TORSDOF 7
ENDMDL
MODEL 3
REMARK VINA RESULT:      -7.3      0.955      1.431
REMARK  Name = 
REMARK  11 active torsions:
REMARK  status: ('A' for Active; 'I' for Inactive)
REMARK    1  A    between atoms: C_1  and  O_2
REMARK    2  A    between atoms: O_2  and  C_3
REMARK    3  A    between atoms: C_6  and  C_7
REMARK    4  A    between atoms: C_8  and  C_9
REMARK    5  A    between atoms: C_11  and  O_12
REMARK    6  A    between atoms: O_12  and  C_13
REMARK    7  A    between atoms: C_14  and  O_15
REMARK    8  A    between atoms: O_15  and  C_16
REMARK    9  A    between atoms: C_17  and  O_18
REMARK   10  A    between atoms: O_18  and  C_19
REMARK   11  A    between atoms: C_23  and  C_24
REMARK                            x       y       z     vdW  Elec       q    Type
REMARK                         _______ _______ _______ _____ _____    ______ ____
ROOT
ATOM      1  C   UNL     1       3.414   4.825  19.566  0.00  0.00    +0.000 A 
ATOM      2  C   UNL     1       2.246   5.476  20.117  0.00  0.00    +0.000 A 
ATOM      3  C   UNL     1       1.508   4.481  20.719  0.00  0.00    +0.000 A 
ATOM      4  O   UNL     1       2.135   3.287  20.618  0.00  0.00    +0.000 OA
ATOM      5  C   UNL     1       3.291   3.478  19.914  0.00  0.00    +0.000 A 
ENDROOT
BRANCH   1   9
ATOM      6  C   UNL     1       6.658   6.658  17.451  0.00  0.00    +0.000 A 
ATOM      7  C   UNL     1       6.883   6.038  18.678  0.00  0.00    +0.000 A 
ATOM      8  C   UNL     1       5.831   5.429  19.373  0.00  0.00    +0.000 A 
ATOM      9  C   UNL     1       4.538   5.393  18.829  0.00  0.00    +0.000 A 
ATOM     10  C   UNL     1       4.334   5.997  17.580  0.00  0.00    +0.000 A 
ATOM     11  C   UNL     1       5.374   6.656  16.914  0.00  0.00    +0.000 A 
BRANCH   6  13
ATOM     12  C   UNL     1       8.158   8.476  17.509  0.00  0.00    +0.000 C 
ATOM     13  O   UNL     1       7.747   7.263  16.888  0.00  0.00    +0.000 OA
ENDBRANCH   6  13
ENDBRANCH   1   9
BRANCH   2  14
ATOM     14  C   UNL     1       1.814   6.874  20.107  0.00  0.00    +0.000 A 
ATOM     15  C   UNL     1       0.981   7.370  21.113  0.00  0.00    +0.000 A 
ATOM     16  C   UNL     1       0.492   8.681  21.057  0.00  0.00    +0.000 A 
ATOM     17  C   UNL     1       0.772   9.494  19.936  0.00  0.00    +0.000 A 
ATOM     18  C   UNL     1       1.610   9.001  18.920  0.00  0.00    +0.000 A 
ATOM     19  C   UNL     1       2.169   7.723  19.051  0.00  0.00    +0.000 A 
BRANCH  16  20
ATOM     20  O   UNL     1      -0.308   9.218  22.040  0.00  0.00    +0.000 OA
ATOM     21  C   UNL     1       0.321   9.438  23.300  0.00  0.00    +0.000 C 
ENDBRANCH  16  20
BRANCH  17  22
ATOM     22  O   UNL     1       0.133  10.714  19.924  0.00  0.00    +0.000 OA
ATOM     23  C   UNL     1      -1.101  10.797  19.223  0.00  0.00    +0.000 C 
ENDBRANCH  17  22
BRANCH  18  24
ATOM     24  O   UNL     1       1.754   9.745  17.777  0.00  0.00    +0.000 OA
ATOM     25  C   UNL     1       2.423  10.996  17.877  0.00  0.00    +0.000 C 
ENDBRANCH  18  24
ENDBRANCH   2  14
BRANCH   5  26
ATOM     26  C   UNL     1       4.077   2.290  19.681  0.00  0.00    +0.000 C 
ATOM     27  O   UNL     1       5.057   1.917  20.320  0.00  0.00    +0.000 OA
ENDBRANCH   5  26
TORSDOF 7
ENDMDL
MODEL 4
REMARK VINA RESULT:      -7.1      1.165      2.756
REMARK  Name = 
REMARK  11 active torsions:
REMARK  status: ('A' for Active; 'I' for Inactive)
REMARK    1  A    between atoms: C_1  and  O_2
REMARK    2  A    between atoms: O_2  and  C_3
REMARK    3  A    between atoms: C_6  and  C_7
REMARK    4  A    between atoms: C_8  and  C_9
REMARK    5  A    between atoms: C_11  and  O_12
REMARK    6  A    between atoms: O_12  and  C_13
REMARK    7  A    between atoms: C_14  and  O_15
REMARK    8  A    between atoms: O_15  and  C_16
REMARK    9  A    between atoms: C_17  and  O_18
REMARK   10  A    between atoms: O_18  and  C_19
REMARK   11  A    between atoms: C_23  and  C_24
REMARK                            x       y       z     vdW  Elec       q    Type
REMARK                         _______ _______ _______ _____ _____    ______ ____
ROOT
ATOM      1  C   UNL     1       3.422   4.874  19.595  0.00  0.00    +0.000 A 
ATOM      2  C   UNL     1       2.248   5.484  20.180  0.00  0.00    +0.000 A 
ATOM      3  C   UNL     1       1.540   4.457  20.764  0.00  0.00    +0.000 A 
ATOM      4  O   UNL     1       2.192   3.280  20.623  0.00  0.00    +0.000 OA
ATOM      5  C   UNL     1       3.333   3.515  19.908  0.00  0.00    +0.000 A 
ENDROOT
BRANCH   1   9
ATOM      6  C   UNL     1       6.606   6.830  17.501  0.00  0.00    +0.000 A 
ATOM      7  C   UNL     1       6.877   6.076  18.640  0.00  0.00    +0.000 A 
ATOM      8  C   UNL     1       5.844   5.427  19.328  0.00  0.00    +0.000 A 
ATOM      9  C   UNL     1       4.523   5.485  18.859  0.00  0.00    +0.000 A 
ATOM     10  C   UNL     1       4.271   6.225  17.695  0.00  0.00    +0.000 A 
ATOM     11  C   UNL     1       5.295   6.923  17.043  0.00  0.00    +0.000 A 
BRANCH   6  13
ATOM     12  C   UNL     1       8.150   8.606  17.649  0.00  0.00    +0.000 C 
ATOM     13  O   UNL     1       7.683   7.462  16.943  0.00  0.00    +0.000 OA
ENDBRANCH   6  13
ENDBRANCH   1   9
BRANCH   2  14
ATOM     14  C   UNL     1       1.785   6.871  20.213  0.00  0.00    +0.000 A 
ATOM     15  C   UNL     1       1.760   7.644  19.050  0.00  0.00    +0.000 A 
ATOM     16  C   UNL     1       1.405   8.997  19.095  0.00  0.00    +0.000 A 
ATOM     17  C   UNL     1       1.145   9.620  20.335  0.00  0.00    +0.000 A 
ATOM     18  C   UNL     1       1.168   8.848  21.512  0.00  0.00    +0.000 A 
ATOM     19  C   UNL     1       1.425   7.474  21.425  0.00  0.00    +0.000 A 
BRANCH  16  20
ATOM     20  O   UNL     1       1.341   9.787  17.969  0.00  0.00    +0.000 OA
ATOM     21  C   UNL     1       2.475  10.617  17.730  0.00  0.00    +0.000 C 
ENDBRANCH  16  20
BRANCH  17  22
ATOM     22  O   UNL     1       0.936  10.980  20.275  0.00  0.00    +0.000 OA
ATOM     23  C   UNL     1      -0.410  11.430  20.198  0.00  0.00    +0.000 C 
ENDBRANCH  17  22
BRANCH  18  24
ATOM     24  O   UNL     1       1.055   9.494  22.716  0.00  0.00    +0.000 OA
ATOM     25  C   UNL     1      -0.230   9.554  23.322  0.00  0.00    +0.000 C 
ENDBRANCH  18  24
ENDBRANCH   2  14
BRANCH   5  26
ATOM     26  C   UNL     1       4.141   2.352  19.633  0.00  0.00    +0.000 C 
ATOM     27  O   UNL     1       4.987   1.849  20.369  0.00  0.00    +0.000 OA
ENDBRANCH   5  26
TORSDOF 7
ENDMDL
MODEL 5
REMARK VINA RESULT:      -7.1      1.790      6.898
REMARK  Name = 
REMARK  11 active torsions:
REMARK  status: ('A' for Active; 'I' for Inactive)
REMARK    1  A    between atoms: C_1  and  O_2
REMARK    2  A    between atoms: O_2  and  C_3
REMARK    3  A    between atoms: C_6  and  C_7
REMARK    4  A    between atoms: C_8  and  C_9
REMARK    5  A    between atoms: C_11  and  O_12
REMARK    6  A    between atoms: O_12  and  C_13
REMARK    7  A    between atoms: C_14  and  O_15
REMARK    8  A    between atoms: O_15  and  C_16
REMARK    9  A    between atoms: C_17  and  O_18
REMARK   10  A    between atoms: O_18  and  C_19
REMARK   11  A    between atoms: C_23  and  C_24
REMARK                            x       y       z     vdW  Elec       q    Type
REMARK                         _______ _______ _______ _____ _____    ______ ____
ROOT
ATOM      1  C   UNL     1       2.789   4.136  18.515  0.00  0.00    +0.000 A 
ATOM      2  C   UNL     1       3.765   3.507  17.652  0.00  0.00    +0.000 A 
ATOM      3  C   UNL     1       3.564   2.150  17.782  0.00  0.00    +0.000 A 
ATOM      4  O   UNL     1       2.532   1.893  18.617  0.00  0.00    +0.000 OA
ATOM      5  C   UNL     1       2.056   3.089  19.077  0.00  0.00    +0.000 A 
ENDROOT
BRANCH   1   9
ATOM      6  C   UNL     1       1.889   8.269  19.194  0.00  0.00    +0.000 A 
ATOM      7  C   UNL     1       1.983   7.387  20.268  0.00  0.00    +0.000 A 
ATOM      8  C   UNL     1       2.285   6.036  20.057  0.00  0.00    +0.000 A 
ATOM      9  C   UNL     1       2.541   5.552  18.766  0.00  0.00    +0.000 A 
ATOM     10  C   UNL     1       2.469   6.458  17.698  0.00  0.00    +0.000 A 
ATOM     11  C   UNL     1       2.109   7.795  17.904  0.00  0.00    +0.000 A 
BRANCH   6  13
ATOM     12  C   UNL     1       1.204  10.384  18.410  0.00  0.00    +0.000 C 
ATOM     13  O   UNL     1       1.538   9.551  19.514  0.00  0.00    +0.000 OA
ENDBRANCH   6  13
ENDBRANCH   1   9
BRANCH   2  14
ATOM     14  C   UNL     1       4.800   4.065  16.781  0.00  0.00    +0.000 A 
ATOM     15  C   UNL     1       5.025   3.534  15.510  0.00  0.00    +0.000 A 
ATOM     16  C   UNL     1       6.074   4.005  14.711  0.00  0.00    +0.000 A 
ATOM     17  C   UNL     1       6.970   4.972  15.217  0.00  0.00    +0.000 A 
ATOM     18  C   UNL     1       6.749   5.512  16.498  0.00  0.00    +0.000 A 
ATOM     19  C   UNL     1       5.632   5.096  17.234  0.00  0.00    +0.000 A 
BRANCH  16  20
ATOM     20  O   UNL     1       6.313   3.529  13.442  0.00  0.00    +0.000 OA
ATOM     21  C   UNL     1       5.167   3.390  12.605  0.00  0.00    +0.000 C 
ENDBRANCH  16  20
BRANCH  17  22
ATOM     22  O   UNL     1       8.038   5.265  14.399  0.00  0.00    +0.000 OA
ATOM     23  C   UNL     1       7.747   5.748  13.094  0.00  0.00    +0.000 C 
ENDBRANCH  17  22
BRANCH  18  24
ATOM     24  O   UNL     1       7.705   6.339  17.028  0.00  0.00    +0.000 OA
ATOM     25  C   UNL     1       7.720   6.521  18.438  0.00  0.00    +0.000 C 
ENDBRANCH  18  24
ENDBRANCH   2  14
BRANCH   5  26
ATOM     26  C   UNL     1       0.964   3.000  20.016  0.00  0.00    +0.000 C 
ATOM     27  O   UNL     1       1.046   2.856  21.233  0.00  0.00    +0.000 OA
ENDBRANCH   5  26
TORSDOF 7
ENDMDL
MODEL 6
REMARK VINA RESULT:      -7.0      1.027      1.175
REMARK  Name = 
REMARK  11 active torsions:
REMARK  status: ('A' for Active; 'I' for Inactive)
REMARK    1  A    between atoms: C_1  and  O_2
REMARK    2  A    between atoms: O_2  and  C_3
REMARK    3  A    between atoms: C_6  and  C_7
REMARK    4  A    between atoms: C_8  and  C_9
REMARK    5  A    between atoms: C_11  and  O_12
REMARK    6  A    between atoms: O_12  and  C_13
REMARK    7  A    between atoms: C_14  and  O_15
REMARK    8  A    between atoms: O_15  and  C_16
REMARK    9  A    between atoms: C_17  and  O_18
REMARK   10  A    between atoms: O_18  and  C_19
REMARK   11  A    between atoms: C_23  and  C_24
REMARK                            x       y       z     vdW  Elec       q    Type
REMARK                         _______ _______ _______ _____ _____    ______ ____
ROOT
ATOM      1  C   UNL     1       3.162   4.727  19.414  0.00  0.00    +0.000 A 
ATOM      2  C   UNL     1       2.180   5.520  20.122  0.00  0.00    +0.000 A 
ATOM      3  C   UNL     1       1.435   4.627  20.861  0.00  0.00    +0.000 A 
ATOM      4  O   UNL     1       1.895   3.365  20.699  0.00  0.00    +0.000 OA
ATOM      5  C   UNL     1       2.938   3.408  19.817  0.00  0.00    +0.000 A 
ENDROOT
BRANCH   1   9
ATOM      6  C   UNL     1       6.334   5.802  16.743  0.00  0.00    +0.000 A 
ATOM      7  C   UNL     1       5.099   5.401  16.239  0.00  0.00    +0.000 A 
ATOM      8  C   UNL     1       4.054   5.055  17.104  0.00  0.00    +0.000 A 
ATOM      9  C   UNL     1       4.214   5.147  18.494  0.00  0.00    +0.000 A 
ATOM     10  C   UNL     1       5.453   5.579  18.986  0.00  0.00    +0.000 A 
ATOM     11  C   UNL     1       6.517   5.867  18.122  0.00  0.00    +0.000 A 
BRANCH   6  13
ATOM     12  C   UNL     1       7.260   5.238  14.649  0.00  0.00    +0.000 C 
ATOM     13  O   UNL     1       7.295   6.065  15.807  0.00  0.00    +0.000 OA
ENDBRANCH   6  13
ENDBRANCH   1   9
BRANCH   2  14
ATOM     14  C   UNL     1       1.919   6.959  20.138  0.00  0.00    +0.000 A 
ATOM     15  C   UNL     1       1.731   7.637  21.344  0.00  0.00    +0.000 A 
ATOM     16  C   UNL     1       1.390   8.995  21.358  0.00  0.00    +0.000 A 
ATOM     17  C   UNL     1       1.152   9.678  20.145  0.00  0.00    +0.000 A 
ATOM     18  C   UNL     1       1.340   9.002  18.926  0.00  0.00    +0.000 A 
ATOM     19  C   UNL     1       1.781   7.672  18.940  0.00  0.00    +0.000 A 
BRANCH  16  20
ATOM     20  O   UNL     1       1.223   9.707  22.525  0.00  0.00    +0.000 OA
ATOM     21  C   UNL     1      -0.003   9.482  23.217  0.00  0.00    +0.000 C 
ENDBRANCH  16  20
BRANCH  17  22
ATOM     22  O   UNL     1       0.695  10.970  20.282  0.00  0.00    +0.000 OA
ATOM     23  C   UNL     1       1.600  12.019  19.961  0.00  0.00    +0.000 C 
ENDBRANCH  17  22
BRANCH  18  24
ATOM     24  O   UNL     1       0.968   9.634  17.768  0.00  0.00    +0.000 OA
ATOM     25  C   UNL     1      -0.421   9.818  17.526  0.00  0.00    +0.000 C 
ENDBRANCH  18  24
ENDBRANCH   2  14
BRANCH   5  26
ATOM     26  C   UNL     1       3.532   2.132  19.500  0.00  0.00    +0.000 C 
ATOM     27  O   UNL     1       3.431   1.513  18.443  0.00  0.00    +0.000 OA
ENDBRANCH   5  26
TORSDOF 7
ENDMDL
MODEL 7
REMARK VINA RESULT:      -7.0      1.574      6.628
REMARK  Name = 
REMARK  11 active torsions:
REMARK  status: ('A' for Active; 'I' for Inactive)
REMARK    1  A    between atoms: C_1  and  O_2
REMARK    2  A    between atoms: O_2  and  C_3
REMARK    3  A    between atoms: C_6  and  C_7
REMARK    4  A    between atoms: C_8  and  C_9
REMARK    5  A    between atoms: C_11  and  O_12
REMARK    6  A    between atoms: O_12  and  C_13
REMARK    7  A    between atoms: C_14  and  O_15
REMARK    8  A    between atoms: O_15  and  C_16
REMARK    9  A    between atoms: C_17  and  O_18
REMARK   10  A    between atoms: O_18  and  C_19
REMARK   11  A    between atoms: C_23  and  C_24
REMARK                            x       y       z     vdW  Elec       q    Type
REMARK                         _______ _______ _______ _____ _____    ______ ____
ROOT
ATOM      1  C   UNL     1       3.054   4.279  18.998  0.00  0.00    +0.000 A 
ATOM      2  C   UNL     1       3.994   3.595  18.136  0.00  0.00    +0.000 A 
ATOM      3  C   UNL     1       3.938   2.266  18.496  0.00  0.00    +0.000 A 
ATOM      4  O   UNL     1       3.023   2.070  19.473  0.00  0.00    +0.000 OA
ATOM      5  C   UNL     1       2.484   3.283  19.794  0.00  0.00    +0.000 A 
ENDROOT
BRANCH   1   9
ATOM      6  C   UNL     1       1.847   8.389  19.087  0.00  0.00    +0.000 A 
ATOM      7  C   UNL     1       1.846   7.633  20.256  0.00  0.00    +0.000 A 
ATOM      8  C   UNL     1       2.246   6.291  20.239  0.00  0.00    +0.000 A 
ATOM      9  C   UNL     1       2.698   5.693  19.053  0.00  0.00    +0.000 A 
ATOM     10  C   UNL     1       2.720   6.475  17.890  0.00  0.00    +0.000 A 
ATOM     11  C   UNL     1       2.263   7.799  17.896  0.00  0.00    +0.000 A 
BRANCH   6  13
ATOM     12  C   UNL     1       0.581   9.917  20.359  0.00  0.00    +0.000 C 
ATOM     13  O   UNL     1       1.388   9.670  19.213  0.00  0.00    +0.000 OA
ENDBRANCH   6  13
ENDBRANCH   1   9
BRANCH   2  14
ATOM     14  C   UNL     1       4.879   4.083  17.078  0.00  0.00    +0.000 A 
ATOM     15  C   UNL     1       5.901   4.990  17.364  0.00  0.00    +0.000 A 
ATOM     16  C   UNL     1       6.691   5.527  16.340  0.00  0.00    +0.000 A 
ATOM     17  C   UNL     1       6.408   5.218  14.992  0.00  0.00    +0.000 A 
ATOM     18  C   UNL     1       5.380   4.304  14.696  0.00  0.00    +0.000 A 
ATOM     19  C   UNL     1       4.674   3.703  15.746  0.00  0.00    +0.000 A 
BRANCH  16  20
ATOM     20  O   UNL     1       7.725   6.403  16.581  0.00  0.00    +0.000 OA
ATOM     21  C   UNL     1       7.498   7.362  17.612  0.00  0.00    +0.000 C 
ENDBRANCH  16  20
BRANCH  17  22
ATOM     22  O   UNL     1       7.160   5.904  14.064  0.00  0.00    +0.000 OA
ATOM     23  C   UNL     1       8.132   5.164  13.337  0.00  0.00    +0.000 C 
ENDBRANCH  17  22
BRANCH  18  24
ATOM     24  O   UNL     1       5.026   4.126  13.383  0.00  0.00    +0.000 OA
ATOM     25  C   UNL     1       5.675   3.093  12.653  0.00  0.00    +0.000 C 
ENDBRANCH  18  24
ENDBRANCH   2  14
BRANCH   5  26
ATOM     26  C   UNL     1       1.504   3.264  20.853  0.00  0.00    +0.000 C 
ATOM     27  O   UNL     1       1.666   2.857  22.001  0.00  0.00    +0.000 OA
ENDBRANCH   5  26
TORSDOF 7
ENDMDL
MODEL 8
REMARK VINA RESULT:      -7.0      0.988      2.658
REMARK  Name = 
REMARK  11 active torsions:
REMARK  status: ('A' for Active; 'I' for Inactive)
REMARK    1  A    between atoms: C_1  and  O_2
REMARK    2  A    between atoms: O_2  and  C_3
REMARK    3  A    between atoms: C_6  and  C_7
REMARK    4  A    between atoms: C_8  and  C_9
REMARK    5  A    between atoms: C_11  and  O_12
REMARK    6  A    between atoms: O_12  and  C_13
REMARK    7  A    between atoms: C_14  and  O_15
REMARK    8  A    between atoms: O_15  and  C_16
REMARK    9  A    between atoms: C_17  and  O_18
REMARK   10  A    between atoms: O_18  and  C_19
REMARK   11  A    between atoms: C_23  and  C_24
REMARK                            x       y       z     vdW  Elec       q    Type
REMARK                         _______ _______ _______ _____ _____    ______ ____
ROOT
ATOM      1  C   UNL     1       3.883   3.824  19.840  0.00  0.00    +0.000 A 
ATOM      2  C   UNL     1       2.799   4.605  20.393  0.00  0.00    +0.000 A 
ATOM      3  C   UNL     1       2.257   3.837  21.401  0.00  0.00    +0.000 A 
ATOM      4  O   UNL     1       2.934   2.675  21.539  0.00  0.00    +0.000 OA
ATOM      5  C   UNL     1       3.919   2.648  20.592  0.00  0.00    +0.000 A 
ENDROOT
BRANCH   1   9
ATOM      6  C   UNL     1       6.484   4.902  16.610  0.00  0.00    +0.000 A 
ATOM      7  C   UNL     1       6.814   5.244  17.919  0.00  0.00    +0.000 A 
ATOM      8  C   UNL     1       5.974   4.890  18.983  0.00  0.00    +0.000 A 
ATOM      9  C   UNL     1       4.807   4.145  18.757  0.00  0.00    +0.000 A 
ATOM     10  C   UNL     1       4.503   3.784  17.437  0.00  0.00    +0.000 A 
ATOM     11  C   UNL     1       5.312   4.191  16.368  0.00  0.00    +0.000 A 
BRANCH   6  13
ATOM     12  C   UNL     1       7.086   4.877  14.331  0.00  0.00    +0.000 C 
ATOM     13  O   UNL     1       7.350   5.345  15.649  0.00  0.00    +0.000 OA
ENDBRANCH   6  13
ENDBRANCH   1   9
BRANCH   2  14
ATOM     14  C   UNL     1       2.279   5.929  20.052  0.00  0.00    +0.000 A 
ATOM     15  C   UNL     1       2.695   6.582  18.890  0.00  0.00    +0.000 A 
ATOM     16  C   UNL     1       2.269   7.886  18.608  0.00  0.00    +0.000 A 
ATOM     17  C   UNL     1       1.475   8.589  19.540  0.00  0.00    +0.000 A 
ATOM     18  C   UNL     1       1.051   7.937  20.713  0.00  0.00    +0.000 A 
ATOM     19  C   UNL     1       1.407   6.598  20.921  0.00  0.00    +0.000 A 
BRANCH  16  20
ATOM     20  O   UNL     1       2.633   8.555  17.461  0.00  0.00    +0.000 OA
ATOM     21  C   UNL     1       3.768   8.033  16.774  0.00  0.00    +0.000 C 
ENDBRANCH  16  20
BRANCH  17  22
ATOM     22  O   UNL     1       1.226   9.905  19.222  0.00  0.00    +0.000 OA
ATOM     23  C   UNL     1      -0.049  10.213  18.672  0.00  0.00    +0.000 C 
ENDBRANCH  17  22
BRANCH  18  24
ATOM     24  O   UNL     1       0.404   8.676  21.670  0.00  0.00    +0.000 OA
ATOM     25  C   UNL     1       1.197   9.392  22.608  0.00  0.00    +0.000 C 
ENDBRANCH  18  24
ENDBRANCH   2  14
BRANCH   5  26
ATOM     26  C   UNL     1       4.726   1.451  20.573  0.00  0.00    +0.000 C 
ATOM     27  O   UNL     1       5.609   1.144  21.369  0.00  0.00    +0.000 OA
ENDBRANCH   5  26
TORSDOF 7
ENDMDL
MODEL 9
REMARK VINA RESULT:      -7.0      0.426      2.312
REMARK  Name = 
REMARK  11 active torsions:
REMARK  status: ('A' for Active; 'I' for Inactive)
REMARK    1  A    between atoms: C_1  and  O_2
REMARK    2  A    between atoms: O_2  and  C_3
REMARK    3  A    between atoms: C_6  and  C_7
REMARK    4  A    between atoms: C_8  and  C_9
REMARK    5  A    between atoms: C_11  and  O_12
REMARK    6  A    between atoms: O_12  and  C_13
REMARK    7  A    between atoms: C_14  and  O_15
REMARK    8  A    between atoms: O_15  and  C_16
REMARK    9  A    between atoms: C_17  and  O_18
REMARK   10  A    between atoms: O_18  and  C_19
REMARK   11  A    between atoms: C_23  and  C_24
REMARK                            x       y       z     vdW  Elec       q    Type
REMARK                         _______ _______ _______ _____ _____    ______ ____
ROOT
ATOM      1  C   UNL     1       3.592   4.494  19.540  0.00  0.00    +0.000 A 
ATOM      2  C   UNL     1       2.532   5.214  20.209  0.00  0.00    +0.000 A 
ATOM      3  C   UNL     1       1.993   4.333  21.122  0.00  0.00    +0.000 A 
ATOM      4  O   UNL     1       2.652   3.152  21.097  0.00  0.00    +0.000 OA
ATOM      5  C   UNL     1       3.620   3.231  20.135  0.00  0.00    +0.000 A 
ENDROOT
BRANCH   1   9
ATOM      6  C   UNL     1       6.368   5.648  16.487  0.00  0.00    +0.000 A 
ATOM      7  C   UNL     1       5.143   5.082  16.143  0.00  0.00    +0.000 A 
ATOM      8  C   UNL     1       4.226   4.708  17.132  0.00  0.00    +0.000 A 
ATOM      9  C   UNL     1       4.502   4.936  18.489  0.00  0.00    +0.000 A 
ATOM     10  C   UNL     1       5.727   5.533  18.818  0.00  0.00    +0.000 A 
ATOM     11  C   UNL     1       6.668   5.851  17.831  0.00  0.00    +0.000 A 
BRANCH   6  13
ATOM     12  C   UNL     1       7.150   5.002  14.359  0.00  0.00    +0.000 C 
ATOM     13  O   UNL     1       7.204   5.925  15.442  0.00  0.00    +0.000 OA
ENDBRANCH   6  13
ENDBRANCH   1   9
BRANCH   2  14
ATOM     14  C   UNL     1       2.029   6.579  20.050  0.00  0.00    +0.000 A 
ATOM     15  C   UNL     1       2.182   7.259  18.840  0.00  0.00    +0.000 A 
ATOM     16  C   UNL     1       1.784   8.596  18.713  0.00  0.00    +0.000 A 
ATOM     17  C   UNL     1       1.296   9.299  19.836  0.00  0.00    +0.000 A 
ATOM     18  C   UNL     1       1.138   8.620  21.059  0.00  0.00    +0.000 A 
ATOM     19  C   UNL     1       1.448   7.255  21.130  0.00  0.00    +0.000 A 
BRANCH  16  20
ATOM     20  O   UNL     1       1.892   9.294  17.532  0.00  0.00    +0.000 OA
ATOM     21  C   UNL     1       2.762  10.423  17.558  0.00  0.00    +0.000 C 
ENDBRANCH  16  20
BRANCH  17  22
ATOM     22  O   UNL     1       1.061  10.640  19.630  0.00  0.00    +0.000 OA
ATOM     23  C   UNL     1      -0.292  11.047  19.466  0.00  0.00    +0.000 C 
ENDBRANCH  17  22
BRANCH  18  24
ATOM     24  O   UNL     1       0.801   9.350  22.169  0.00  0.00    +0.000 OA
ATOM     25  C   UNL     1      -0.519   9.213  22.679  0.00  0.00    +0.000 C 
ENDBRANCH  18  24
ENDBRANCH   2  14
BRANCH   5  26
ATOM     26  C   UNL     1       4.404   2.034  19.948  0.00  0.00    +0.000 C 
ATOM     27  O   UNL     1       5.250   1.578  20.714  0.00  0.00    +0.000 OA
ENDBRANCH   5  26
TORSDOF 7
ENDMDL
