MODEL 1
REMARK VINA RESULT:      -8.0      0.000      0.000
REMARK  Name = 
REMARK  5 active torsions:
REMARK  status: ('A' for Active; 'I' for Inactive)
REMARK    1  A    between atoms: C_2  and  C_3
REMARK    2  A    between atoms: C_3  and  N_4
REMARK    3  A    between atoms: C_9  and  N_10
REMARK    4  A    between atoms: N_21  and  S_22
REMARK    5  A    between atoms: S_22  and  C_25
REMARK                            x       y       z     vdW  Elec       q    Type
REMARK                         _______ _______ _______ _____ _____    ______ ____
ROOT
ATOM      1  O   UNL     1      -0.846  10.162  18.040  0.00  0.00    +0.000 OA
ATOM      2  C   UNL     1      -0.313  10.615  19.057  0.00  0.00    +0.000 C 
ATOM      3  N   UNL     1      -1.016  11.377  19.973  0.00  0.00    +0.000 N 
ATOM      4  C   UNL     1      -0.535  11.782  21.304  0.00  0.00    +0.000 C 
ATOM      5  C   UNL     1      -0.942  13.229  21.637  0.00  0.00    +0.000 C 
ATOM      6  N   UNL     1      -2.408  13.459  21.441  0.00  0.00    +0.000 NA
ATOM      7  C   UNL     1      -2.801  13.091  20.040  0.00  0.00    +0.000 C 
ATOM      8  C   UNL     1      -2.443  11.633  19.725  0.00  0.00    +0.000 C 
ENDROOT
BRANCH   6   9
ATOM      9  S   UNL     1      -3.454  12.848  22.648  0.00  0.00    +0.000 S 
ATOM     10  O   UNL     1      -4.667  12.399  22.001  0.00  0.00    +0.000 OA
ATOM     11  O   UNL     1      -2.697  11.949  23.488  0.00  0.00    +0.000 OA
BRANCH   9  12
ATOM     12  C   UNL     1      -3.866  14.281  23.600  0.00  0.00    +0.000 A 
ATOM     13  C   UNL     1      -2.908  14.814  24.466  0.00  0.00    +0.000 A 
ATOM     14  C   UNL     1      -3.200  15.978  25.176  0.00  0.00    +0.000 A 
ATOM     15  C   UNL     1      -4.438  16.602  25.016  0.00  0.00    +0.000 A 
ATOM     16  C   UNL     1      -5.393  16.064  24.150  0.00  0.00    +0.000 A 
ATOM     17  C   UNL     1      -5.111  14.897  23.439  0.00  0.00    +0.000 A 
ENDBRANCH   9  12
ENDBRANCH   6   9
BRANCH   2  18
ATOM     18  C   UNL     1       1.176  10.357  19.287  0.00  0.00    +0.000 C 
BRANCH  18  19
ATOM     19  N   UNL     1       1.503   8.943  19.443  0.00  0.00    +0.000 N 
ATOM     20  C   UNL     1       1.331   8.320  20.657  0.00  0.00    +0.000 A 
ATOM     21  N   UNL     1       1.599   7.081  20.892  0.00  0.00    +0.000 NA
ATOM     22  C   UNL     1       2.202   6.337  19.872  0.00  0.00    +0.000 A 
ATOM     23  C   UNL     1       2.560   5.015  20.138  0.00  0.00    +0.000 A 
ATOM     24  C   UNL     1       3.266   4.278  19.178  0.00  0.00    +0.000 A 
ATOM     25  C   UNL     1       3.601   4.848  17.940  0.00  0.00    +0.000 A 
ATOM     26  C   UNL     1       3.210   6.158  17.661  0.00  0.00    +0.000 A 
ATOM     27  C   UNL     1       2.513   6.891  18.629  0.00  0.00    +0.000 A 
ATOM     28  C   UNL     1       2.103   8.285  18.379  0.00  0.00    +0.000 A 
ATOM     29  O   UNL     1       2.288   8.786  17.274  0.00  0.00    +0.000 OA
BRANCH  24  30
ATOM     30  N   UNL     1       3.677   2.902  19.482  0.00  0.00    +0.000 N 
ATOM     31  O   UNL     1       2.843   2.002  19.317  0.00  0.00    +0.000 OA
ATOM     32  O   UNL     1       4.835   2.725  19.888  0.00  0.00    +0.000 OA
ENDBRANCH  24  30
ENDBRANCH  18  19
ENDBRANCH   2  18
TORSDOF 5
ENDMDL
MODEL 2
REMARK VINA RESULT:      -7.8      1.330      1.685
REMARK  Name = 
REMARK  5 active torsions:
REMARK  status: ('A' for Active; 'I' for Inactive)
REMARK    1  A    between atoms: C_2  and  C_3
REMARK    2  A    between atoms: C_3  and  N_4
REMARK    3  A    between atoms: C_9  and  N_10
REMARK    4  A    between atoms: N_21  and  S_22
REMARK    5  A    between atoms: S_22  and  C_25
REMARK                            x       y       z     vdW  Elec       q    Type
REMARK                         _______ _______ _______ _____ _____    ______ ____
ROOT
ATOM      1  O   UNL     1      -0.945  10.011  18.467  0.00  0.00    +0.000 OA
ATOM      2  C   UNL     1      -0.027  10.519  19.118  0.00  0.00    +0.000 C 
ATOM      3  N   UNL     1      -0.262  11.492  20.073  0.00  0.00    +0.000 N 
ATOM      4  C   UNL     1       0.724  12.004  21.040  0.00  0.00    +0.000 C 
ATOM      5  C   UNL     1       0.594  13.525  21.230  0.00  0.00    +0.000 C 
ATOM      6  N   UNL     1      -0.812  13.934  21.544  0.00  0.00    +0.000 NA
ATOM      7  C   UNL     1      -1.741  13.437  20.476  0.00  0.00    +0.000 C 
ATOM      8  C   UNL     1      -1.649  11.913  20.321  0.00  0.00    +0.000 C 
ENDROOT
BRANCH   6   9
ATOM      9  S   UNL     1      -1.360  13.650  23.139  0.00  0.00    +0.000 S 
ATOM     10  O   UNL     1      -1.182  12.245  23.429  0.00  0.00    +0.000 OA
ATOM     11  O   UNL     1      -0.779  14.654  24.001  0.00  0.00    +0.000 OA
BRANCH   9  12
ATOM     12  C   UNL     1      -3.101  13.948  23.036  0.00  0.00    +0.000 A 
ATOM     13  C   UNL     1      -3.977  12.866  23.143  0.00  0.00    +0.000 A 
ATOM     14  C   UNL     1      -5.352  13.095  23.124  0.00  0.00    +0.000 A 
ATOM     15  C   UNL     1      -5.843  14.396  23.003  0.00  0.00    +0.000 A 
ATOM     16  C   UNL     1      -4.961  15.475  22.894  0.00  0.00    +0.000 A 
ATOM     17  C   UNL     1      -3.584  15.254  22.909  0.00  0.00    +0.000 A 
ENDBRANCH   9  12
ENDBRANCH   6   9
BRANCH   2  18
ATOM     18  C   UNL     1       1.410  10.085  18.833  0.00  0.00    +0.000 C 
BRANCH  18  19
ATOM     19  N   UNL     1       1.679   8.695  19.190  0.00  0.00    +0.000 N 
ATOM     20  C   UNL     1       1.382   8.232  20.451  0.00  0.00    +0.000 A 
ATOM     21  N   UNL     1       1.591   7.028  20.860  0.00  0.00    +0.000 NA
ATOM     22  C   UNL     1       2.259   6.151  19.999  0.00  0.00    +0.000 A 
ATOM     23  C   UNL     1       2.551   4.866  20.457  0.00  0.00    +0.000 A 
ATOM     24  C   UNL     1       3.317   4.001  19.663  0.00  0.00    +0.000 A 
ATOM     25  C   UNL     1       3.777   4.405  18.400  0.00  0.00    +0.000 A 
ATOM     26  C   UNL     1       3.452   5.677  17.927  0.00  0.00    +0.000 A 
ATOM     27  C   UNL     1       2.694   6.539  18.731  0.00  0.00    +0.000 A 
ATOM     28  C   UNL     1       2.350   7.898  18.274  0.00  0.00    +0.000 A 
ATOM     29  O   UNL     1       2.647   8.254  17.138  0.00  0.00    +0.000 OA
BRANCH  24  30
ATOM     30  N   UNL     1       3.657   2.667  20.170  0.00  0.00    +0.000 N 
ATOM     31  O   UNL     1       4.117   1.845  19.367  0.00  0.00    +0.000 OA
ATOM     32  O   UNL     1       3.462   2.443  21.374  0.00  0.00    +0.000 OA
ENDBRANCH  24  30
ENDBRANCH  18  19
ENDBRANCH   2  18
TORSDOF 5
ENDMDL
MODEL 3
REMARK VINA RESULT:      -7.6      1.116      1.535
REMARK  Name = 
REMARK  5 active torsions:
REMARK  status: ('A' for Active; 'I' for Inactive)
REMARK    1  A    between atoms: C_2  and  C_3
REMARK    2  A    between atoms: C_3  and  N_4
REMARK    3  A    between atoms: C_9  and  N_10
REMARK    4  A    between atoms: N_21  and  S_22
REMARK    5  A    between atoms: S_22  and  C_25
REMARK                            x       y       z     vdW  Elec       q    Type
REMARK                         _______ _______ _______ _____ _____    ______ ____
ROOT
ATOM      1  O   UNL     1      -0.416   9.745  17.783  0.00  0.00    +0.000 OA
ATOM      2  C   UNL     1       0.315  10.219  18.657  0.00  0.00    +0.000 C 
ATOM      3  N   UNL     1      -0.169  11.082  19.625  0.00  0.00    +0.000 N 
ATOM      4  C   UNL     1       0.563  11.530  20.821  0.00  0.00    +0.000 C 
ATOM      5  C   UNL     1       0.308  13.019  21.116  0.00  0.00    +0.000 C 
ATOM      6  N   UNL     1      -1.153  13.341  21.160  0.00  0.00    +0.000 NA
ATOM      7  C   UNL     1      -1.810  12.919  19.877  0.00  0.00    +0.000 C 
ATOM      8  C   UNL     1      -1.600  11.423  19.609  0.00  0.00    +0.000 C 
ENDROOT
BRANCH   6   9
ATOM      9  S   UNL     1      -2.004  12.878  22.569  0.00  0.00    +0.000 S 
ATOM     10  O   UNL     1      -3.310  12.405  22.167  0.00  0.00    +0.000 OA
ATOM     11  O   UNL     1      -1.137  12.041  23.365  0.00  0.00    +0.000 OA
BRANCH   9  12
ATOM     12  C   UNL     1      -2.241  14.406  23.428  0.00  0.00    +0.000 A 
ATOM     13  C   UNL     1      -3.306  15.231  23.056  0.00  0.00    +0.000 A 
ATOM     14  C   UNL     1      -3.539  16.408  23.765  0.00  0.00    +0.000 A 
ATOM     15  C   UNL     1      -2.716  16.753  24.838  0.00  0.00    +0.000 A 
ATOM     16  C   UNL     1      -1.652  15.925  25.206  0.00  0.00    +0.000 A 
ATOM     17  C   UNL     1      -1.409  14.747  24.499  0.00  0.00    +0.000 A 
ENDBRANCH   9  12
ENDBRANCH   6   9
BRANCH   2  18
ATOM     18  C   UNL     1       1.802   9.869  18.646  0.00  0.00    +0.000 C 
BRANCH  18  19
ATOM     19  N   UNL     1       2.069   8.453  18.878  0.00  0.00    +0.000 N 
ATOM     20  C   UNL     1       1.730   7.870  20.076  0.00  0.00    +0.000 A 
ATOM     21  N   UNL     1       1.933   6.633  20.376  0.00  0.00    +0.000 NA
ATOM     22  C   UNL     1       2.637   5.845  19.459  0.00  0.00    +0.000 A 
ATOM     23  C   UNL     1       2.923   4.523  19.801  0.00  0.00    +0.000 A 
ATOM     24  C   UNL     1       3.723   3.742  18.957  0.00  0.00    +0.000 A 
ATOM     25  C   UNL     1       4.225   4.267  17.756  0.00  0.00    +0.000 A 
ATOM     26  C   UNL     1       3.908   5.578  17.396  0.00  0.00    +0.000 A 
ATOM     27  C   UNL     1       3.115   6.355  18.250  0.00  0.00    +0.000 A 
ATOM     28  C   UNL     1       2.778   7.751  17.914  0.00  0.00    +0.000 A 
ATOM     29  O   UNL     1       3.113   8.215  16.829  0.00  0.00    +0.000 OA
BRANCH  24  30
ATOM     30  N   UNL     1       4.054   2.366  19.345  0.00  0.00    +0.000 N 
ATOM     31  O   UNL     1       4.881   2.207  20.252  0.00  0.00    +0.000 OA
ATOM     32  O   UNL     1       3.486   1.445  18.739  0.00  0.00    +0.000 OA
ENDBRANCH  24  30
ENDBRANCH  18  19
ENDBRANCH   2  18
TORSDOF 5
ENDMDL
MODEL 4
REMARK VINA RESULT:      -7.6      1.487      1.943
REMARK  Name = 
REMARK  5 active torsions:
REMARK  status: ('A' for Active; 'I' for Inactive)
REMARK    1  A    between atoms: C_2  and  C_3
REMARK    2  A    between atoms: C_3  and  N_4
REMARK    3  A    between atoms: C_9  and  N_10
REMARK    4  A    between atoms: N_21  and  S_22
REMARK    5  A    between atoms: S_22  and  C_25
REMARK                            x       y       z     vdW  Elec       q    Type
REMARK                         _______ _______ _______ _____ _____    ______ ____
ROOT
ATOM      1  O   UNL     1      -1.560  11.023  19.028  0.00  0.00    +0.000 OA
ATOM      2  C   UNL     1      -0.911  11.479  19.974  0.00  0.00    +0.000 C 
ATOM      3  N   UNL     1      -1.516  12.177  21.005  0.00  0.00    +0.000 N 
ATOM      4  C   UNL     1      -0.873  12.574  22.269  0.00  0.00    +0.000 C 
ATOM      5  C   UNL     1      -1.302  13.986  22.703  0.00  0.00    +0.000 C 
ATOM      6  N   UNL     1      -2.791  14.140  22.722  0.00  0.00    +0.000 NA
ATOM      7  C   UNL     1      -3.360  13.787  21.379  0.00  0.00    +0.000 C 
ATOM      8  C   UNL     1      -2.975  12.360  20.968  0.00  0.00    +0.000 C 
ENDROOT
BRANCH   6   9
ATOM      9  S   UNL     1      -3.623  13.441  24.043  0.00  0.00    +0.000 S 
ATOM     10  O   UNL     1      -3.631  12.006  23.856  0.00  0.00    +0.000 OA
ATOM     11  O   UNL     1      -3.100  14.016  25.261  0.00  0.00    +0.000 OA
BRANCH   9  12
ATOM     12  C   UNL     1      -5.285  14.007  23.831  0.00  0.00    +0.000 A 
ATOM     13  C   UNL     1      -6.324  13.074  23.858  0.00  0.00    +0.000 A 
ATOM     14  C   UNL     1      -7.642  13.515  23.753  0.00  0.00    +0.000 A 
ATOM     15  C   UNL     1      -7.915  14.878  23.625  0.00  0.00    +0.000 A 
ATOM     16  C   UNL     1      -6.872  15.807  23.597  0.00  0.00    +0.000 A 
ATOM     17  C   UNL     1      -5.550  15.374  23.698  0.00  0.00    +0.000 A 
ENDBRANCH   9  12
ENDBRANCH   6   9
BRANCH   2  18
ATOM     18  C   UNL     1       0.606  11.298  19.986  0.00  0.00    +0.000 C 
BRANCH  18  19
ATOM     19  N   UNL     1       1.025   9.901  19.956  0.00  0.00    +0.000 N 
ATOM     20  C   UNL     1       0.896   9.113  21.076  0.00  0.00    +0.000 A 
ATOM     21  N   UNL     1       1.245   7.874  21.148  0.00  0.00    +0.000 NA
ATOM     22  C   UNL     1       1.893   7.312  20.043  0.00  0.00    +0.000 A 
ATOM     23  C   UNL     1       2.337   5.992  20.135  0.00  0.00    +0.000 A 
ATOM     24  C   UNL     1       3.089   5.436  19.091  0.00  0.00    +0.000 A 
ATOM     25  C   UNL     1       3.384   6.184  17.942  0.00  0.00    +0.000 A 
ATOM     26  C   UNL     1       2.908   7.492  17.835  0.00  0.00    +0.000 A 
ATOM     27  C   UNL     1       2.165   8.044  18.886  0.00  0.00    +0.000 A 
ATOM     28  C   UNL     1       1.664   9.429  18.818  0.00  0.00    +0.000 A 
ATOM     29  O   UNL     1       1.815  10.083  17.791  0.00  0.00    +0.000 OA
BRANCH  24  30
ATOM     30  N   UNL     1       3.589   4.062  19.214  0.00  0.00    +0.000 N 
ATOM     31  O   UNL     1       3.044   3.322  20.044  0.00  0.00    +0.000 OA
ATOM     32  O   UNL     1       4.529   3.725  18.479  0.00  0.00    +0.000 OA
ENDBRANCH  24  30
ENDBRANCH  18  19
ENDBRANCH   2  18
TORSDOF 5
ENDMDL
MODEL 5
REMARK VINA RESULT:      -7.4      1.392      1.857
REMARK  Name = 
REMARK  5 active torsions:
REMARK  status: ('A' for Active; 'I' for Inactive)
REMARK    1  A    between atoms: C_2  and  C_3
REMARK    2  A    between atoms: C_3  and  N_4
REMARK    3  A    between atoms: C_9  and  N_10
REMARK    4  A    between atoms: N_21  and  S_22
REMARK    5  A    between atoms: S_22  and  C_25
REMARK                            x       y       z     vdW  Elec       q    Type
REMARK                         _______ _______ _______ _____ _____    ______ ____
ROOT
ATOM      1  O   UNL     1      -1.437  11.298  18.532  0.00  0.00    +0.000 OA
ATOM      2  C   UNL     1      -0.787  11.634  19.526  0.00  0.00    +0.000 C 
ATOM      3  N   UNL     1      -1.380  12.253  20.611  0.00  0.00    +0.000 N 
ATOM      4  C   UNL     1      -0.743  12.499  21.916  0.00  0.00    +0.000 C 
ATOM      5  C   UNL     1      -1.123  13.880  22.480  0.00  0.00    +0.000 C 
ATOM      6  N   UNL     1      -2.605  14.092  22.495  0.00  0.00    +0.000 NA
ATOM      7  C   UNL     1      -3.165  13.893  21.117  0.00  0.00    +0.000 C 
ATOM      8  C   UNL     1      -2.830  12.498  20.574  0.00  0.00    +0.000 C 
ENDROOT
BRANCH   6   9
ATOM      9  S   UNL     1      -3.486  13.303  23.731  0.00  0.00    +0.000 S 
ATOM     10  O   UNL     1      -3.451  11.881  23.465  0.00  0.00    +0.000 OA
ATOM     11  O   UNL     1      -3.038  13.819  25.003  0.00  0.00    +0.000 OA
BRANCH   9  12
ATOM     12  C   UNL     1      -5.148  13.846  23.465  0.00  0.00    +0.000 A 
ATOM     13  C   UNL     1      -5.460  15.191  23.683  0.00  0.00    +0.000 A 
ATOM     14  C   UNL     1      -6.752  15.644  23.418  0.00  0.00    +0.000 A 
ATOM     15  C   UNL     1      -7.718  14.759  22.936  0.00  0.00    +0.000 A 
ATOM     16  C   UNL     1      -7.400  13.416  22.721  0.00  0.00    +0.000 A 
ATOM     17  C   UNL     1      -6.111  12.953  22.987  0.00  0.00    +0.000 A 
ENDBRANCH   9  12
ENDBRANCH   6   9
BRANCH   2  18
ATOM     18  C   UNL     1       0.722  11.390  19.539  0.00  0.00    +0.000 C 
BRANCH  18  19
ATOM     19  N   UNL     1       1.083   9.979  19.622  0.00  0.00    +0.000 N 
ATOM     20  C   UNL     1       0.850   9.270  20.778  0.00  0.00    +0.000 A 
ATOM     21  N   UNL     1       1.141   8.026  20.949  0.00  0.00    +0.000 NA
ATOM     22  C   UNL     1       1.833   7.370  19.926  0.00  0.00    +0.000 A 
ATOM     23  C   UNL     1       2.214   6.042  20.128  0.00  0.00    +0.000 A 
ATOM     24  C   UNL     1       3.006   5.392  19.172  0.00  0.00    +0.000 A 
ATOM     25  C   UNL     1       3.405   6.053  18.000  0.00  0.00    +0.000 A 
ATOM     26  C   UNL     1       2.992   7.369  17.782  0.00  0.00    +0.000 A 
ATOM     27  C   UNL     1       2.209   8.015  18.746  0.00  0.00    +0.000 A 
ATOM     28  C   UNL     1       1.772   9.411  18.561  0.00  0.00    +0.000 A 
ATOM     29  O   UNL     1       2.015   9.991  17.507  0.00  0.00    +0.000 OA
BRANCH  24  30
ATOM     30  N   UNL     1       3.438   4.010  19.412  0.00  0.00    +0.000 N 
ATOM     31  O   UNL     1       4.164   3.478  18.562  0.00  0.00    +0.000 OA
ATOM     32  O   UNL     1       3.048   3.459  20.452  0.00  0.00    +0.000 OA
ENDBRANCH  24  30
ENDBRANCH  18  19
ENDBRANCH   2  18
TORSDOF 5
ENDMDL
MODEL 6
REMARK VINA RESULT:      -7.4      1.189      1.883
REMARK  Name = 
REMARK  5 active torsions:
REMARK  status: ('A' for Active; 'I' for Inactive)
REMARK    1  A    between atoms: C_2  and  C_3
REMARK    2  A    between atoms: C_3  and  N_4
REMARK    3  A    between atoms: C_9  and  N_10
REMARK    4  A    between atoms: N_21  and  S_22
REMARK    5  A    between atoms: S_22  and  C_25
REMARK                            x       y       z     vdW  Elec       q    Type
REMARK                         _______ _______ _______ _____ _____    ______ ____
ROOT
ATOM      1  O   UNL     1      -0.525   9.725  17.787  0.00  0.00    +0.000 OA
ATOM      2  C   UNL     1       0.098  10.319  18.672  0.00  0.00    +0.000 C 
ATOM      3  N   UNL     1      -0.541  11.108  19.611  0.00  0.00    +0.000 N 
ATOM      4  C   UNL     1       0.078  11.681  20.818  0.00  0.00    +0.000 C 
ATOM      5  C   UNL     1      -0.413  13.115  21.080  0.00  0.00    +0.000 C 
ATOM      6  N   UNL     1      -1.908  13.206  21.081  0.00  0.00    +0.000 NA
ATOM      7  C   UNL     1      -2.454  12.670  19.790  0.00  0.00    +0.000 C 
ATOM      8  C   UNL     1      -2.007  11.222  19.553  0.00  0.00    +0.000 C 
ENDROOT
BRANCH   6   9
ATOM      9  S   UNL     1      -2.715  12.635  22.476  0.00  0.00    +0.000 S 
ATOM     10  O   UNL     1      -4.088  12.359  22.115  0.00  0.00    +0.000 OA
ATOM     11  O   UNL     1      -1.898  11.609  23.082  0.00  0.00    +0.000 OA
BRANCH   9  12
ATOM     12  C   UNL     1      -2.728  14.040  23.550  0.00  0.00    +0.000 A 
ATOM     13  C   UNL     1      -3.942  14.682  23.807  0.00  0.00    +0.000 A 
ATOM     14  C   UNL     1      -3.974  15.753  24.699  0.00  0.00    +0.000 A 
ATOM     15  C   UNL     1      -2.802  16.173  25.329  0.00  0.00    +0.000 A 
ATOM     16  C   UNL     1      -1.590  15.528  25.068  0.00  0.00    +0.000 A 
ATOM     17  C   UNL     1      -1.548  14.459  24.173  0.00  0.00    +0.000 A 
ENDBRANCH   9  12
ENDBRANCH   6   9
BRANCH   2  18
ATOM     18  C   UNL     1       1.622  10.206  18.705  0.00  0.00    +0.000 C 
BRANCH  18  19
ATOM     19  N   UNL     1       2.103   8.828  18.703  0.00  0.00    +0.000 N 
ATOM     20  C   UNL     1       2.711   8.306  17.585  0.00  0.00    +0.000 A 
ATOM     21  N   UNL     1       3.159   7.102  17.486  0.00  0.00    +0.000 NA
ATOM     22  C   UNL     1       2.926   6.227  18.553  0.00  0.00    +0.000 A 
ATOM     23  C   UNL     1       3.346   4.902  18.429  0.00  0.00    +0.000 A 
ATOM     24  C   UNL     1       3.028   3.975  19.430  0.00  0.00    +0.000 A 
ATOM     25  C   UNL     1       2.308   4.366  20.569  0.00  0.00    +0.000 A 
ATOM     26  C   UNL     1       1.921   5.700  20.709  0.00  0.00    +0.000 A 
ATOM     27  C   UNL     1       2.234   6.619  19.700  0.00  0.00    +0.000 A 
ATOM     28  C   UNL     1       1.822   8.031  19.803  0.00  0.00    +0.000 A 
ATOM     29  O   UNL     1       1.279   8.435  20.827  0.00  0.00    +0.000 OA
BRANCH  24  30
ATOM     30  N   UNL     1       3.436   2.574  19.272  0.00  0.00    +0.000 N 
ATOM     31  O   UNL     1       2.983   1.947  18.306  0.00  0.00    +0.000 OA
ATOM     32  O   UNL     1       4.210   2.102  20.118  0.00  0.00    +0.000 OA
ENDBRANCH  24  30
ENDBRANCH  18  19
ENDBRANCH   2  18
TORSDOF 5
ENDMDL
MODEL 7
REMARK VINA RESULT:      -7.4      3.713     10.169
REMARK  Name = 
REMARK  5 active torsions:
REMARK  status: ('A' for Active; 'I' for Inactive)
REMARK    1  A    between atoms: C_2  and  C_3
REMARK    2  A    between atoms: C_3  and  N_4
REMARK    3  A    between atoms: C_9  and  N_10
REMARK    4  A    between atoms: N_21  and  S_22
REMARK    5  A    between atoms: S_22  and  C_25
REMARK                            x       y       z     vdW  Elec       q    Type
REMARK                         _______ _______ _______ _____ _____    ______ ____
ROOT
ATOM      1  O   UNL     1       0.794   9.339  21.084  0.00  0.00    +0.000 OA
ATOM      2  C   UNL     1       1.139   9.330  19.899  0.00  0.00    +0.000 C 
ATOM      3  N   UNL     1       1.727   8.221  19.318  0.00  0.00    +0.000 N 
ATOM      4  C   UNL     1       1.979   8.036  17.879  0.00  0.00    +0.000 C 
ATOM      5  C   UNL     1       3.340   7.365  17.624  0.00  0.00    +0.000 C 
ATOM      6  N   UNL     1       3.506   6.109  18.422  0.00  0.00    +0.000 NA
ATOM      7  C   UNL     1       3.306   6.398  19.881  0.00  0.00    +0.000 C 
ATOM      8  C   UNL     1       1.927   7.019  20.142  0.00  0.00    +0.000 C 
ENDROOT
BRANCH   6   9
ATOM      9  S   UNL     1       2.676   4.723  17.860  0.00  0.00    +0.000 S 
ATOM     10  O   UNL     1       1.351   5.132  17.449  0.00  0.00    +0.000 OA
ATOM     11  O   UNL     1       3.542   4.021  16.941  0.00  0.00    +0.000 OA
BRANCH   9  12
ATOM     12  C   UNL     1       2.493   3.734  19.315  0.00  0.00    +0.000 A 
ATOM     13  C   UNL     1       3.622   3.112  19.853  0.00  0.00    +0.000 A 
ATOM     14  C   UNL     1       3.502   2.380  21.034  0.00  0.00    +0.000 A 
ATOM     15  C   UNL     1       2.263   2.277  21.669  0.00  0.00    +0.000 A 
ATOM     16  C   UNL     1       1.137   2.900  21.126  0.00  0.00    +0.000 A 
ATOM     17  C   UNL     1       1.248   3.631  19.943  0.00  0.00    +0.000 A 
ENDBRANCH   9  12
ENDBRANCH   6   9
BRANCH   2  18
ATOM     18  C   UNL     1       0.942  10.595  19.064  0.00  0.00    +0.000 C 
BRANCH  18  19
ATOM     19  N   UNL     1      -0.418  11.121  19.115  0.00  0.00    +0.000 N 
ATOM     20  C   UNL     1      -0.782  12.010  20.099  0.00  0.00    +0.000 A 
ATOM     21  N   UNL     1      -1.958  12.521  20.231  0.00  0.00    +0.000 NA
ATOM     22  C   UNL     1      -2.968  12.067  19.375  0.00  0.00    +0.000 A 
ATOM     23  C   UNL     1      -4.260  12.562  19.553  0.00  0.00    +0.000 A 
ATOM     24  C   UNL     1      -5.315  12.045  18.789  0.00  0.00    +0.000 A 
ATOM     25  C   UNL     1      -5.084  11.047  17.830  0.00  0.00    +0.000 A 
ATOM     26  C   UNL     1      -3.785  10.579  17.627  0.00  0.00    +0.000 A 
ATOM     27  C   UNL     1      -2.738  11.094  18.401  0.00  0.00    +0.000 A 
ATOM     28  C   UNL     1      -1.356  10.609  18.230  0.00  0.00    +0.000 A 
ATOM     29  O   UNL     1      -1.096   9.810  17.335  0.00  0.00    +0.000 OA
BRANCH  24  30
ATOM     30  N   UNL     1      -6.679  12.539  19.012  0.00  0.00    +0.000 N 
ATOM     31  O   UNL     1      -7.514  11.744  19.461  0.00  0.00    +0.000 OA
ATOM     32  O   UNL     1      -6.911  13.726  18.735  0.00  0.00    +0.000 OA
ENDBRANCH  24  30
ENDBRANCH  18  19
ENDBRANCH   2  18
TORSDOF 5
ENDMDL
MODEL 8
REMARK VINA RESULT:      -7.3      1.031      1.251
REMARK  Name = 
REMARK  5 active torsions:
REMARK  status: ('A' for Active; 'I' for Inactive)
REMARK    1  A    between atoms: C_2  and  C_3
REMARK    2  A    between atoms: C_3  and  N_4
REMARK    3  A    between atoms: C_9  and  N_10
REMARK    4  A    between atoms: N_21  and  S_22
REMARK    5  A    between atoms: S_22  and  C_25
REMARK                            x       y       z     vdW  Elec       q    Type
REMARK                         _______ _______ _______ _____ _____    ______ ____
ROOT
ATOM      1  O   UNL     1      -1.463  10.433  18.606  0.00  0.00    +0.000 OA
ATOM      2  C   UNL     1      -0.721  11.064  19.365  0.00  0.00    +0.000 C 
ATOM      3  N   UNL     1      -1.219  11.952  20.301  0.00  0.00    +0.000 N 
ATOM      4  C   UNL     1      -0.445  12.586  21.382  0.00  0.00    +0.000 C 
ATOM      5  C   UNL     1      -0.850  14.057  21.580  0.00  0.00    +0.000 C 
ATOM      6  N   UNL     1      -2.330  14.217  21.738  0.00  0.00    +0.000 NA
ATOM      7  C   UNL     1      -3.040  13.609  20.563  0.00  0.00    +0.000 C 
ATOM      8  C   UNL     1      -2.677  12.128  20.397  0.00  0.00    +0.000 C 
ENDROOT
BRANCH   6   9
ATOM      9  S   UNL     1      -2.995  13.792  23.256  0.00  0.00    +0.000 S 
ATOM     10  O   UNL     1      -4.434  13.747  23.116  0.00  0.00    +0.000 OA
ATOM     11  O   UNL     1      -2.273  12.646  23.759  0.00  0.00    +0.000 OA
BRANCH   9  12
ATOM     12  C   UNL     1      -2.610  15.183  24.278  0.00  0.00    +0.000 A 
ATOM     13  C   UNL     1      -1.467  15.134  25.080  0.00  0.00    +0.000 A 
ATOM     14  C   UNL     1      -1.120  16.247  25.844  0.00  0.00    +0.000 A 
ATOM     15  C   UNL     1      -1.909  17.398  25.801  0.00  0.00    +0.000 A 
ATOM     16  C   UNL     1      -3.052  17.441  24.998  0.00  0.00    +0.000 A 
ATOM     17  C   UNL     1      -3.409  16.330  24.234  0.00  0.00    +0.000 A 
ENDBRANCH   9  12
ENDBRANCH   6   9
BRANCH   2  18
ATOM     18  C   UNL     1       0.791  10.883  19.238  0.00  0.00    +0.000 C 
BRANCH  18  19
ATOM     19  N   UNL     1       1.230   9.503  19.422  0.00  0.00    +0.000 N 
ATOM     20  C   UNL     1       1.046   8.872  20.630  0.00  0.00    +0.000 A 
ATOM     21  N   UNL     1       1.406   7.661  20.889  0.00  0.00    +0.000 NA
ATOM     22  C   UNL     1       2.125   6.969  19.909  0.00  0.00    +0.000 A 
ATOM     23  C   UNL     1       2.580   5.683  20.204  0.00  0.00    +0.000 A 
ATOM     24  C   UNL     1       3.399   5.007  19.290  0.00  0.00    +0.000 A 
ATOM     25  C   UNL     1       3.751   5.600  18.067  0.00  0.00    +0.000 A 
ATOM     26  C   UNL     1       3.265   6.871  17.757  0.00  0.00    +0.000 A 
ATOM     27  C   UNL     1       2.455   7.544  18.681  0.00  0.00    +0.000 A 
ATOM     28  C   UNL     1       1.941   8.896  18.397  0.00  0.00    +0.000 A 
ATOM     29  O   UNL     1       2.143   9.408  17.301  0.00  0.00    +0.000 OA
BRANCH  24  30
ATOM     30  N   UNL     1       3.909   3.673  19.627  0.00  0.00    +0.000 N 
ATOM     31  O   UNL     1       3.095   2.828  20.024  0.00  0.00    +0.000 OA
ATOM     32  O   UNL     1       5.125   3.473  19.494  0.00  0.00    +0.000 OA
ENDBRANCH  24  30
ENDBRANCH  18  19
ENDBRANCH   2  18
TORSDOF 5
ENDMDL
MODEL 9
REMARK VINA RESULT:      -7.3      3.878      5.040
REMARK  Name = 
REMARK  5 active torsions:
REMARK  status: ('A' for Active; 'I' for Inactive)
REMARK    1  A    between atoms: C_2  and  C_3
REMARK    2  A    between atoms: C_3  and  N_4
REMARK    3  A    between atoms: C_9  and  N_10
REMARK    4  A    between atoms: N_21  and  S_22
REMARK    5  A    between atoms: S_22  and  C_25
REMARK                            x       y       z     vdW  Elec       q    Type
REMARK                         _______ _______ _______ _____ _____    ______ ____
ROOT
ATOM      1  O   UNL     1       0.666   9.924  21.930  0.00  0.00    +0.000 OA
ATOM      2  C   UNL     1       0.498  10.233  20.747  0.00  0.00    +0.000 C 
ATOM      3  N   UNL     1       0.556  11.547  20.319  0.00  0.00    +0.000 N 
ATOM      4  C   UNL     1       0.579  11.996  18.917  0.00  0.00    +0.000 C 
ATOM      5  C   UNL     1      -0.282  13.254  18.711  0.00  0.00    +0.000 C 
ATOM      6  N   UNL     1       0.064  14.337  19.685  0.00  0.00    +0.000 NA
ATOM      7  C   UNL     1      -0.055  13.820  21.089  0.00  0.00    +0.000 C 
ATOM      8  C   UNL     1       0.843  12.596  21.310  0.00  0.00    +0.000 C 
ENDROOT
BRANCH   6   9
ATOM      9  S   UNL     1       1.496  15.222  19.381  0.00  0.00    +0.000 S 
ATOM     10  O   UNL     1       1.957  15.769  20.637  0.00  0.00    +0.000 OA
ATOM     11  O   UNL     1       2.370  14.400  18.576  0.00  0.00    +0.000 OA
BRANCH   9  12
ATOM     12  C   UNL     1       0.940  16.577  18.390  0.00  0.00    +0.000 A 
ATOM     13  C   UNL     1       1.842  17.184  17.512  0.00  0.00    +0.000 A 
ATOM     14  C   UNL     1       1.400  18.214  16.682  0.00  0.00    +0.000 A 
ATOM     15  C   UNL     1       0.067  18.627  16.729  0.00  0.00    +0.000 A 
ATOM     16  C   UNL     1      -0.830  18.017  17.610  0.00  0.00    +0.000 A 
ATOM     17  C   UNL     1      -0.395  16.989  18.447  0.00  0.00    +0.000 A 
ENDBRANCH   9  12
ENDBRANCH   6   9
BRANCH   2  18
ATOM     18  C   UNL     1       0.180   9.133  19.735  0.00  0.00    +0.000 C 
BRANCH  18  19
ATOM     19  N   UNL     1       1.368   8.512  19.157  0.00  0.00    +0.000 N 
ATOM     20  C   UNL     1       1.881   8.970  17.966  0.00  0.00    +0.000 A 
ATOM     21  N   UNL     1       2.918   8.482  17.376  0.00  0.00    +0.000 NA
ATOM     22  C   UNL     1       3.510   7.342  17.930  0.00  0.00    +0.000 A 
ATOM     23  C   UNL     1       4.591   6.765  17.262  0.00  0.00    +0.000 A 
ATOM     24  C   UNL     1       5.134   5.560  17.728  0.00  0.00    +0.000 A 
ATOM     25  C   UNL     1       4.617   4.936  18.874  0.00  0.00    +0.000 A 
ATOM     26  C   UNL     1       3.560   5.533  19.562  0.00  0.00    +0.000 A 
ATOM     27  C   UNL     1       3.017   6.733  19.085  0.00  0.00    +0.000 A 
ATOM     28  C   UNL     1       1.886   7.382  19.773  0.00  0.00    +0.000 A 
ATOM     29  O   UNL     1       1.470   6.922  20.832  0.00  0.00    +0.000 OA
BRANCH  24  30
ATOM     30  N   UNL     1       6.243   4.937  16.996  0.00  0.00    +0.000 N 
ATOM     31  O   UNL     1       5.979   4.364  15.931  0.00  0.00    +0.000 OA
ATOM     32  O   UNL     1       7.377   5.021  17.490  0.00  0.00    +0.000 OA
ENDBRANCH  24  30
ENDBRANCH  18  19
ENDBRANCH   2  18
TORSDOF 5
ENDMDL
