MODEL 1
REMARK VINA RESULT:      -8.0      0.000      0.000
REMARK  Name = 
REMARK  6 active torsions:
REMARK  status: ('A' for Active; 'I' for Inactive)
REMARK    1  A    between atoms: C_1  and  C_2
REMARK    2  A    between atoms: C_2  and  O_3
REMARK    3  A    between atoms: O_3  and  C_4
REMARK    4  A    between atoms: C_8  and  N_9
REMARK    5  A    between atoms: C_11  and  C_12
REMARK    6  A    between atoms: C_16  and  N_17
REMARK                            x       y       z     vdW  Elec       q    Type
REMARK                         _______ _______ _______ _____ _____    ______ ____
ROOT
ATOM      1  N   UNL     1       6.085   4.618  15.805  0.00  0.00    +0.000 N 
ATOM      2  C   UNL     1       4.834   4.863  16.316  0.00  0.00    +0.000 A 
ATOM      3  C   UNL     1       5.002   4.885  17.676  0.00  0.00    +0.000 A 
ATOM      4  N   UNL     1       6.316   4.664  17.968  0.00  0.00    +0.000 NA
ATOM      5  N   UNL     1       6.974   4.515  16.822  0.00  0.00    +0.000 NA
ENDROOT
BRANCH   1  10
ATOM      6  C   UNL     1       6.151   3.219  12.365  0.00  0.00    +0.000 A 
ATOM      7  C   UNL     1       7.149   4.001  11.787  0.00  0.00    +0.000 A 
ATOM      8  C   UNL     1       7.777   5.013  12.524  0.00  0.00    +0.000 A 
ATOM      9  C   UNL     1       7.419   5.244  13.853  0.00  0.00    +0.000 A 
ATOM     10  C   UNL     1       6.435   4.449  14.445  0.00  0.00    +0.000 A 
ATOM     11  C   UNL     1       5.800   3.449  13.693  0.00  0.00    +0.000 A 
BRANCH   6  12
ATOM     12  O   UNL     1       5.588   2.258  11.568  0.00  0.00    +0.000 OA
BRANCH  12  14
ATOM     13  C   UNL     1       6.201  -0.059  11.410  0.00  0.00    +0.000 C 
ATOM     14  C   UNL     1       6.496   1.348  10.937  0.00  0.00    +0.000 C 
ENDBRANCH  12  14
ENDBRANCH   6  12
ENDBRANCH   1  10
BRANCH   3  15
ATOM     15  C   UNL     1       3.930   5.046  18.633  0.00  0.00    +0.000 A 
ATOM     16  C   UNL     1       3.314   6.292  18.785  0.00  0.00    +0.000 A 
ATOM     17  C   UNL     1       2.321   6.480  19.750  0.00  0.00    +0.000 A 
ATOM     18  C   UNL     1       1.929   5.421  20.571  0.00  0.00    +0.000 A 
ATOM     19  C   UNL     1       2.534   4.169  20.414  0.00  0.00    +0.000 A 
ATOM     20  C   UNL     1       3.529   3.976  19.449  0.00  0.00    +0.000 A 
BRANCH  19  21
ATOM     21  N   UNL     1       2.141   3.049  21.277  0.00  0.00    +0.000 N 
ATOM     22  O   UNL     1       0.937   2.756  21.327  0.00  0.00    +0.000 OA
ATOM     23  O   UNL     1       3.032   2.467  21.909  0.00  0.00    +0.000 OA
ENDBRANCH  19  21
ENDBRANCH   3  15
TORSDOF 5
ENDMDL
MODEL 2
REMARK VINA RESULT:      -7.9      0.999      1.249
REMARK  Name = 
REMARK  6 active torsions:
REMARK  status: ('A' for Active; 'I' for Inactive)
REMARK    1  A    between atoms: C_1  and  C_2
REMARK    2  A    between atoms: C_2  and  O_3
REMARK    3  A    between atoms: O_3  and  C_4
REMARK    4  A    between atoms: C_8  and  N_9
REMARK    5  A    between atoms: C_11  and  C_12
REMARK    6  A    between atoms: C_16  and  N_17
REMARK                            x       y       z     vdW  Elec       q    Type
REMARK                         _______ _______ _______ _____ _____    ______ ____
ROOT
ATOM      1  N   UNL     1       5.948   4.669  15.862  0.00  0.00    +0.000 N 
ATOM      2  C   UNL     1       4.727   5.049  16.364  0.00  0.00    +0.000 A 
ATOM      3  C   UNL     1       4.864   4.978  17.726  0.00  0.00    +0.000 A 
ATOM      4  N   UNL     1       6.131   4.571  18.028  0.00  0.00    +0.000 NA
ATOM      5  N   UNL     1       6.792   4.396  16.887  0.00  0.00    +0.000 NA
ENDROOT
BRANCH   1  10
ATOM      6  C   UNL     1       5.914   3.457  12.351  0.00  0.00    +0.000 A 
ATOM      7  C   UNL     1       7.020   4.129  11.835  0.00  0.00    +0.000 A 
ATOM      8  C   UNL     1       7.757   5.008  12.637  0.00  0.00    +0.000 A 
ATOM      9  C   UNL     1       7.401   5.214  13.971  0.00  0.00    +0.000 A 
ATOM     10  C   UNL     1       6.306   4.526  14.501  0.00  0.00    +0.000 A 
ATOM     11  C   UNL     1       5.564   3.661  13.684  0.00  0.00    +0.000 A 
BRANCH   6  12
ATOM     12  O   UNL     1       5.248   2.622  11.493  0.00  0.00    +0.000 OA
BRANCH  12  14
ATOM     13  C   UNL     1       3.652   3.898  10.231  0.00  0.00    +0.000 C 
ATOM     14  C   UNL     1       3.848   2.872  11.326  0.00  0.00    +0.000 C 
ENDBRANCH  12  14
ENDBRANCH   6  12
ENDBRANCH   1  10
BRANCH   3  15
ATOM     15  C   UNL     1       3.800   5.228  18.672  0.00  0.00    +0.000 A 
ATOM     16  C   UNL     1       3.289   6.522  18.820  0.00  0.00    +0.000 A 
ATOM     17  C   UNL     1       2.306   6.792  19.775  0.00  0.00    +0.000 A 
ATOM     18  C   UNL     1       1.817   5.769  20.589  0.00  0.00    +0.000 A 
ATOM     19  C   UNL     1       2.316   4.470  20.436  0.00  0.00    +0.000 A 
ATOM     20  C   UNL     1       3.301   4.194  19.482  0.00  0.00    +0.000 A 
BRANCH  19  21
ATOM     21  N   UNL     1       1.819   3.386  21.293  0.00  0.00    +0.000 N 
ATOM     22  O   UNL     1       0.831   2.749  20.900  0.00  0.00    +0.000 OA
ATOM     23  O   UNL     1       2.412   3.176  22.359  0.00  0.00    +0.000 OA
ENDBRANCH  19  21
ENDBRANCH   3  15
TORSDOF 5
ENDMDL
MODEL 3
REMARK VINA RESULT:      -7.8      1.969      8.384
REMARK  Name = 
REMARK  6 active torsions:
REMARK  status: ('A' for Active; 'I' for Inactive)
REMARK    1  A    between atoms: C_1  and  C_2
REMARK    2  A    between atoms: C_2  and  O_3
REMARK    3  A    between atoms: O_3  and  C_4
REMARK    4  A    between atoms: C_8  and  N_9
REMARK    5  A    between atoms: C_11  and  C_12
REMARK    6  A    between atoms: C_16  and  N_17
REMARK                            x       y       z     vdW  Elec       q    Type
REMARK                         _______ _______ _______ _____ _____    ______ ____
ROOT
ATOM      1  N   UNL     1       4.440   4.302  17.941  0.00  0.00    +0.000 N 
ATOM      2  C   UNL     1       4.431   4.118  16.580  0.00  0.00    +0.000 A 
ATOM      3  C   UNL     1       5.738   4.264  16.192  0.00  0.00    +0.000 A 
ATOM      4  N   UNL     1       6.504   4.524  17.291  0.00  0.00    +0.000 NA
ATOM      5  N   UNL     1       5.708   4.533  18.356  0.00  0.00    +0.000 NA
ENDROOT
BRANCH   1  10
ATOM      6  C   UNL     1       1.893   5.529  20.350  0.00  0.00    +0.000 A 
ATOM      7  C   UNL     1       1.194   4.353  20.609  0.00  0.00    +0.000 A 
ATOM      8  C   UNL     1       1.543   3.160  19.964  0.00  0.00    +0.000 A 
ATOM      9  C   UNL     1       2.605   3.132  19.058  0.00  0.00    +0.000 A 
ATOM     10  C   UNL     1       3.324   4.304  18.810  0.00  0.00    +0.000 A 
ATOM     11  C   UNL     1       2.955   5.497  19.450  0.00  0.00    +0.000 A 
BRANCH   6  12
ATOM     12  O   UNL     1       1.478   6.649  21.022  0.00  0.00    +0.000 OA
BRANCH  12  14
ATOM     13  C   UNL     1       0.916   8.984  21.061  0.00  0.00    +0.000 C 
ATOM     14  C   UNL     1       1.718   7.902  20.371  0.00  0.00    +0.000 C 
ENDBRANCH  12  14
ENDBRANCH   6  12
ENDBRANCH   1  10
BRANCH   3  15
ATOM     15  C   UNL     1       6.198   4.219  14.823  0.00  0.00    +0.000 A 
ATOM     16  C   UNL     1       7.256   5.039  14.416  0.00  0.00    +0.000 A 
ATOM     17  C   UNL     1       7.670   5.054  13.082  0.00  0.00    +0.000 A 
ATOM     18  C   UNL     1       7.035   4.244  12.140  0.00  0.00    +0.000 A 
ATOM     19  C   UNL     1       5.984   3.413  12.543  0.00  0.00    +0.000 A 
ATOM     20  C   UNL     1       5.565   3.394  13.878  0.00  0.00    +0.000 A 
BRANCH  19  21
ATOM     21  N   UNL     1       5.298   2.564  11.561  0.00  0.00    +0.000 N 
ATOM     22  O   UNL     1       5.859   1.514  11.218  0.00  0.00    +0.000 OA
ATOM     23  O   UNL     1       4.204   2.950  11.129  0.00  0.00    +0.000 OA
ENDBRANCH  19  21
ENDBRANCH   3  15
TORSDOF 5
ENDMDL
MODEL 4
REMARK VINA RESULT:      -7.7      5.094     10.159
REMARK  Name = 
REMARK  6 active torsions:
REMARK  status: ('A' for Active; 'I' for Inactive)
REMARK    1  A    between atoms: C_1  and  C_2
REMARK    2  A    between atoms: C_2  and  O_3
REMARK    3  A    between atoms: O_3  and  C_4
REMARK    4  A    between atoms: C_8  and  N_9
REMARK    5  A    between atoms: C_11  and  C_12
REMARK    6  A    between atoms: C_16  and  N_17
REMARK                            x       y       z     vdW  Elec       q    Type
REMARK                         _______ _______ _______ _____ _____    ______ ____
ROOT
ATOM      1  N   UNL     1       1.523   8.792  19.530  0.00  0.00    +0.000 N 
ATOM      2  C   UNL     1       2.235   7.617  19.543  0.00  0.00    +0.000 A 
ATOM      3  C   UNL     1       2.742   7.494  18.275  0.00  0.00    +0.000 A 
ATOM      4  N   UNL     1       2.348   8.567  17.529  0.00  0.00    +0.000 NA
ATOM      5  N   UNL     1       1.615   9.362  18.304  0.00  0.00    +0.000 NA
ENDROOT
BRANCH   1  10
ATOM      6  C   UNL     1      -0.091  11.318  21.722  0.00  0.00    +0.000 A 
ATOM      7  C   UNL     1      -0.645  10.496  22.701  0.00  0.00    +0.000 A 
ATOM      8  C   UNL     1      -0.513   9.104  22.619  0.00  0.00    +0.000 A 
ATOM      9  C   UNL     1       0.186   8.522  21.560  0.00  0.00    +0.000 A 
ATOM     10  C   UNL     1       0.762   9.342  20.588  0.00  0.00    +0.000 A 
ATOM     11  C   UNL     1       0.610  10.735  20.670  0.00  0.00    +0.000 A 
BRANCH   6  12
ATOM     12  O   UNL     1      -0.275  12.667  21.880  0.00  0.00    +0.000 OA
BRANCH  12  14
ATOM     13  C   UNL     1      -1.180  14.155  23.534  0.00  0.00    +0.000 C 
ATOM     14  C   UNL     1      -1.487  13.068  22.527  0.00  0.00    +0.000 C 
ENDBRANCH  12  14
ENDBRANCH   6  12
ENDBRANCH   1  10
BRANCH   3  15
ATOM     15  C   UNL     1       3.509   6.363  17.804  0.00  0.00    +0.000 A 
ATOM     16  C   UNL     1       2.911   5.102  17.722  0.00  0.00    +0.000 A 
ATOM     17  C   UNL     1       3.656   3.987  17.330  0.00  0.00    +0.000 A 
ATOM     18  C   UNL     1       5.007   4.122  17.009  0.00  0.00    +0.000 A 
ATOM     19  C   UNL     1       5.608   5.384  17.078  0.00  0.00    +0.000 A 
ATOM     20  C   UNL     1       4.866   6.504  17.471  0.00  0.00    +0.000 A 
BRANCH  19  21
ATOM     21  N   UNL     1       7.031   5.540  16.755  0.00  0.00    +0.000 N 
ATOM     22  O   UNL     1       7.742   4.525  16.785  0.00  0.00    +0.000 OA
ATOM     23  O   UNL     1       7.439   6.675  16.479  0.00  0.00    +0.000 OA
ENDBRANCH  19  21
ENDBRANCH   3  15
TORSDOF 5
ENDMDL
MODEL 5
REMARK VINA RESULT:      -7.7      2.086      8.408
REMARK  Name = 
REMARK  6 active torsions:
REMARK  status: ('A' for Active; 'I' for Inactive)
REMARK    1  A    between atoms: C_1  and  C_2
REMARK    2  A    between atoms: C_2  and  O_3
REMARK    3  A    between atoms: O_3  and  C_4
REMARK    4  A    between atoms: C_8  and  N_9
REMARK    5  A    between atoms: C_11  and  C_12
REMARK    6  A    between atoms: C_16  and  N_17
REMARK                            x       y       z     vdW  Elec       q    Type
REMARK                         _______ _______ _______ _____ _____    ______ ____
ROOT
ATOM      1  N   UNL     1       4.522   5.273  17.638  0.00  0.00    +0.000 N 
ATOM      2  C   UNL     1       4.854   4.450  16.589  0.00  0.00    +0.000 A 
ATOM      3  C   UNL     1       5.632   5.220  15.764  0.00  0.00    +0.000 A 
ATOM      4  N   UNL     1       5.764   6.465  16.307  0.00  0.00    +0.000 NA
ATOM      5  N   UNL     1       5.096   6.487  17.457  0.00  0.00    +0.000 NA
ENDROOT
BRANCH   1  10
ATOM      6  C   UNL     1       2.061   5.717  20.383  0.00  0.00    +0.000 A 
ATOM      7  C   UNL     1       2.080   4.447  20.957  0.00  0.00    +0.000 A 
ATOM      8  C   UNL     1       2.883   3.435  20.417  0.00  0.00    +0.000 A 
ATOM      9  C   UNL     1       3.683   3.687  19.301  0.00  0.00    +0.000 A 
ATOM     10  C   UNL     1       3.684   4.964  18.735  0.00  0.00    +0.000 A 
ATOM     11  C   UNL     1       2.864   5.967  19.274  0.00  0.00    +0.000 A 
BRANCH   6  12
ATOM     12  O   UNL     1       1.242   6.643  20.974  0.00  0.00    +0.000 OA
BRANCH  12  14
ATOM     13  C   UNL     1       0.503   8.897  21.356  0.00  0.00    +0.000 C 
ATOM     14  C   UNL     1       1.568   8.017  20.737  0.00  0.00    +0.000 C 
ENDBRANCH  12  14
ENDBRANCH   6  12
ENDBRANCH   1  10
BRANCH   3  15
ATOM     15  C   UNL     1       6.157   4.785  14.490  0.00  0.00    +0.000 A 
ATOM     16  C   UNL     1       7.358   5.320  14.013  0.00  0.00    +0.000 A 
ATOM     17  C   UNL     1       7.847   4.958  12.755  0.00  0.00    +0.000 A 
ATOM     18  C   UNL     1       7.143   4.051  11.962  0.00  0.00    +0.000 A 
ATOM     19  C   UNL     1       5.947   3.503  12.440  0.00  0.00    +0.000 A 
ATOM     20  C   UNL     1       5.453   3.862  13.699  0.00  0.00    +0.000 A 
BRANCH  19  21
ATOM     21  N   UNL     1       5.189   2.556  11.613  0.00  0.00    +0.000 N 
ATOM     22  O   UNL     1       4.069   2.908  11.214  0.00  0.00    +0.000 OA
ATOM     23  O   UNL     1       5.709   1.460  11.367  0.00  0.00    +0.000 OA
ENDBRANCH  19  21
ENDBRANCH   3  15
TORSDOF 5
ENDMDL
MODEL 6
REMARK VINA RESULT:      -7.7      1.746      7.765
REMARK  Name = 
REMARK  6 active torsions:
REMARK  status: ('A' for Active; 'I' for Inactive)
REMARK    1  A    between atoms: C_1  and  C_2
REMARK    2  A    between atoms: C_2  and  O_3
REMARK    3  A    between atoms: O_3  and  C_4
REMARK    4  A    between atoms: C_8  and  N_9
REMARK    5  A    between atoms: C_11  and  C_12
REMARK    6  A    between atoms: C_16  and  N_17
REMARK                            x       y       z     vdW  Elec       q    Type
REMARK                         _______ _______ _______ _____ _____    ______ ____
ROOT
ATOM      1  N   UNL     1       4.806   5.686  17.543  0.00  0.00    +0.000 N 
ATOM      2  C   UNL     1       4.899   4.895  16.425  0.00  0.00    +0.000 A 
ATOM      3  C   UNL     1       5.961   5.398  15.720  0.00  0.00    +0.000 A 
ATOM      4  N   UNL     1       6.489   6.456  16.400  0.00  0.00    +0.000 NA
ATOM      5  N   UNL     1       5.788   6.619  17.519  0.00  0.00    +0.000 NA
ENDROOT
BRANCH   1  10
ATOM      6  C   UNL     1       2.523   4.232  20.087  0.00  0.00    +0.000 A 
ATOM      7  C   UNL     1       1.855   5.376  20.520  0.00  0.00    +0.000 A 
ATOM      8  C   UNL     1       2.182   6.632  19.995  0.00  0.00    +0.000 A 
ATOM      9  C   UNL     1       3.175   6.754  19.021  0.00  0.00    +0.000 A 
ATOM     10  C   UNL     1       3.833   5.608  18.567  0.00  0.00    +0.000 A 
ATOM     11  C   UNL     1       3.509   4.357  19.112  0.00  0.00    +0.000 A 
BRANCH   6  12
ATOM     12  O   UNL     1       2.141   3.047  20.659  0.00  0.00    +0.000 OA
BRANCH  12  14
ATOM     13  C   UNL     1       0.672   2.403  18.871  0.00  0.00    +0.000 C 
ATOM     14  C   UNL     1       1.826   1.982  19.756  0.00  0.00    +0.000 C 
ENDBRANCH  12  14
ENDBRANCH   6  12
ENDBRANCH   1  10
BRANCH   3  15
ATOM     15  C   UNL     1       6.391   4.916  14.426  0.00  0.00    +0.000 A 
ATOM     16  C   UNL     1       7.567   5.412  13.854  0.00  0.00    +0.000 A 
ATOM     17  C   UNL     1       7.962   5.004  12.577  0.00  0.00    +0.000 A 
ATOM     18  C   UNL     1       7.188   4.090  11.861  0.00  0.00    +0.000 A 
ATOM     19  C   UNL     1       6.018   3.581  12.434  0.00  0.00    +0.000 A 
ATOM     20  C   UNL     1       5.617   3.987  13.712  0.00  0.00    +0.000 A 
BRANCH  19  21
ATOM     21  N   UNL     1       5.187   2.627  11.688  0.00  0.00    +0.000 N 
ATOM     22  O   UNL     1       4.042   2.983  11.376  0.00  0.00    +0.000 OA
ATOM     23  O   UNL     1       5.677   1.522  11.421  0.00  0.00    +0.000 OA
ENDBRANCH  19  21
ENDBRANCH   3  15
TORSDOF 5
ENDMDL
MODEL 7
REMARK VINA RESULT:      -7.7      2.300      8.234
REMARK  Name = 
REMARK  6 active torsions:
REMARK  status: ('A' for Active; 'I' for Inactive)
REMARK    1  A    between atoms: C_1  and  C_2
REMARK    2  A    between atoms: C_2  and  O_3
REMARK    3  A    between atoms: O_3  and  C_4
REMARK    4  A    between atoms: C_8  and  N_9
REMARK    5  A    between atoms: C_11  and  C_12
REMARK    6  A    between atoms: C_16  and  N_17
REMARK                            x       y       z     vdW  Elec       q    Type
REMARK                         _______ _______ _______ _____ _____    ______ ____
ROOT
ATOM      1  N   UNL     1       4.888   4.933  17.832  0.00  0.00    +0.000 N 
ATOM      2  C   UNL     1       4.776   4.806  16.470  0.00  0.00    +0.000 A 
ATOM      3  C   UNL     1       6.045   4.534  16.032  0.00  0.00    +0.000 A 
ATOM      4  N   UNL     1       6.890   4.496  17.103  0.00  0.00    +0.000 NA
ATOM      5  N   UNL     1       6.175   4.727  18.200  0.00  0.00    +0.000 NA
ENDROOT
BRANCH   1  10
ATOM      6  C   UNL     1       2.331   6.940  19.631  0.00  0.00    +0.000 A 
ATOM      7  C   UNL     1       1.904   6.019  20.586  0.00  0.00    +0.000 A 
ATOM      8  C   UNL     1       2.437   4.725  20.615  0.00  0.00    +0.000 A 
ATOM      9  C   UNL     1       3.414   4.342  19.693  0.00  0.00    +0.000 A 
ATOM     10  C   UNL     1       3.862   5.267  18.747  0.00  0.00    +0.000 A 
ATOM     11  C   UNL     1       3.309   6.556  18.716  0.00  0.00    +0.000 A 
BRANCH   6  12
ATOM     12  O   UNL     1       1.751   8.180  19.673  0.00  0.00    +0.000 OA
BRANCH  12  14
ATOM     13  C   UNL     1       0.774  10.085  18.585  0.00  0.00    +0.000 C 
ATOM     14  C   UNL     1       1.694   8.894  18.433  0.00  0.00    +0.000 C 
ENDBRANCH  12  14
ENDBRANCH   6  12
ENDBRANCH   1  10
BRANCH   3  15
ATOM     15  C   UNL     1       6.421   4.387  14.644  0.00  0.00    +0.000 A 
ATOM     16  C   UNL     1       7.467   5.155  14.120  0.00  0.00    +0.000 A 
ATOM     17  C   UNL     1       7.800   5.072  12.766  0.00  0.00    +0.000 A 
ATOM     18  C   UNL     1       7.096   4.214  11.920  0.00  0.00    +0.000 A 
ATOM     19  C   UNL     1       6.057   3.434  12.442  0.00  0.00    +0.000 A 
ATOM     20  C   UNL     1       5.719   3.514  13.797  0.00  0.00    +0.000 A 
BRANCH  19  21
ATOM     21  N   UNL     1       5.299   2.536  11.562  0.00  0.00    +0.000 N 
ATOM     22  O   UNL     1       5.825   1.457  11.252  0.00  0.00    +0.000 OA
ATOM     23  O   UNL     1       4.184   2.910  11.177  0.00  0.00    +0.000 OA
ENDBRANCH  19  21
ENDBRANCH   3  15
TORSDOF 5
ENDMDL
MODEL 8
REMARK VINA RESULT:      -7.7      4.817      9.688
REMARK  Name = 
REMARK  6 active torsions:
REMARK  status: ('A' for Active; 'I' for Inactive)
REMARK    1  A    between atoms: C_1  and  C_2
REMARK    2  A    between atoms: C_2  and  O_3
REMARK    3  A    between atoms: O_3  and  C_4
REMARK    4  A    between atoms: C_8  and  N_9
REMARK    5  A    between atoms: C_11  and  C_12
REMARK    6  A    between atoms: C_16  and  N_17
REMARK                            x       y       z     vdW  Elec       q    Type
REMARK                         _______ _______ _______ _____ _____    ______ ____
ROOT
ATOM      1  N   UNL     1       1.628   8.708  19.523  0.00  0.00    +0.000 N 
ATOM      2  C   UNL     1       2.266   7.492  19.516  0.00  0.00    +0.000 A 
ATOM      3  C   UNL     1       2.792   7.374  18.256  0.00  0.00    +0.000 A 
ATOM      4  N   UNL     1       2.481   8.489  17.534  0.00  0.00    +0.000 NA
ATOM      5  N   UNL     1       1.781   9.305  18.317  0.00  0.00    +0.000 NA
ENDROOT
BRANCH   1  10
ATOM      6  C   UNL     1      -0.731  10.940  21.327  0.00  0.00    +0.000 A 
ATOM      7  C   UNL     1      -0.556  10.498  22.637  0.00  0.00    +0.000 A 
ATOM      8  C   UNL     1       0.317   9.440  22.920  0.00  0.00    +0.000 A 
ATOM      9  C   UNL     1       1.033   8.821  21.894  0.00  0.00    +0.000 A 
ATOM     10  C   UNL     1       0.879   9.274  20.581  0.00  0.00    +0.000 A 
ATOM     11  C   UNL     1      -0.011  10.324  20.306  0.00  0.00    +0.000 A 
BRANCH   6  12
ATOM     12  O   UNL     1      -1.609  11.976  21.142  0.00  0.00    +0.000 OA
BRANCH  12  14
ATOM     13  C   UNL     1      -3.142  12.110  19.298  0.00  0.00    +0.000 C 
ATOM     14  C   UNL     1      -1.754  12.448  19.799  0.00  0.00    +0.000 C 
ENDBRANCH  12  14
ENDBRANCH   6  12
ENDBRANCH   1  10
BRANCH   3  15
ATOM     15  C   UNL     1       3.499   6.211  17.768  0.00  0.00    +0.000 A 
ATOM     16  C   UNL     1       2.845   4.977  17.696  0.00  0.00    +0.000 A 
ATOM     17  C   UNL     1       3.532   3.831  17.287  0.00  0.00    +0.000 A 
ATOM     18  C   UNL     1       4.881   3.908  16.939  0.00  0.00    +0.000 A 
ATOM     19  C   UNL     1       5.537   5.143  16.997  0.00  0.00    +0.000 A 
ATOM     20  C   UNL     1       4.854   6.293  17.406  0.00  0.00    +0.000 A 
BRANCH  19  21
ATOM     21  N   UNL     1       6.959   5.237  16.644  0.00  0.00    +0.000 N 
ATOM     22  O   UNL     1       7.774   4.666  17.383  0.00  0.00    +0.000 OA
ATOM     23  O   UNL     1       7.262   5.886  15.635  0.00  0.00    +0.000 OA
ENDBRANCH  19  21
ENDBRANCH   3  15
TORSDOF 5
ENDMDL
MODEL 9
REMARK VINA RESULT:      -7.6      2.142      2.560
REMARK  Name = 
REMARK  6 active torsions:
REMARK  status: ('A' for Active; 'I' for Inactive)
REMARK    1  A    between atoms: C_1  and  C_2
REMARK    2  A    between atoms: C_2  and  O_3
REMARK    3  A    between atoms: O_3  and  C_4
REMARK    4  A    between atoms: C_8  and  N_9
REMARK    5  A    between atoms: C_11  and  C_12
REMARK    6  A    between atoms: C_16  and  N_17
REMARK                            x       y       z     vdW  Elec       q    Type
REMARK                         _______ _______ _______ _____ _____    ______ ____
ROOT
ATOM      1  N   UNL     1       6.123   4.597  15.930  0.00  0.00    +0.000 N 
ATOM      2  C   UNL     1       4.902   4.887  16.488  0.00  0.00    +0.000 A 
ATOM      3  C   UNL     1       5.097   4.790  17.842  0.00  0.00    +0.000 A 
ATOM      4  N   UNL     1       6.398   4.456  18.084  0.00  0.00    +0.000 NA
ATOM      5  N   UNL     1       7.022   4.352  16.914  0.00  0.00    +0.000 NA
ENDROOT
BRANCH   1  10
ATOM      6  C   UNL     1       5.949   3.555  12.369  0.00  0.00    +0.000 A 
ATOM      7  C   UNL     1       7.054   4.225  11.849  0.00  0.00    +0.000 A 
ATOM      8  C   UNL     1       7.837   5.048  12.668  0.00  0.00    +0.000 A 
ATOM      9  C   UNL     1       7.528   5.199  14.021  0.00  0.00    +0.000 A 
ATOM     10  C   UNL     1       6.435   4.511  14.553  0.00  0.00    +0.000 A 
ATOM     11  C   UNL     1       5.646   3.703  13.721  0.00  0.00    +0.000 A 
BRANCH   6  12
ATOM     12  O   UNL     1       5.237   2.777  11.495  0.00  0.00    +0.000 OA
BRANCH  12  14
ATOM     13  C   UNL     1       3.524   3.802  10.159  0.00  0.00    +0.000 C 
ATOM     14  C   UNL     1       3.830   3.031  11.425  0.00  0.00    +0.000 C 
ENDBRANCH  12  14
ENDBRANCH   6  12
ENDBRANCH   1  10
BRANCH   3  15
ATOM     15  C   UNL     1       4.058   4.949  18.834  0.00  0.00    +0.000 A 
ATOM     16  C   UNL     1       3.612   3.838  19.559  0.00  0.00    +0.000 A 
ATOM     17  C   UNL     1       2.565   3.963  20.476  0.00  0.00    +0.000 A 
ATOM     18  C   UNL     1       1.957   5.201  20.683  0.00  0.00    +0.000 A 
ATOM     19  C   UNL     1       2.408   6.318  19.970  0.00  0.00    +0.000 A 
ATOM     20  C   UNL     1       3.455   6.199  19.051  0.00  0.00    +0.000 A 
BRANCH  19  21
ATOM     21  N   UNL     1       1.770   7.625  20.170  0.00  0.00    +0.000 N 
ATOM     22  O   UNL     1       1.804   8.431  19.229  0.00  0.00    +0.000 OA
ATOM     23  O   UNL     1       1.242   7.848  21.267  0.00  0.00    +0.000 OA
ENDBRANCH  19  21
ENDBRANCH   3  15
TORSDOF 5
ENDMDL
