MODEL 1
REMARK VINA RESULT:      -7.0      0.000      0.000
REMARK  Name = 
REMARK  7 active torsions:
REMARK  status: ('A' for Active; 'I' for Inactive)
REMARK    1  A    between atoms: C_2  and  C_4
REMARK    2  A    between atoms: C_4  and  C_5
REMARK    3  A    between atoms: C_5  and  N_6
REMARK    4  A    between atoms: N_6  and  C_7
REMARK    5  A    between atoms: C_7  and  C_8
REMARK    6  A    between atoms: C_11  and  C_12
REMARK    7  A    between atoms: C_15  and  C_16
REMARK                            x       y       z     vdW  Elec       q    Type
REMARK                         _______ _______ _______ _____ _____    ______ ____
ROOT
ATOM      1  C   UNL     1       3.857   5.905  18.360  0.00  0.00    +0.000 A 
ATOM      2  C   UNL     1       2.805   6.417  19.121  0.00  0.00    +0.000 A 
ATOM      3  C   UNL     1       2.174   5.594  20.059  0.00  0.00    +0.000 A 
ATOM      4  C   UNL     1       2.554   4.237  20.229  0.00  0.00    +0.000 A 
ATOM      5  C   UNL     1       3.603   3.704  19.435  0.00  0.00    +0.000 A 
ATOM      6  C   UNL     1       4.283   4.596  18.576  0.00  0.00    +0.000 A 
ENDROOT
BRANCH   4   7
ATOM      7  C   UNL     1       1.847   3.462  21.311  0.00  0.00    +0.000 C 
ATOM      8  O   UNL     1       0.832   2.784  21.000  0.00  0.00    +0.000 OA
ATOM      9  O   UNL     1       2.498   3.366  22.402  0.00  0.00    +0.000 OA
ENDBRANCH   4   7
BRANCH   5  10
ATOM     10  C   UNL     1       4.004   2.257  19.233  0.00  0.00    +0.000 C 
ATOM     11  O   UNL     1       4.850   1.780  20.081  0.00  0.00    +0.000 OA
ATOM     12  O   UNL     1       3.728   1.700  18.126  0.00  0.00    +0.000 OA
ENDBRANCH   5  10
BRANCH   1  13
ATOM     13  C   UNL     1       4.540   6.725  17.297  0.00  0.00    +0.000 C 
BRANCH  13  14
ATOM     14  N   UNL     1       5.929   6.284  16.967  0.00  0.00    +0.000 NA
ATOM     15  H   UNL     1       6.124   5.474  17.564  0.00  0.00    +0.000 HD
BRANCH  14  16
ATOM     16  C   UNL     1       6.941   7.300  17.309  0.00  0.00    +0.000 C 
BRANCH  16  17
ATOM     17  C   UNL     1       7.936   6.895  18.377  0.00  0.00    +0.000 C 
BRANCH  17  19
ATOM     18  O   UNL     1       7.371   5.390  20.191  0.00  0.00    +0.000 OA
ATOM     19  C   UNL     1       7.709   5.542  18.978  0.00  0.00    +0.000 C 
ATOM     20  O   UNL     1       7.905   4.532  18.239  0.00  0.00    +0.000 OA
ENDBRANCH  17  19
ENDBRANCH  16  17
ENDBRANCH  14  16
ENDBRANCH  13  14
ENDBRANCH   1  13
TORSDOF 7
ENDMDL
MODEL 2
REMARK VINA RESULT:      -6.9      2.260      5.870
REMARK  Name = 
REMARK  7 active torsions:
REMARK  status: ('A' for Active; 'I' for Inactive)
REMARK    1  A    between atoms: C_2  and  C_4
REMARK    2  A    between atoms: C_4  and  C_5
REMARK    3  A    between atoms: C_5  and  N_6
REMARK    4  A    between atoms: N_6  and  C_7
REMARK    5  A    between atoms: C_7  and  C_8
REMARK    6  A    between atoms: C_11  and  C_12
REMARK    7  A    between atoms: C_15  and  C_16
REMARK                            x       y       z     vdW  Elec       q    Type
REMARK                         _______ _______ _______ _____ _____    ______ ____
ROOT
ATOM      1  C   UNL     1       3.781   5.582  18.799  0.00  0.00    +0.000 A 
ATOM      2  C   UNL     1       3.592   5.329  17.440  0.00  0.00    +0.000 A 
ATOM      3  C   UNL     1       4.705   5.106  16.623  0.00  0.00    +0.000 A 
ATOM      4  C   UNL     1       6.026   5.166  17.139  0.00  0.00    +0.000 A 
ATOM      5  C   UNL     1       6.223   5.452  18.515  0.00  0.00    +0.000 A 
ATOM      6  C   UNL     1       5.071   5.568  19.324  0.00  0.00    +0.000 A 
ENDROOT
BRANCH   4   7
ATOM      7  C   UNL     1       7.146   4.846  16.182  0.00  0.00    +0.000 C 
ATOM      8  O   UNL     1       7.226   5.504  15.110  0.00  0.00    +0.000 OA
ATOM      9  O   UNL     1       8.060   4.105  16.668  0.00  0.00    +0.000 OA
ENDBRANCH   4   7
BRANCH   5  10
ATOM     10  C   UNL     1       7.500   5.834  19.235  0.00  0.00    +0.000 C 
ATOM     11  O   UNL     1       7.677   5.302  20.396  0.00  0.00    +0.000 OA
ATOM     12  O   UNL     1       8.160   6.833  18.812  0.00  0.00    +0.000 OA
ENDBRANCH   5  10
BRANCH   1  13
ATOM     13  C   UNL     1       2.626   5.883  19.718  0.00  0.00    +0.000 C 
BRANCH  13  14
ATOM     14  N   UNL     1       2.514   4.973  20.897  0.00  0.00    +0.000 NA
ATOM     15  H   UNL     1       3.387   4.438  20.932  0.00  0.00    +0.000 HD
BRANCH  14  16
ATOM     16  C   UNL     1       1.432   3.983  20.746  0.00  0.00    +0.000 C 
BRANCH  16  17
ATOM     17  C   UNL     1       1.862   2.616  20.256  0.00  0.00    +0.000 C 
BRANCH  17  19
ATOM     18  O   UNL     1       0.262   2.200  18.484  0.00  0.00    +0.000 OA
ATOM     19  C   UNL     1       1.474   2.294  18.846  0.00  0.00    +0.000 C 
ATOM     20  O   UNL     1       2.406   2.077  18.016  0.00  0.00    +0.000 OA
ENDBRANCH  17  19
ENDBRANCH  16  17
ENDBRANCH  14  16
ENDBRANCH  13  14
ENDBRANCH   1  13
TORSDOF 7
ENDMDL
MODEL 3
REMARK VINA RESULT:      -6.9      1.069      1.615
REMARK  Name = 
REMARK  7 active torsions:
REMARK  status: ('A' for Active; 'I' for Inactive)
REMARK    1  A    between atoms: C_2  and  C_4
REMARK    2  A    between atoms: C_4  and  C_5
REMARK    3  A    between atoms: C_5  and  N_6
REMARK    4  A    between atoms: N_6  and  C_7
REMARK    5  A    between atoms: C_7  and  C_8
REMARK    6  A    between atoms: C_11  and  C_12
REMARK    7  A    between atoms: C_15  and  C_16
REMARK                            x       y       z     vdW  Elec       q    Type
REMARK                         _______ _______ _______ _____ _____    ______ ____
ROOT
ATOM      1  C   UNL     1       4.411   5.774  17.100  0.00  0.00    +0.000 A 
ATOM      2  C   UNL     1       3.751   6.643  17.970  0.00  0.00    +0.000 A 
ATOM      3  C   UNL     1       2.932   6.115  18.973  0.00  0.00    +0.000 A 
ATOM      4  C   UNL     1       2.728   4.717  19.104  0.00  0.00    +0.000 A 
ATOM      5  C   UNL     1       3.374   3.832  18.202  0.00  0.00    +0.000 A 
ATOM      6  C   UNL     1       4.273   4.398  17.271  0.00  0.00    +0.000 A 
ENDROOT
BRANCH   4   7
ATOM      7  C   UNL     1       1.876   4.259  20.260  0.00  0.00    +0.000 C 
ATOM      8  O   UNL     1       2.290   4.466  21.432  0.00  0.00    +0.000 OA
ATOM      9  O   UNL     1       0.689   3.926  19.941  0.00  0.00    +0.000 OA
ENDBRANCH   4   7
BRANCH   5  10
ATOM     10  C   UNL     1       3.113   2.359  17.961  0.00  0.00    +0.000 C 
ATOM     11  O   UNL     1       2.019   2.072  17.343  0.00  0.00    +0.000 OA
ATOM     12  O   UNL     1       3.801   1.507  18.604  0.00  0.00    +0.000 OA
ENDBRANCH   5  10
BRANCH   1  13
ATOM     13  C   UNL     1       5.263   6.282  15.966  0.00  0.00    +0.000 C 
BRANCH  13  14
ATOM     14  N   UNL     1       6.726   6.344  16.265  0.00  0.00    +0.000 NA
ATOM     15  H   UNL     1       6.977   5.436  16.668  0.00  0.00    +0.000 HD
BRANCH  14  16
ATOM     16  C   UNL     1       7.050   7.353  17.291  0.00  0.00    +0.000 C 
BRANCH  16  17
ATOM     17  C   UNL     1       7.987   6.889  18.387  0.00  0.00    +0.000 C 
BRANCH  17  19
ATOM     18  O   UNL     1       7.339   5.360  20.152  0.00  0.00    +0.000 OA
ATOM     19  C   UNL     1       7.691   5.531  18.946  0.00  0.00    +0.000 C 
ATOM     20  O   UNL     1       7.842   4.535  18.178  0.00  0.00    +0.000 OA
ENDBRANCH  17  19
ENDBRANCH  16  17
ENDBRANCH  14  16
ENDBRANCH  13  14
ENDBRANCH   1  13
TORSDOF 7
ENDMDL
MODEL 4
REMARK VINA RESULT:      -6.8      2.273      5.566
REMARK  Name = 
REMARK  7 active torsions:
REMARK  status: ('A' for Active; 'I' for Inactive)
REMARK    1  A    between atoms: C_2  and  C_4
REMARK    2  A    between atoms: C_4  and  C_5
REMARK    3  A    between atoms: C_5  and  N_6
REMARK    4  A    between atoms: N_6  and  C_7
REMARK    5  A    between atoms: C_7  and  C_8
REMARK    6  A    between atoms: C_11  and  C_12
REMARK    7  A    between atoms: C_15  and  C_16
REMARK                            x       y       z     vdW  Elec       q    Type
REMARK                         _______ _______ _______ _____ _____    ______ ____
ROOT
ATOM      1  C   UNL     1       3.196   5.550  19.540  0.00  0.00    +0.000 A 
ATOM      2  C   UNL     1       2.837   6.515  18.598  0.00  0.00    +0.000 A 
ATOM      3  C   UNL     1       3.775   6.923  17.644  0.00  0.00    +0.000 A 
ATOM      4  C   UNL     1       5.095   6.404  17.634  0.00  0.00    +0.000 A 
ATOM      5  C   UNL     1       5.473   5.445  18.610  0.00  0.00    +0.000 A 
ATOM      6  C   UNL     1       4.468   4.984  19.489  0.00  0.00    +0.000 A 
ENDROOT
BRANCH   4   7
ATOM      7  C   UNL     1       6.001   6.868  16.523  0.00  0.00    +0.000 C 
ATOM      8  O   UNL     1       5.665   6.626  15.333  0.00  0.00    +0.000 OA
ATOM      9  O   UNL     1       6.905   7.688  16.886  0.00  0.00    +0.000 OA
ENDBRANCH   4   7
BRANCH   5  10
ATOM     10  C   UNL     1       6.859   4.955  18.977  0.00  0.00    +0.000 C 
ATOM     11  O   UNL     1       7.342   5.402  20.085  0.00  0.00    +0.000 OA
ATOM     12  O   UNL     1       7.560   4.388  18.083  0.00  0.00    +0.000 OA
ENDBRANCH   5  10
BRANCH   1  13
ATOM     13  C   UNL     1       2.249   5.110  20.626  0.00  0.00    +0.000 C 
BRANCH  13  14
ATOM     14  N   UNL     1       2.016   3.636  20.689  0.00  0.00    +0.000 NA
ATOM     15  H   UNL     1       2.752   3.203  20.124  0.00  0.00    +0.000 HD
BRANCH  14  16
ATOM     16  C   UNL     1       0.737   3.239  20.072  0.00  0.00    +0.000 C 
BRANCH  16  17
ATOM     17  C   UNL     1       0.850   2.320  18.873  0.00  0.00    +0.000 C 
BRANCH  17  19
ATOM     18  O   UNL     1       2.214   3.168  17.058  0.00  0.00    +0.000 OA
ATOM     19  C   UNL     1       2.123   2.443  18.094  0.00  0.00    +0.000 C 
ATOM     20  O   UNL     1       3.117   1.760  18.484  0.00  0.00    +0.000 OA
ENDBRANCH  17  19
ENDBRANCH  16  17
ENDBRANCH  14  16
ENDBRANCH  13  14
ENDBRANCH   1  13
TORSDOF 7
ENDMDL
MODEL 5
REMARK VINA RESULT:      -6.7      2.583      5.962
REMARK  Name = 
REMARK  7 active torsions:
REMARK  status: ('A' for Active; 'I' for Inactive)
REMARK    1  A    between atoms: C_2  and  C_4
REMARK    2  A    between atoms: C_4  and  C_5
REMARK    3  A    between atoms: C_5  and  N_6
REMARK    4  A    between atoms: N_6  and  C_7
REMARK    5  A    between atoms: C_7  and  C_8
REMARK    6  A    between atoms: C_11  and  C_12
REMARK    7  A    between atoms: C_15  and  C_16
REMARK                            x       y       z     vdW  Elec       q    Type
REMARK                         _______ _______ _______ _____ _____    ______ ____
ROOT
ATOM      1  C   UNL     1       4.253   3.651  17.697  0.00  0.00    +0.000 A 
ATOM      2  C   UNL     1       4.681   4.234  18.891  0.00  0.00    +0.000 A 
ATOM      3  C   UNL     1       5.672   5.220  18.854  0.00  0.00    +0.000 A 
ATOM      4  C   UNL     1       6.280   5.615  17.634  0.00  0.00    +0.000 A 
ATOM      5  C   UNL     1       5.869   5.002  16.422  0.00  0.00    +0.000 A 
ATOM      6  C   UNL     1       4.794   4.087  16.490  0.00  0.00    +0.000 A 
ENDROOT
BRANCH   4   7
ATOM      7  C   UNL     1       7.292   6.730  17.706  0.00  0.00    +0.000 C 
ATOM      8  O   UNL     1       7.090   7.770  17.024  0.00  0.00    +0.000 OA
ATOM      9  O   UNL     1       8.136   6.616  18.653  0.00  0.00    +0.000 OA
ENDBRANCH   4   7
BRANCH   5  10
ATOM     10  C   UNL     1       6.532   5.044  15.060  0.00  0.00    +0.000 C 
ATOM     11  O   UNL     1       5.866   4.518  14.090  0.00  0.00    +0.000 OA
ATOM     12  O   UNL     1       7.770   5.317  14.996  0.00  0.00    +0.000 OA
ENDBRANCH   5  10
BRANCH   1  13
ATOM     13  C   UNL     1       3.229   2.546  17.677  0.00  0.00    +0.000 C 
BRANCH  13  14
ATOM     14  N   UNL     1       2.857   2.016  19.023  0.00  0.00    +0.000 NA
ATOM     15  H   UNL     1       3.097   1.020  19.018  0.00  0.00    +0.000 HD
BRANCH  14  16
ATOM     16  C   UNL     1       1.407   2.088  19.278  0.00  0.00    +0.000 C 
BRANCH  16  17
ATOM     17  C   UNL     1       0.940   3.306  20.049  0.00  0.00    +0.000 C 
BRANCH  17  19
ATOM     18  O   UNL     1       2.192   2.891  22.082  0.00  0.00    +0.000 OA
ATOM     19  C   UNL     1       1.820   3.713  21.191  0.00  0.00    +0.000 C 
ATOM     20  O   UNL     1       2.158   4.931  21.266  0.00  0.00    +0.000 OA
ENDBRANCH  17  19
ENDBRANCH  16  17
ENDBRANCH  14  16
ENDBRANCH  13  14
ENDBRANCH   1  13
TORSDOF 7
ENDMDL
MODEL 6
REMARK VINA RESULT:      -6.7      2.027      5.435
REMARK  Name = 
REMARK  7 active torsions:
REMARK  status: ('A' for Active; 'I' for Inactive)
REMARK    1  A    between atoms: C_2  and  C_4
REMARK    2  A    between atoms: C_4  and  C_5
REMARK    3  A    between atoms: C_5  and  N_6
REMARK    4  A    between atoms: N_6  and  C_7
REMARK    5  A    between atoms: C_7  and  C_8
REMARK    6  A    between atoms: C_11  and  C_12
REMARK    7  A    between atoms: C_15  and  C_16
REMARK                            x       y       z     vdW  Elec       q    Type
REMARK                         _______ _______ _______ _____ _____    ______ ____
ROOT
ATOM      1  C   UNL     1       3.704   5.629  18.820  0.00  0.00    +0.000 A 
ATOM      2  C   UNL     1       3.461   5.169  17.524  0.00  0.00    +0.000 A 
ATOM      3  C   UNL     1       4.540   4.792  16.718  0.00  0.00    +0.000 A 
ATOM      4  C   UNL     1       5.879   4.900  17.174  0.00  0.00    +0.000 A 
ATOM      5  C   UNL     1       6.131   5.395  18.480  0.00  0.00    +0.000 A 
ATOM      6  C   UNL     1       5.012   5.666  19.298  0.00  0.00    +0.000 A 
ENDROOT
BRANCH   4   7
ATOM      7  C   UNL     1       6.957   4.405  16.244  0.00  0.00    +0.000 C 
ATOM      8  O   UNL     1       8.110   4.209  16.711  0.00  0.00    +0.000 OA
ATOM      9  O   UNL     1       6.532   3.991  15.117  0.00  0.00    +0.000 OA
ENDBRANCH   4   7
BRANCH   5  10
ATOM     10  C   UNL     1       7.441   5.854  19.088  0.00  0.00    +0.000 C 
ATOM     11  O   UNL     1       7.730   5.365  20.246  0.00  0.00    +0.000 OA
ATOM     12  O   UNL     1       8.020   6.868  18.589  0.00  0.00    +0.000 OA
ENDBRANCH   5  10
BRANCH   1  13
ATOM     13  C   UNL     1       2.589   6.101  19.716  0.00  0.00    +0.000 C 
BRANCH  13  14
ATOM     14  N   UNL     1       2.435   5.321  20.981  0.00  0.00    +0.000 NA
ATOM     15  H   UNL     1       3.382   5.077  21.288  0.00  0.00    +0.000 HD
BRANCH  14  16
ATOM     16  C   UNL     1       1.729   4.043  20.774  0.00  0.00    +0.000 C 
BRANCH  16  17
ATOM     17  C   UNL     1       2.512   2.799  21.142  0.00  0.00    +0.000 C 
BRANCH  17  19
ATOM     18  O   UNL     1       4.754   2.351  20.337  0.00  0.00    +0.000 OA
ATOM     19  C   UNL     1       3.505   2.344  20.117  0.00  0.00    +0.000 C 
ATOM     20  O   UNL     1       3.058   1.982  18.989  0.00  0.00    +0.000 OA
ENDBRANCH  17  19
ENDBRANCH  16  17
ENDBRANCH  14  16
ENDBRANCH  13  14
ENDBRANCH   1  13
TORSDOF 7
ENDMDL
MODEL 7
REMARK VINA RESULT:      -6.7      1.566      2.702
REMARK  Name = 
REMARK  7 active torsions:
REMARK  status: ('A' for Active; 'I' for Inactive)
REMARK    1  A    between atoms: C_2  and  C_4
REMARK    2  A    between atoms: C_4  and  C_5
REMARK    3  A    between atoms: C_5  and  N_6
REMARK    4  A    between atoms: N_6  and  C_7
REMARK    5  A    between atoms: C_7  and  C_8
REMARK    6  A    between atoms: C_11  and  C_12
REMARK    7  A    between atoms: C_15  and  C_16
REMARK                            x       y       z     vdW  Elec       q    Type
REMARK                         _______ _______ _______ _____ _____    ______ ____
ROOT
ATOM      1  C   UNL     1       4.116   5.866  17.468  0.00  0.00    +0.000 A 
ATOM      2  C   UNL     1       4.117   4.645  16.793  0.00  0.00    +0.000 A 
ATOM      3  C   UNL     1       3.319   3.599  17.268  0.00  0.00    +0.000 A 
ATOM      4  C   UNL     1       2.536   3.739  18.443  0.00  0.00    +0.000 A 
ATOM      5  C   UNL     1       2.556   4.970  19.149  0.00  0.00    +0.000 A 
ATOM      6  C   UNL     1       3.293   6.032  18.579  0.00  0.00    +0.000 A 
ENDROOT
BRANCH   4   7
ATOM      7  C   UNL     1       1.667   2.569  18.826  0.00  0.00    +0.000 C 
ATOM      8  O   UNL     1       0.570   2.413  18.226  0.00  0.00    +0.000 OA
ATOM      9  O   UNL     1       2.246   1.698  19.553  0.00  0.00    +0.000 OA
ENDBRANCH   4   7
BRANCH   5  10
ATOM     10  C   UNL     1       2.042   5.278  20.540  0.00  0.00    +0.000 C 
ATOM     11  O   UNL     1       1.593   6.473  20.726  0.00  0.00    +0.000 OA
ATOM     12  O   UNL     1       2.332   4.482  21.486  0.00  0.00    +0.000 OA
ENDBRANCH   5  10
BRANCH   1  13
ATOM     13  C   UNL     1       4.995   7.011  17.037  0.00  0.00    +0.000 C 
BRANCH  13  14
ATOM     14  N   UNL     1       6.392   6.623  16.679  0.00  0.00    +0.000 NA
ATOM     15  H   UNL     1       6.523   5.666  17.021  0.00  0.00    +0.000 HD
BRANCH  14  16
ATOM     16  C   UNL     1       7.402   7.447  17.370  0.00  0.00    +0.000 C 
BRANCH  16  17
ATOM     17  C   UNL     1       8.037   6.813  18.590  0.00  0.00    +0.000 C 
BRANCH  17  19
ATOM     18  O   UNL     1       8.002   4.414  18.244  0.00  0.00    +0.000 OA
ATOM     19  C   UNL     1       7.580   5.419  18.894  0.00  0.00    +0.000 C 
ATOM     20  O   UNL     1       6.717   5.271  19.809  0.00  0.00    +0.000 OA
ENDBRANCH  17  19
ENDBRANCH  16  17
ENDBRANCH  14  16
ENDBRANCH  13  14
ENDBRANCH   1  13
TORSDOF 7
ENDMDL
MODEL 8
REMARK VINA RESULT:      -6.6      0.889      1.558
REMARK  Name = 
REMARK  7 active torsions:
REMARK  status: ('A' for Active; 'I' for Inactive)
REMARK    1  A    between atoms: C_2  and  C_4
REMARK    2  A    between atoms: C_4  and  C_5
REMARK    3  A    between atoms: C_5  and  N_6
REMARK    4  A    between atoms: N_6  and  C_7
REMARK    5  A    between atoms: C_7  and  C_8
REMARK    6  A    between atoms: C_11  and  C_12
REMARK    7  A    between atoms: C_15  and  C_16
REMARK                            x       y       z     vdW  Elec       q    Type
REMARK                         _______ _______ _______ _____ _____    ______ ____
ROOT
ATOM      1  C   UNL     1       3.935   5.788  17.698  0.00  0.00    +0.000 A 
ATOM      2  C   UNL     1       2.605   6.161  17.895  0.00  0.00    +0.000 A 
ATOM      3  C   UNL     1       1.749   5.300  18.590  0.00  0.00    +0.000 A 
ATOM      4  C   UNL     1       2.192   4.040  19.068  0.00  0.00    +0.000 A 
ATOM      5  C   UNL     1       3.536   3.644  18.842  0.00  0.00    +0.000 A 
ATOM      6  C   UNL     1       4.394   4.585  18.229  0.00  0.00    +0.000 A 
ENDROOT
BRANCH   4   7
ATOM      7  C   UNL     1       1.201   3.223  19.857  0.00  0.00    +0.000 C 
ATOM      8  O   UNL     1       1.050   3.480  21.082  0.00  0.00    +0.000 OA
ATOM      9  O   UNL     1       0.421   2.510  19.147  0.00  0.00    +0.000 OA
ENDBRANCH   4   7
BRANCH   5  10
ATOM     10  C   UNL     1       4.166   2.276  19.002  0.00  0.00    +0.000 C 
ATOM     11  O   UNL     1       3.672   1.336  18.270  0.00  0.00    +0.000 OA
ATOM     12  O   UNL     1       4.913   2.064  20.007  0.00  0.00    +0.000 OA
ENDBRANCH   5  10
BRANCH   1  13
ATOM     13  C   UNL     1       4.891   6.646  16.911  0.00  0.00    +0.000 C 
BRANCH  13  14
ATOM     14  N   UNL     1       6.203   5.999  16.607  0.00  0.00    +0.000 NA
ATOM     15  H   UNL     1       6.271   5.181  17.221  0.00  0.00    +0.000 HD
BRANCH  14  16
ATOM     16  C   UNL     1       7.350   6.862  16.945  0.00  0.00    +0.000 C 
BRANCH  16  17
ATOM     17  C   UNL     1       7.777   6.839  18.399  0.00  0.00    +0.000 C 
BRANCH  17  19
ATOM     18  O   UNL     1       7.980   4.424  18.345  0.00  0.00    +0.000 OA
ATOM     19  C   UNL     1       7.817   5.480  19.028  0.00  0.00    +0.000 C 
ATOM     20  O   UNL     1       7.644   5.409  20.281  0.00  0.00    +0.000 OA
ENDBRANCH  17  19
ENDBRANCH  16  17
ENDBRANCH  14  16
ENDBRANCH  13  14
ENDBRANCH   1  13
TORSDOF 7
ENDMDL
MODEL 9
REMARK VINA RESULT:      -6.6      1.889      2.983
REMARK  Name = 
REMARK  7 active torsions:
REMARK  status: ('A' for Active; 'I' for Inactive)
REMARK    1  A    between atoms: C_2  and  C_4
REMARK    2  A    between atoms: C_4  and  C_5
REMARK    3  A    between atoms: C_5  and  N_6
REMARK    4  A    between atoms: N_6  and  C_7
REMARK    5  A    between atoms: C_7  and  C_8
REMARK    6  A    between atoms: C_11  and  C_12
REMARK    7  A    between atoms: C_15  and  C_16
REMARK                            x       y       z     vdW  Elec       q    Type
REMARK                         _______ _______ _______ _____ _____    ______ ____
ROOT
ATOM      1  C   UNL     1       4.778   5.393  16.621  0.00  0.00    +0.000 A 
ATOM      2  C   UNL     1       4.832   4.001  16.545  0.00  0.00    +0.000 A 
ATOM      3  C   UNL     1       3.985   3.238  17.355  0.00  0.00    +0.000 A 
ATOM      4  C   UNL     1       3.096   3.846  18.279  0.00  0.00    +0.000 A 
ATOM      5  C   UNL     1       3.060   5.262  18.380  0.00  0.00    +0.000 A 
ATOM      6  C   UNL     1       3.856   5.997  17.473  0.00  0.00    +0.000 A 
ENDROOT
BRANCH   4   7
ATOM      7  C   UNL     1       2.186   2.929  19.055  0.00  0.00    +0.000 C 
ATOM      8  O   UNL     1       2.620   2.411  20.119  0.00  0.00    +0.000 OA
ATOM      9  O   UNL     1       0.967   2.963  18.689  0.00  0.00    +0.000 OA
ENDBRANCH   4   7
BRANCH   5  10
ATOM     10  C   UNL     1       2.421   6.124  19.449  0.00  0.00    +0.000 C 
ATOM     11  O   UNL     1       2.431   7.395  19.232  0.00  0.00    +0.000 OA
ATOM     12  O   UNL     1       2.181   5.607  20.584  0.00  0.00    +0.000 OA
ENDBRANCH   5  10
BRANCH   1  13
ATOM     13  C   UNL     1       5.702   6.268  15.815  0.00  0.00    +0.000 C 
BRANCH  13  14
ATOM     14  N   UNL     1       7.131   6.231  16.249  0.00  0.00    +0.000 NA
ATOM     15  H   UNL     1       7.258   5.346  16.751  0.00  0.00    +0.000 HD
BRANCH  14  16
ATOM     16  C   UNL     1       7.456   7.299  17.213  0.00  0.00    +0.000 C 
BRANCH  16  17
ATOM     17  C   UNL     1       7.956   6.828  18.564  0.00  0.00    +0.000 C 
BRANCH  17  19
ATOM     18  O   UNL     1       8.038   4.422  18.281  0.00  0.00    +0.000 OA
ATOM     19  C   UNL     1       7.590   5.421  18.923  0.00  0.00    +0.000 C 
ATOM     20  O   UNL     1       6.777   5.252  19.878  0.00  0.00    +0.000 OA
ENDBRANCH  17  19
ENDBRANCH  16  17
ENDBRANCH  14  16
ENDBRANCH  13  14
ENDBRANCH   1  13
TORSDOF 7
ENDMDL
