MODEL 1
REMARK VINA RESULT:      -7.6      0.000      0.000
REMARK  Name = 
REMARK  9 active torsions:
REMARK  status: ('A' for Active; 'I' for Inactive)
REMARK    1  A    between atoms: C_1  and  C_2
REMARK    2  A    between atoms: C_2  and  C_3
REMARK    3  A    between atoms: C_3  and  O_4
REMARK    4  A    between atoms: O_4  and  C_5
REMARK    5  A    between atoms: C_10  and  C_11
REMARK    6  A    between atoms: C_18  and  C_19
REMARK    7  A    between atoms: C_26  and  C_27
REMARK    8  A    between atoms: C_31  and  O_32
REMARK    9  A    between atoms: O_32  and  C_33
REMARK                            x       y       z     vdW  Elec       q    Type
REMARK                         _______ _______ _______ _____ _____    ______ ____
ROOT
ATOM      1  C   UNL     1       0.147  10.595  17.945  0.00  0.00    +0.000 C 
ATOM      2  C   UNL     1      -1.140  10.052  17.312  0.00  0.00    +0.000 C 
ATOM      3  C   UNL     1      -2.355  10.268  18.176  0.00  0.00    +0.000 C 
ATOM      4  O   UNL     1      -3.345   9.556  18.187  0.00  0.00    +0.000 OA
ATOM      5  N   UNL     1      -2.445  11.498  18.886  0.00  0.00    +0.000 N 
ATOM      6  C   UNL     1      -1.320  12.272  19.076  0.00  0.00    +0.000 A 
ATOM      7  C   UNL     1      -0.077  11.857  18.679  0.00  0.00    +0.000 A 
ATOM      8  C   UNL     1       0.786  12.904  19.089  0.00  0.00    +0.000 A 
ATOM      9  C   UNL     1       2.267  12.983  18.998  0.00  0.00    +0.000 C 
ATOM     10  N   UNL     1       0.108  13.919  19.649  0.00  0.00    +0.000 NA
ATOM     11  N   UNL     1      -1.179  13.480  19.722  0.00  0.00    +0.000 N 
ATOM     12  C   UNL     1      -2.208  14.132  20.456  0.00  0.00    +0.000 A 
ATOM     13  N   UNL     1      -1.931  15.299  21.072  0.00  0.00    +0.000 NA
ATOM     14  N   UNL     1      -2.849  15.830  21.915  0.00  0.00    +0.000 NA
ATOM     15  C   UNL     1      -4.000  15.158  22.124  0.00  0.00    +0.000 A 
ATOM     16  C   UNL     1      -4.281  13.980  21.460  0.00  0.00    +0.000 A 
ATOM     17  N   UNL     1      -3.381  13.459  20.590  0.00  0.00    +0.000 NA
ATOM     18  H   UNL     1      -3.326  11.768  19.319  0.00  0.00    +0.000 HD
ENDROOT
BRANCH   1  24
ATOM     19  C   UNL     1       0.622   9.313  20.187  0.00  0.00    +0.000 A 
ATOM     20  C   UNL     1       1.196   8.174  20.779  0.00  0.00    +0.000 A 
ATOM     21  C   UNL     1       2.085   7.358  20.081  0.00  0.00    +0.000 A 
ATOM     22  C   UNL     1       2.409   7.661  18.770  0.00  0.00    +0.000 A 
ATOM     23  C   UNL     1       1.791   8.742  18.146  0.00  0.00    +0.000 A 
ATOM     24  C   UNL     1       0.868   9.579  18.824  0.00  0.00    +0.000 A 
BRANCH  19  25
ATOM     25  O   UNL     1      -0.205  10.148  20.912  0.00  0.00    +0.000 OA
BRANCH  25  26
ATOM     26  C   UNL     1      -0.014  10.035  22.340  0.00  0.00    +0.000 C 
BRANCH  26  28
ATOM     27  C   UNL     1      -1.171  12.163  23.036  0.00  0.00    +0.000 C 
ATOM     28  C   UNL     1      -1.187  10.639  23.103  0.00  0.00    +0.000 C 
ENDBRANCH  26  28
ENDBRANCH  25  26
ENDBRANCH  19  25
ENDBRANCH   1  24
BRANCH  16  29
ATOM     29  C   UNL     1      -5.504  13.177  21.672  0.00  0.00    +0.000 A 
ATOM     30  C   UNL     1      -6.282  13.370  22.833  0.00  0.00    +0.000 A 
ATOM     31  C   UNL     1      -7.433  12.622  23.075  0.00  0.00    +0.000 A 
ATOM     32  C   UNL     1      -7.837  11.667  22.150  0.00  0.00    +0.000 A 
ATOM     33  C   UNL     1      -7.103  11.453  20.985  0.00  0.00    +0.000 A 
ATOM     34  C   UNL     1      -5.942  12.201  20.751  0.00  0.00    +0.000 A 
BRANCH  33  35
ATOM     35  O   UNL     1      -7.623  10.485  20.172  0.00  0.00    +0.000 OA
ATOM     36  C   UNL     1      -6.861  10.083  19.043  0.00  0.00    +0.000 C 
ENDBRANCH  33  35
ENDBRANCH  16  29
TORSDOF 6
ENDMDL
MODEL 2
REMARK VINA RESULT:      -7.3      3.752      8.188
REMARK  Name = 
REMARK  9 active torsions:
REMARK  status: ('A' for Active; 'I' for Inactive)
REMARK    1  A    between atoms: C_1  and  C_2
REMARK    2  A    between atoms: C_2  and  C_3
REMARK    3  A    between atoms: C_3  and  O_4
REMARK    4  A    between atoms: O_4  and  C_5
REMARK    5  A    between atoms: C_10  and  C_11
REMARK    6  A    between atoms: C_18  and  C_19
REMARK    7  A    between atoms: C_26  and  C_27
REMARK    8  A    between atoms: C_31  and  O_32
REMARK    9  A    between atoms: O_32  and  C_33
REMARK                            x       y       z     vdW  Elec       q    Type
REMARK                         _______ _______ _______ _____ _____    ______ ____
ROOT
ATOM      1  C   UNL     1      -0.663  11.502  20.701  0.00  0.00    +0.000 C 
ATOM      2  C   UNL     1      -0.672  10.638  21.968  0.00  0.00    +0.000 C 
ATOM      3  C   UNL     1      -0.355   9.192  21.694  0.00  0.00    +0.000 C 
ATOM      4  O   UNL     1      -0.757   8.247  22.353  0.00  0.00    +0.000 OA
ATOM      5  N   UNL     1       0.645   8.912  20.721  0.00  0.00    +0.000 N 
ATOM      6  C   UNL     1       1.020   9.882  19.814  0.00  0.00    +0.000 A 
ATOM      7  C   UNL     1       0.396  11.099  19.754  0.00  0.00    +0.000 A 
ATOM      8  C   UNL     1       1.043  11.768  18.684  0.00  0.00    +0.000 A 
ATOM      9  C   UNL     1       0.743  13.099  18.096  0.00  0.00    +0.000 C 
ATOM     10  N   UNL     1       2.036  11.029  18.162  0.00  0.00    +0.000 NA
ATOM     11  N   UNL     1       1.953   9.830  18.803  0.00  0.00    +0.000 N 
ATOM     12  C   UNL     1       2.658   8.660  18.410  0.00  0.00    +0.000 A 
ATOM     13  N   UNL     1       3.524   8.736  17.378  0.00  0.00    +0.000 NA
ATOM     14  N   UNL     1       4.061   7.594  16.887  0.00  0.00    +0.000 NA
ATOM     15  C   UNL     1       3.692   6.418  17.435  0.00  0.00    +0.000 A 
ATOM     16  C   UNL     1       2.828   6.361  18.512  0.00  0.00    +0.000 A 
ATOM     17  N   UNL     1       2.312   7.502  19.030  0.00  0.00    +0.000 NA
ATOM     18  H   UNL     1       1.028   7.972  20.644  0.00  0.00    +0.000 HD
ENDROOT
BRANCH   1  24
ATOM     19  C   UNL     1      -3.085  12.437  20.309  0.00  0.00    +0.000 A 
ATOM     20  C   UNL     1      -4.160  12.547  19.409  0.00  0.00    +0.000 A 
ATOM     21  C   UNL     1      -4.246  11.746  18.271  0.00  0.00    +0.000 A 
ATOM     22  C   UNL     1      -3.248  10.824  18.007  0.00  0.00    +0.000 A 
ATOM     23  C   UNL     1      -2.140  10.755  18.847  0.00  0.00    +0.000 A 
ATOM     24  C   UNL     1      -2.016  11.570  20.001  0.00  0.00    +0.000 A 
BRANCH  19  25
ATOM     25  O   UNL     1      -3.048  13.192  21.466  0.00  0.00    +0.000 OA
BRANCH  25  26
ATOM     26  C   UNL     1      -4.073  12.823  22.416  0.00  0.00    +0.000 C 
BRANCH  26  28
ATOM     27  C   UNL     1      -4.494  12.381  24.861  0.00  0.00    +0.000 C 
ATOM     28  C   UNL     1      -3.462  12.372  23.737  0.00  0.00    +0.000 C 
ENDBRANCH  26  28
ENDBRANCH  25  26
ENDBRANCH  19  25
ENDBRANCH   1  24
BRANCH  16  29
ATOM     29  C   UNL     1       2.355   5.105  19.133  0.00  0.00    +0.000 A 
ATOM     30  C   UNL     1       1.528   5.150  20.275  0.00  0.00    +0.000 A 
ATOM     31  C   UNL     1       1.076   3.988  20.897  0.00  0.00    +0.000 A 
ATOM     32  C   UNL     1       1.435   2.750  20.381  0.00  0.00    +0.000 A 
ATOM     33  C   UNL     1       2.242   2.660  19.247  0.00  0.00    +0.000 A 
ATOM     34  C   UNL     1       2.701   3.832  18.631  0.00  0.00    +0.000 A 
BRANCH  33  35
ATOM     35  O   UNL     1       2.509   1.378  18.856  0.00  0.00    +0.000 OA
ATOM     36  C   UNL     1       3.814   1.086  18.378  0.00  0.00    +0.000 C 
ENDBRANCH  33  35
ENDBRANCH  16  29
TORSDOF 6
ENDMDL
MODEL 3
REMARK VINA RESULT:      -7.0      3.668      8.112
REMARK  Name = 
REMARK  9 active torsions:
REMARK  status: ('A' for Active; 'I' for Inactive)
REMARK    1  A    between atoms: C_1  and  C_2
REMARK    2  A    between atoms: C_2  and  C_3
REMARK    3  A    between atoms: C_3  and  O_4
REMARK    4  A    between atoms: O_4  and  C_5
REMARK    5  A    between atoms: C_10  and  C_11
REMARK    6  A    between atoms: C_18  and  C_19
REMARK    7  A    between atoms: C_26  and  C_27
REMARK    8  A    between atoms: C_31  and  O_32
REMARK    9  A    between atoms: O_32  and  C_33
REMARK                            x       y       z     vdW  Elec       q    Type
REMARK                         _______ _______ _______ _____ _____    ______ ____
ROOT
ATOM      1  C   UNL     1      -0.518  11.407  20.704  0.00  0.00    +0.000 C 
ATOM      2  C   UNL     1      -0.550  10.520  21.955  0.00  0.00    +0.000 C 
ATOM      3  C   UNL     1      -0.292   9.068  21.651  0.00  0.00    +0.000 C 
ATOM      4  O   UNL     1      -0.725   8.127  22.296  0.00  0.00    +0.000 OA
ATOM      5  N   UNL     1       0.689   8.768  20.664  0.00  0.00    +0.000 N 
ATOM      6  C   UNL     1       1.094   9.740  19.773  0.00  0.00    +0.000 A 
ATOM      7  C   UNL     1       0.517  10.981  19.740  0.00  0.00    +0.000 A 
ATOM      8  C   UNL     1       1.182  11.644  18.678  0.00  0.00    +0.000 A 
ATOM      9  C   UNL     1       0.929  12.997  18.118  0.00  0.00    +0.000 C 
ATOM     10  N   UNL     1       2.141  10.878  18.134  0.00  0.00    +0.000 NA
ATOM     11  N   UNL     1       2.016   9.672  18.753  0.00  0.00    +0.000 N 
ATOM     12  C   UNL     1       2.673   8.483  18.332  0.00  0.00    +0.000 A 
ATOM     13  N   UNL     1       3.532   8.545  17.294  0.00  0.00    +0.000 NA
ATOM     14  N   UNL     1       4.021   7.392  16.777  0.00  0.00    +0.000 NA
ATOM     15  C   UNL     1       3.611   6.221  17.307  0.00  0.00    +0.000 A 
ATOM     16  C   UNL     1       2.754   6.177  18.389  0.00  0.00    +0.000 A 
ATOM     17  N   UNL     1       2.287   7.327  18.934  0.00  0.00    +0.000 NA
ATOM     18  H   UNL     1       1.034   7.815  20.567  0.00  0.00    +0.000 HD
ENDROOT
BRANCH   1  24
ATOM     19  C   UNL     1      -2.919  12.416  20.374  0.00  0.00    +0.000 A 
ATOM     20  C   UNL     1      -3.996  12.594  19.488  0.00  0.00    +0.000 A 
ATOM     21  C   UNL     1      -4.107  11.852  18.313  0.00  0.00    +0.000 A 
ATOM     22  C   UNL     1      -3.133  10.921  17.997  0.00  0.00    +0.000 A 
ATOM     23  C   UNL     1      -2.022  10.785  18.826  0.00  0.00    +0.000 A 
ATOM     24  C   UNL     1      -1.872  11.540  20.018  0.00  0.00    +0.000 A 
BRANCH  19  25
ATOM     25  O   UNL     1      -2.859  13.111  21.566  0.00  0.00    +0.000 OA
BRANCH  25  26
ATOM     26  C   UNL     1      -3.996  12.867  22.424  0.00  0.00    +0.000 C 
BRANCH  26  28
ATOM     27  C   UNL     1      -4.751  12.269  24.753  0.00  0.00    +0.000 C 
ATOM     28  C   UNL     1      -3.554  12.516  23.839  0.00  0.00    +0.000 C 
ENDBRANCH  26  28
ENDBRANCH  25  26
ENDBRANCH  19  25
ENDBRANCH   1  24
BRANCH  16  29
ATOM     29  C   UNL     1       2.238   4.929  18.991  0.00  0.00    +0.000 A 
ATOM     30  C   UNL     1       1.575   3.978  18.186  0.00  0.00    +0.000 A 
ATOM     31  C   UNL     1       1.062   2.798  18.720  0.00  0.00    +0.000 A 
ATOM     32  C   UNL     1       1.211   2.537  20.076  0.00  0.00    +0.000 A 
ATOM     33  C   UNL     1       1.869   3.445  20.905  0.00  0.00    +0.000 A 
ATOM     34  C   UNL     1       2.375   4.634  20.365  0.00  0.00    +0.000 A 
BRANCH  33  35
ATOM     35  O   UNL     1       1.939   3.052  22.212  0.00  0.00    +0.000 OA
ATOM     36  C   UNL     1       1.107   1.979  22.630  0.00  0.00    +0.000 C 
ENDBRANCH  33  35
ENDBRANCH  16  29
TORSDOF 6
ENDMDL
MODEL 4
REMARK VINA RESULT:      -6.9      1.256      1.743
REMARK  Name = 
REMARK  9 active torsions:
REMARK  status: ('A' for Active; 'I' for Inactive)
REMARK    1  A    between atoms: C_1  and  C_2
REMARK    2  A    between atoms: C_2  and  C_3
REMARK    3  A    between atoms: C_3  and  O_4
REMARK    4  A    between atoms: O_4  and  C_5
REMARK    5  A    between atoms: C_10  and  C_11
REMARK    6  A    between atoms: C_18  and  C_19
REMARK    7  A    between atoms: C_26  and  C_27
REMARK    8  A    between atoms: C_31  and  O_32
REMARK    9  A    between atoms: O_32  and  C_33
REMARK                            x       y       z     vdW  Elec       q    Type
REMARK                         _______ _______ _______ _____ _____    ______ ____
ROOT
ATOM      1  C   UNL     1      -0.027  11.121  18.005  0.00  0.00    +0.000 C 
ATOM      2  C   UNL     1      -1.488  10.777  17.689  0.00  0.00    +0.000 C 
ATOM      3  C   UNL     1      -2.452  11.318  18.711  0.00  0.00    +0.000 C 
ATOM      4  O   UNL     1      -3.528  10.820  18.996  0.00  0.00    +0.000 OA
ATOM      5  N   UNL     1      -2.187  12.612  19.243  0.00  0.00    +0.000 N 
ATOM      6  C   UNL     1      -0.930  13.166  19.122  0.00  0.00    +0.000 A 
ATOM      7  C   UNL     1       0.120  12.474  18.579  0.00  0.00    +0.000 A 
ATOM      8  C   UNL     1       1.214  13.371  18.678  0.00  0.00    +0.000 A 
ATOM      9  C   UNL     1       2.639  13.147  18.321  0.00  0.00    +0.000 C 
ATOM     10  N   UNL     1       0.845  14.553  19.197  0.00  0.00    +0.000 NA
ATOM     11  N   UNL     1      -0.459  14.385  19.555  0.00  0.00    +0.000 N 
ATOM     12  C   UNL     1      -1.194  15.301  20.356  0.00  0.00    +0.000 A 
ATOM     13  N   UNL     1      -0.604  16.451  20.742  0.00  0.00    +0.000 NA
ATOM     14  N   UNL     1      -1.231  17.239  21.646  0.00  0.00    +0.000 NA
ATOM     15  C   UNL     1      -2.417  16.833  22.146  0.00  0.00    +0.000 A 
ATOM     16  C   UNL     1      -3.022  15.668  21.717  0.00  0.00    +0.000 A 
ATOM     17  N   UNL     1      -2.416  14.890  20.787  0.00  0.00    +0.000 NA
ATOM     18  H   UNL     1      -2.905  13.094  19.780  0.00  0.00    +0.000 HD
ENDROOT
BRANCH   1  24
ATOM     19  C   UNL     1       0.450   9.856  20.255  0.00  0.00    +0.000 A 
ATOM     20  C   UNL     1       0.983   8.699  20.851  0.00  0.00    +0.000 A 
ATOM     21  C   UNL     1       1.806   7.825  20.142  0.00  0.00    +0.000 A 
ATOM     22  C   UNL     1       2.104   8.088  18.816  0.00  0.00    +0.000 A 
ATOM     23  C   UNL     1       1.524   9.189  18.191  0.00  0.00    +0.000 A 
ATOM     24  C   UNL     1       0.667  10.085  18.880  0.00  0.00    +0.000 A 
BRANCH  19  25
ATOM     25  O   UNL     1      -0.310  10.746  20.989  0.00  0.00    +0.000 OA
BRANCH  25  26
ATOM     26  C   UNL     1      -0.492  10.337  22.363  0.00  0.00    +0.000 C 
BRANCH  26  28
ATOM     27  C   UNL     1      -1.146  12.685  23.003  0.00  0.00    +0.000 C 
ATOM     28  C   UNL     1      -1.526  11.209  23.065  0.00  0.00    +0.000 C 
ENDBRANCH  26  28
ENDBRANCH  25  26
ENDBRANCH  19  25
ENDBRANCH   1  24
BRANCH  16  29
ATOM     29  C   UNL     1      -4.299  15.148  22.251  0.00  0.00    +0.000 A 
ATOM     30  C   UNL     1      -5.114  15.971  23.056  0.00  0.00    +0.000 A 
ATOM     31  C   UNL     1      -6.317  15.511  23.590  0.00  0.00    +0.000 A 
ATOM     32  C   UNL     1      -6.736  14.216  23.319  0.00  0.00    +0.000 A 
ATOM     33  C   UNL     1      -5.966  13.373  22.518  0.00  0.00    +0.000 A 
ATOM     34  C   UNL     1      -4.754  13.837  21.992  0.00  0.00    +0.000 A 
BRANCH  33  35
ATOM     35  O   UNL     1      -6.507  12.131  22.339  0.00  0.00    +0.000 OA
ATOM     36  C   UNL     1      -7.907  12.041  22.111  0.00  0.00    +0.000 C 
ENDBRANCH  33  35
ENDBRANCH  16  29
TORSDOF 6
ENDMDL
MODEL 5
REMARK VINA RESULT:      -6.8      3.638      8.134
REMARK  Name = 
REMARK  9 active torsions:
REMARK  status: ('A' for Active; 'I' for Inactive)
REMARK    1  A    between atoms: C_1  and  C_2
REMARK    2  A    between atoms: C_2  and  C_3
REMARK    3  A    between atoms: C_3  and  O_4
REMARK    4  A    between atoms: O_4  and  C_5
REMARK    5  A    between atoms: C_10  and  C_11
REMARK    6  A    between atoms: C_18  and  C_19
REMARK    7  A    between atoms: C_26  and  C_27
REMARK    8  A    between atoms: C_31  and  O_32
REMARK    9  A    between atoms: O_32  and  C_33
REMARK                            x       y       z     vdW  Elec       q    Type
REMARK                         _______ _______ _______ _____ _____    ______ ____
ROOT
ATOM      1  C   UNL     1      -0.699  11.635  20.898  0.00  0.00    +0.000 C 
ATOM      2  C   UNL     1      -0.653  10.752  22.151  0.00  0.00    +0.000 C 
ATOM      3  C   UNL     1      -0.348   9.310  21.842  0.00  0.00    +0.000 C 
ATOM      4  O   UNL     1      -0.722   8.355  22.502  0.00  0.00    +0.000 OA
ATOM      5  N   UNL     1       0.609   9.046  20.822  0.00  0.00    +0.000 N 
ATOM      6  C   UNL     1       0.944  10.030  19.915  0.00  0.00    +0.000 A 
ATOM      7  C   UNL     1       0.319  11.248  19.900  0.00  0.00    +0.000 A 
ATOM      8  C   UNL     1       0.919  11.933  18.814  0.00  0.00    +0.000 A 
ATOM      9  C   UNL     1       0.594  13.273  18.261  0.00  0.00    +0.000 C 
ATOM     10  N   UNL     1       1.889  11.203  18.239  0.00  0.00    +0.000 NA
ATOM     11  N   UNL     1       1.833   9.995  18.865  0.00  0.00    +0.000 N 
ATOM     12  C   UNL     1       2.521   8.831  18.423  0.00  0.00    +0.000 A 
ATOM     13  N   UNL     1       3.341   8.923  17.356  0.00  0.00    +0.000 NA
ATOM     14  N   UNL     1       3.857   7.789  16.825  0.00  0.00    +0.000 NA
ATOM     15  C   UNL     1       3.511   6.605  17.370  0.00  0.00    +0.000 A 
ATOM     16  C   UNL     1       2.695   6.530  18.482  0.00  0.00    +0.000 A 
ATOM     17  N   UNL     1       2.202   7.663  19.040  0.00  0.00    +0.000 NA
ATOM     18  H   UNL     1       0.988   8.107  20.714  0.00  0.00    +0.000 HD
ENDROOT
BRANCH   1  24
ATOM     19  C   UNL     1      -3.173  12.489  20.697  0.00  0.00    +0.000 A 
ATOM     20  C   UNL     1      -4.288  12.644  19.853  0.00  0.00    +0.000 A 
ATOM     21  C   UNL     1      -4.384  11.967  18.639  0.00  0.00    +0.000 A 
ATOM     22  C   UNL     1      -3.358  11.128  18.239  0.00  0.00    +0.000 A 
ATOM     23  C   UNL     1      -2.215  11.022  19.028  0.00  0.00    +0.000 A 
ATOM     24  C   UNL     1      -2.080  11.713  20.259  0.00  0.00    +0.000 A 
BRANCH  19  25
ATOM     25  O   UNL     1      -3.123  13.115  21.928  0.00  0.00    +0.000 OA
BRANCH  25  26
ATOM     26  C   UNL     1      -3.190  14.556  21.835  0.00  0.00    +0.000 C 
BRANCH  26  28
ATOM     27  C   UNL     1      -0.825  14.902  22.633  0.00  0.00    +0.000 C 
ATOM     28  C   UNL     1      -1.825  15.151  21.509  0.00  0.00    +0.000 C 
ENDBRANCH  26  28
ENDBRANCH  25  26
ENDBRANCH  19  25
ENDBRANCH   1  24
BRANCH  16  29
ATOM     29  C   UNL     1       2.249   5.265  19.103  0.00  0.00    +0.000 A 
ATOM     30  C   UNL     1       1.474   5.291  20.281  0.00  0.00    +0.000 A 
ATOM     31  C   UNL     1       1.048   4.120  20.904  0.00  0.00    +0.000 A 
ATOM     32  C   UNL     1       1.383   2.890  20.352  0.00  0.00    +0.000 A 
ATOM     33  C   UNL     1       2.138   2.819  19.182  0.00  0.00    +0.000 A 
ATOM     34  C   UNL     1       2.571   4.000  18.566  0.00  0.00    +0.000 A 
BRANCH  33  35
ATOM     35  O   UNL     1       2.387   1.543  18.760  0.00  0.00    +0.000 OA
ATOM     36  C   UNL     1       3.709   1.223  18.350  0.00  0.00    +0.000 C 
ENDBRANCH  33  35
ENDBRANCH  16  29
TORSDOF 6
ENDMDL
MODEL 6
REMARK VINA RESULT:      -6.7      2.572      4.065
REMARK  Name = 
REMARK  9 active torsions:
REMARK  status: ('A' for Active; 'I' for Inactive)
REMARK    1  A    between atoms: C_1  and  C_2
REMARK    2  A    between atoms: C_2  and  C_3
REMARK    3  A    between atoms: C_3  and  O_4
REMARK    4  A    between atoms: O_4  and  C_5
REMARK    5  A    between atoms: C_10  and  C_11
REMARK    6  A    between atoms: C_18  and  C_19
REMARK    7  A    between atoms: C_26  and  C_27
REMARK    8  A    between atoms: C_31  and  O_32
REMARK    9  A    between atoms: O_32  and  C_33
REMARK                            x       y       z     vdW  Elec       q    Type
REMARK                         _______ _______ _______ _____ _____    ______ ____
ROOT
ATOM      1  C   UNL     1       0.583  11.782  20.871  0.00  0.00    +0.000 C 
ATOM      2  C   UNL     1       0.689  13.223  20.359  0.00  0.00    +0.000 C 
ATOM      3  C   UNL     1      -0.653  13.875  20.160  0.00  0.00    +0.000 C 
ATOM      4  O   UNL     1      -0.896  14.751  19.346  0.00  0.00    +0.000 OA
ATOM      5  N   UNL     1      -1.668  13.597  21.119  0.00  0.00    +0.000 N 
ATOM      6  C   UNL     1      -1.550  12.505  21.953  0.00  0.00    +0.000 A 
ATOM      7  C   UNL     1      -0.522  11.608  21.836  0.00  0.00    +0.000 A 
ATOM      8  C   UNL     1      -0.793  10.639  22.834  0.00  0.00    +0.000 A 
ATOM      9  C   UNL     1      -0.064   9.379  23.134  0.00  0.00    +0.000 C 
ATOM     10  N   UNL     1      -1.884  10.951  23.551  0.00  0.00    +0.000 NA
ATOM     11  N   UNL     1      -2.398  12.054  22.940  0.00  0.00    +0.000 N 
ATOM     12  C   UNL     1      -3.683  12.598  23.216  0.00  0.00    +0.000 A 
ATOM     13  N   UNL     1      -4.431  12.042  24.191  0.00  0.00    +0.000 NA
ATOM     14  N   UNL     1      -5.718  12.438  24.337  0.00  0.00    +0.000 NA
ATOM     15  C   UNL     1      -6.211  13.361  23.485  0.00  0.00    +0.000 A 
ATOM     16  C   UNL     1      -5.422  13.943  22.512  0.00  0.00    +0.000 A 
ATOM     17  N   UNL     1      -4.124  13.576  22.381  0.00  0.00    +0.000 NA
ATOM     18  H   UNL     1      -2.516  14.159  21.136  0.00  0.00    +0.000 HD
ENDROOT
BRANCH   1  24
ATOM     19  C   UNL     1      -0.524  10.625  18.791  0.00  0.00    +0.000 A 
ATOM     20  C   UNL     1      -0.325   9.781  17.684  0.00  0.00    +0.000 A 
ATOM     21  C   UNL     1       0.810   8.980  17.571  0.00  0.00    +0.000 A 
ATOM     22  C   UNL     1       1.776   9.018  18.561  0.00  0.00    +0.000 A 
ATOM     23  C   UNL     1       1.630   9.904  19.625  0.00  0.00    +0.000 A 
ATOM     24  C   UNL     1       0.495  10.745  19.758  0.00  0.00    +0.000 A 
BRANCH  19  25
ATOM     25  O   UNL     1      -1.685  11.362  18.921  0.00  0.00    +0.000 OA
BRANCH  25  26
ATOM     26  C   UNL     1      -2.441  11.452  17.692  0.00  0.00    +0.000 C 
BRANCH  26  28
ATOM     27  C   UNL     1      -4.506  11.995  19.031  0.00  0.00    +0.000 C 
ATOM     28  C   UNL     1      -3.912  11.128  17.924  0.00  0.00    +0.000 C 
ENDBRANCH  26  28
ENDBRANCH  25  26
ENDBRANCH  19  25
ENDBRANCH   1  24
BRANCH  16  29
ATOM     29  C   UNL     1      -5.910  14.929  21.525  0.00  0.00    +0.000 A 
ATOM     30  C   UNL     1      -5.595  16.296  21.677  0.00  0.00    +0.000 A 
ATOM     31  C   UNL     1      -6.050  17.256  20.776  0.00  0.00    +0.000 A 
ATOM     32  C   UNL     1      -6.825  16.866  19.691  0.00  0.00    +0.000 A 
ATOM     33  C   UNL     1      -7.150  15.524  19.497  0.00  0.00    +0.000 A 
ATOM     34  C   UNL     1      -6.698  14.564  20.411  0.00  0.00    +0.000 A 
BRANCH  33  35
ATOM     35  O   UNL     1      -7.916  15.294  18.389  0.00  0.00    +0.000 OA
ATOM     36  C   UNL     1      -7.777  14.042  17.732  0.00  0.00    +0.000 C 
ENDBRANCH  33  35
ENDBRANCH  16  29
TORSDOF 6
ENDMDL
MODEL 7
REMARK VINA RESULT:      -6.7      3.356      5.993
REMARK  Name = 
REMARK  9 active torsions:
REMARK  status: ('A' for Active; 'I' for Inactive)
REMARK    1  A    between atoms: C_1  and  C_2
REMARK    2  A    between atoms: C_2  and  C_3
REMARK    3  A    between atoms: C_3  and  O_4
REMARK    4  A    between atoms: O_4  and  C_5
REMARK    5  A    between atoms: C_10  and  C_11
REMARK    6  A    between atoms: C_18  and  C_19
REMARK    7  A    between atoms: C_26  and  C_27
REMARK    8  A    between atoms: C_31  and  O_32
REMARK    9  A    between atoms: O_32  and  C_33
REMARK                            x       y       z     vdW  Elec       q    Type
REMARK                         _______ _______ _______ _____ _____    ______ ____
ROOT
ATOM      1  C   UNL     1       0.802  15.404  20.031  0.00  0.00    +0.000 C 
ATOM      2  C   UNL     1      -0.269  15.850  21.035  0.00  0.00    +0.000 C 
ATOM      3  C   UNL     1      -1.663  15.464  20.617  0.00  0.00    +0.000 C 
ATOM      4  O   UNL     1      -2.679  16.071  20.910  0.00  0.00    +0.000 OA
ATOM      5  N   UNL     1      -1.835  14.190  20.003  0.00  0.00    +0.000 N 
ATOM      6  C   UNL     1      -0.748  13.524  19.476  0.00  0.00    +0.000 A 
ATOM      7  C   UNL     1       0.500  14.084  19.439  0.00  0.00    +0.000 A 
ATOM      8  C   UNL     1       1.301  13.106  18.797  0.00  0.00    +0.000 A 
ATOM      9  C   UNL     1       2.732  13.181  18.404  0.00  0.00    +0.000 C 
ATOM     10  N   UNL     1       0.600  11.997  18.511  0.00  0.00    +0.000 NA
ATOM     11  N   UNL     1      -0.685  12.300  18.849  0.00  0.00    +0.000 N 
ATOM     12  C   UNL     1      -1.813  11.506  18.503  0.00  0.00    +0.000 A 
ATOM     13  N   UNL     1      -1.616  10.338  17.858  0.00  0.00    +0.000 NA
ATOM     14  N   UNL     1      -2.688   9.669  17.371  0.00  0.00    +0.000 NA
ATOM     15  C   UNL     1      -3.914  10.208  17.530  0.00  0.00    +0.000 A 
ATOM     16  C   UNL     1      -4.101  11.390  18.221  0.00  0.00    +0.000 A 
ATOM     17  N   UNL     1      -3.036  12.049  18.741  0.00  0.00    +0.000 NA
ATOM     18  H   UNL     1      -2.771  13.808  19.885  0.00  0.00    +0.000 HD
ENDROOT
BRANCH   1  24
ATOM     19  C   UNL     1       2.336  16.742  18.375  0.00  0.00    +0.000 A 
ATOM     20  C   UNL     1       2.387  17.527  17.209  0.00  0.00    +0.000 A 
ATOM     21  C   UNL     1       1.238  18.093  16.659  0.00  0.00    +0.000 A 
ATOM     22  C   UNL     1       0.011  17.873  17.261  0.00  0.00    +0.000 A 
ATOM     23  C   UNL     1      -0.066  17.037  18.372  0.00  0.00    +0.000 A 
ATOM     24  C   UNL     1       1.083  16.432  18.943  0.00  0.00    +0.000 A 
BRANCH  19  25
ATOM     25  O   UNL     1       3.492  16.244  18.945  0.00  0.00    +0.000 OA
BRANCH  25  26
ATOM     26  C   UNL     1       4.227  17.237  19.696  0.00  0.00    +0.000 C 
BRANCH  26  28
ATOM     27  C   UNL     1       3.652  16.582  22.060  0.00  0.00    +0.000 C 
ATOM     28  C   UNL     1       4.751  16.660  21.006  0.00  0.00    +0.000 C 
ENDBRANCH  26  28
ENDBRANCH  25  26
ENDBRANCH  19  25
ENDBRANCH   1  24
BRANCH  16  29
ATOM     29  C   UNL     1      -5.411  12.052  18.399  0.00  0.00    +0.000 A 
ATOM     30  C   UNL     1      -6.116  12.533  17.276  0.00  0.00    +0.000 A 
ATOM     31  C   UNL     1      -7.346  13.175  17.405  0.00  0.00    +0.000 A 
ATOM     32  C   UNL     1      -7.904  13.342  18.665  0.00  0.00    +0.000 A 
ATOM     33  C   UNL     1      -7.245  12.871  19.800  0.00  0.00    +0.000 A 
ATOM     34  C   UNL     1      -6.005  12.234  19.666  0.00  0.00    +0.000 A 
BRANCH  33  35
ATOM     35  O   UNL     1      -7.916  13.106  20.968  0.00  0.00    +0.000 OA
ATOM     36  C   UNL     1      -7.198  13.697  22.041  0.00  0.00    +0.000 C 
ENDBRANCH  33  35
ENDBRANCH  16  29
TORSDOF 6
ENDMDL
MODEL 8
REMARK VINA RESULT:      -6.6      2.565      4.931
REMARK  Name = 
REMARK  9 active torsions:
REMARK  status: ('A' for Active; 'I' for Inactive)
REMARK    1  A    between atoms: C_1  and  C_2
REMARK    2  A    between atoms: C_2  and  C_3
REMARK    3  A    between atoms: C_3  and  O_4
REMARK    4  A    between atoms: O_4  and  C_5
REMARK    5  A    between atoms: C_10  and  C_11
REMARK    6  A    between atoms: C_18  and  C_19
REMARK    7  A    between atoms: C_26  and  C_27
REMARK    8  A    between atoms: C_31  and  O_32
REMARK    9  A    between atoms: O_32  and  C_33
REMARK                            x       y       z     vdW  Elec       q    Type
REMARK                         _______ _______ _______ _____ _____    ______ ____
ROOT
ATOM      1  C   UNL     1      -0.469  10.585  20.160  0.00  0.00    +0.000 C 
ATOM      2  C   UNL     1      -0.420  10.528  21.692  0.00  0.00    +0.000 C 
ATOM      3  C   UNL     1      -1.064  11.723  22.345  0.00  0.00    +0.000 C 
ATOM      4  O   UNL     1      -0.755  12.182  23.432  0.00  0.00    +0.000 OA
ATOM      5  N   UNL     1      -2.251  12.236  21.749  0.00  0.00    +0.000 N 
ATOM      6  C   UNL     1      -2.570  11.907  20.448  0.00  0.00    +0.000 A 
ATOM      7  C   UNL     1      -1.733  11.163  19.660  0.00  0.00    +0.000 A 
ATOM      8  C   UNL     1      -2.405  11.090  18.414  0.00  0.00    +0.000 A 
ATOM      9  C   UNL     1      -1.947  10.475  17.141  0.00  0.00    +0.000 C 
ATOM     10  N   UNL     1      -3.600  11.700  18.454  0.00  0.00    +0.000 NA
ATOM     11  N   UNL     1      -3.653  12.282  19.685  0.00  0.00    +0.000 N 
ATOM     12  C   UNL     1      -4.636  13.229  20.082  0.00  0.00    +0.000 A 
ATOM     13  N   UNL     1      -5.631  13.536  19.225  0.00  0.00    +0.000 NA
ATOM     14  N   UNL     1      -6.463  14.561  19.525  0.00  0.00    +0.000 NA
ATOM     15  C   UNL     1      -6.251  15.255  20.663  0.00  0.00    +0.000 A 
ATOM     16  C   UNL     1      -5.246  14.907  21.545  0.00  0.00    +0.000 A 
ATOM     17  N   UNL     1      -4.430  13.861  21.268  0.00  0.00    +0.000 NA
ATOM     18  H   UNL     1      -2.822  12.907  22.258  0.00  0.00    +0.000 HD
ENDROOT
BRANCH   1  24
ATOM     19  C   UNL     1       1.464  10.875  18.408  0.00  0.00    +0.000 A 
ATOM     20  C   UNL     1       2.375  11.767  17.815  0.00  0.00    +0.000 A 
ATOM     21  C   UNL     1       2.647  13.015  18.375  0.00  0.00    +0.000 A 
ATOM     22  C   UNL     1       2.001  13.398  19.538  0.00  0.00    +0.000 A 
ATOM     23  C   UNL     1       1.042  12.557  20.096  0.00  0.00    +0.000 A 
ATOM     24  C   UNL     1       0.730  11.291  19.538  0.00  0.00    +0.000 A 
BRANCH  19  25
ATOM     25  O   UNL     1       1.256   9.617  17.877  0.00  0.00    +0.000 OA
BRANCH  25  26
ATOM     26  C   UNL     1       2.446   8.798  17.875  0.00  0.00    +0.000 C 
BRANCH  26  28
ATOM     27  C   UNL     1       2.680   6.312  18.218  0.00  0.00    +0.000 C 
ATOM     28  C   UNL     1       2.325   7.647  18.866  0.00  0.00    +0.000 C 
ENDBRANCH  26  28
ENDBRANCH  25  26
ENDBRANCH  19  25
ENDBRANCH   1  24
BRANCH  16  29
ATOM     29  C   UNL     1      -4.938  15.647  22.787  0.00  0.00    +0.000 A 
ATOM     30  C   UNL     1      -5.800  16.672  23.231  0.00  0.00    +0.000 A 
ATOM     31  C   UNL     1      -5.534  17.402  24.388  0.00  0.00    +0.000 A 
ATOM     32  C   UNL     1      -4.400  17.113  25.136  0.00  0.00    +0.000 A 
ATOM     33  C   UNL     1      -3.528  16.100  24.739  0.00  0.00    +0.000 A 
ATOM     34  C   UNL     1      -3.795  15.376  23.570  0.00  0.00    +0.000 A 
BRANCH  33  35
ATOM     35  O   UNL     1      -2.459  15.930  25.573  0.00  0.00    +0.000 OA
ATOM     36  C   UNL     1      -1.303  15.289  25.053  0.00  0.00    +0.000 C 
ENDBRANCH  33  35
ENDBRANCH  16  29
TORSDOF 6
ENDMDL
MODEL 9
REMARK VINA RESULT:      -6.6      2.731      4.319
REMARK  Name = 
REMARK  9 active torsions:
REMARK  status: ('A' for Active; 'I' for Inactive)
REMARK    1  A    between atoms: C_1  and  C_2
REMARK    2  A    between atoms: C_2  and  C_3
REMARK    3  A    between atoms: C_3  and  O_4
REMARK    4  A    between atoms: O_4  and  C_5
REMARK    5  A    between atoms: C_10  and  C_11
REMARK    6  A    between atoms: C_18  and  C_19
REMARK    7  A    between atoms: C_26  and  C_27
REMARK    8  A    between atoms: C_31  and  O_32
REMARK    9  A    between atoms: O_32  and  C_33
REMARK                            x       y       z     vdW  Elec       q    Type
REMARK                         _______ _______ _______ _____ _____    ______ ____
ROOT
ATOM      1  C   UNL     1       0.619  11.837  20.779  0.00  0.00    +0.000 C 
ATOM      2  C   UNL     1       0.690  13.273  20.246  0.00  0.00    +0.000 C 
ATOM      3  C   UNL     1      -0.667  13.895  20.054  0.00  0.00    +0.000 C 
ATOM      4  O   UNL     1      -0.937  14.755  19.231  0.00  0.00    +0.000 OA
ATOM      5  N   UNL     1      -1.664  13.611  21.030  0.00  0.00    +0.000 N 
ATOM      6  C   UNL     1      -1.515  12.533  21.877  0.00  0.00    +0.000 A 
ATOM      7  C   UNL     1      -0.470  11.655  21.760  0.00  0.00    +0.000 A 
ATOM      8  C   UNL     1      -0.709  10.695  22.775  0.00  0.00    +0.000 A 
ATOM      9  C   UNL     1       0.049   9.454  23.083  0.00  0.00    +0.000 C 
ATOM     10  N   UNL     1      -1.797  10.996  23.501  0.00  0.00    +0.000 NA
ATOM     11  N   UNL     1      -2.341  12.080  22.881  0.00  0.00    +0.000 N 
ATOM     12  C   UNL     1      -3.632  12.603  23.166  0.00  0.00    +0.000 A 
ATOM     13  N   UNL     1      -4.357  12.046  24.158  0.00  0.00    +0.000 NA
ATOM     14  N   UNL     1      -5.650  12.419  24.315  0.00  0.00    +0.000 NA
ATOM     15  C   UNL     1      -6.172  13.319  23.456  0.00  0.00    +0.000 A 
ATOM     16  C   UNL     1      -5.406  13.903  22.465  0.00  0.00    +0.000 A 
ATOM     17  N   UNL     1      -4.103  13.559  22.323  0.00  0.00    +0.000 NA
ATOM     18  H   UNL     1      -2.522  14.157  21.050  0.00  0.00    +0.000 HD
ENDROOT
BRANCH   1  24
ATOM     19  C   UNL     1      -0.516  10.595  18.764  0.00  0.00    +0.000 A 
ATOM     20  C   UNL     1      -0.322   9.748  17.658  0.00  0.00    +0.000 A 
ATOM     21  C   UNL     1       0.850   9.010  17.500  0.00  0.00    +0.000 A 
ATOM     22  C   UNL     1       1.857   9.115  18.443  0.00  0.00    +0.000 A 
ATOM     23  C   UNL     1       1.711  10.005  19.504  0.00  0.00    +0.000 A 
ATOM     24  C   UNL     1       0.538  10.783  19.681  0.00  0.00    +0.000 A 
BRANCH  19  25
ATOM     25  O   UNL     1      -1.710  11.268  18.941  0.00  0.00    +0.000 OA
BRANCH  25  26
ATOM     26  C   UNL     1      -2.812  10.667  18.225  0.00  0.00    +0.000 C 
BRANCH  26  28
ATOM     27  C   UNL     1      -4.646  12.128  19.146  0.00  0.00    +0.000 C 
ATOM     28  C   UNL     1      -3.884  11.698  17.896  0.00  0.00    +0.000 C 
ENDBRANCH  26  28
ENDBRANCH  25  26
ENDBRANCH  19  25
ENDBRANCH   1  24
BRANCH  16  29
ATOM     29  C   UNL     1      -5.926  14.865  21.471  0.00  0.00    +0.000 A 
ATOM     30  C   UNL     1      -7.317  14.986  21.265  0.00  0.00    +0.000 A 
ATOM     31  C   UNL     1      -7.843  15.871  20.326  0.00  0.00    +0.000 A 
ATOM     32  C   UNL     1      -6.986  16.665  19.577  0.00  0.00    +0.000 A 
ATOM     33  C   UNL     1      -5.606  16.586  19.757  0.00  0.00    +0.000 A 
ATOM     34  C   UNL     1      -5.081  15.688  20.695  0.00  0.00    +0.000 A 
BRANCH  33  35
ATOM     35  O   UNL     1      -4.892  17.428  18.951  0.00  0.00    +0.000 OA
ATOM     36  C   UNL     1      -3.677  17.962  19.456  0.00  0.00    +0.000 C 
ENDBRANCH  33  35
ENDBRANCH  16  29
TORSDOF 6
ENDMDL
