MODEL 1
REMARK VINA RESULT:      -9.2      0.000      0.000
REMARK  Name = 
REMARK  10 active torsions:
REMARK  status: ('A' for Active; 'I' for Inactive)
REMARK    1  A    between atoms: C_1  and  C_2
REMARK    2  A    between atoms: C_2  and  C_3
REMARK    3  A    between atoms: C_2  and  C_4
REMARK    4  A    between atoms: C_4  and  C_5
REMARK    5  A    between atoms: C_5  and  C_6
REMARK    6  A    between atoms: C_8  and  N_9
REMARK    7  A    between atoms: N_9  and  C_10
REMARK    8  A    between atoms: C_10  and  C_11
REMARK    9  A    between atoms: N_19  and  C_20
REMARK   10  A    between atoms: C_20  and  C_21
REMARK                            x       y       z     vdW  Elec       q    Type
REMARK                         _______ _______ _______ _____ _____    ______ ____
ROOT
ATOM      1  C   UNL     1       3.993   4.752  18.437  0.00  0.00    +0.000 A 
ATOM      2  C   UNL     1       4.952   4.863  17.461  0.00  0.00    +0.000 A 
ATOM      3  C   UNL     1       5.065   6.090  16.836  0.00  0.00    +0.000 A 
ATOM      4  N   UNL     1       4.228   7.094  17.100  0.00  0.00    +0.000 NA
ATOM      5  C   UNL     1       3.343   6.929  18.088  0.00  0.00    +0.000 A 
ATOM      6  N   UNL     1       2.542   8.020  18.357  0.00  0.00    +0.000 N 
ATOM      7  N   UNL     1       3.202   5.783  18.783  0.00  0.00    +0.000 NA
ATOM      8  H   UNL     1       1.962   8.186  17.552  0.00  0.00    +0.000 HD
ENDROOT
BRANCH   3   9
ATOM      9  N   UNL     1       6.148   6.283  15.999  0.00  0.00    +0.000 N 
ATOM     10  H   UNL     1       6.553   7.209  16.007  0.00  0.00    +0.000 HD
BRANCH   9  11
ATOM     11  C   UNL     1       7.070   5.190  15.763  0.00  0.00    +0.000 C 
BRANCH  11  12
ATOM     12  C   UNL     1       6.852   4.745  14.334  0.00  0.00    +0.000 A 
ATOM     13  C   UNL     1       5.853   3.821  14.006  0.00  0.00    +0.000 A 
ATOM     14  C   UNL     1       5.738   3.343  12.698  0.00  0.00    +0.000 A 
ATOM     15  C   UNL     1       6.622   3.779  11.711  0.00  0.00    +0.000 A 
ATOM     16  C   UNL     1       7.618   4.700  12.026  0.00  0.00    +0.000 A 
ATOM     17  C   UNL     1       7.734   5.181  13.330  0.00  0.00    +0.000 A 
ENDBRANCH  11  12
ENDBRANCH   9  11
ENDBRANCH   3   9
BRANCH   1  18
ATOM     18  C   UNL     1       3.890   3.462  19.226  0.00  0.00    +0.000 C 
BRANCH  18  19
ATOM     19  C   UNL     1       2.547   2.750  19.057  0.00  0.00    +0.000 C 
BRANCH  19  21
ATOM     20  C   UNL     1       2.534   2.756  21.567  0.00  0.00    +0.000 C 
ATOM     21  C   UNL     1       1.654   2.801  20.315  0.00  0.00    +0.000 C 
ATOM     22  C   UNL     1       0.759   4.042  20.361  0.00  0.00    +0.000 C 
ENDBRANCH  19  21
ENDBRANCH  18  19
ENDBRANCH   1  18
BRANCH   6  23
ATOM     23  C   UNL     1       1.897   8.086  19.640  0.00  0.00    +0.000 C 
BRANCH  23  24
ATOM     24  C   UNL     1       0.856   9.191  19.625  0.00  0.00    +0.000 A 
ATOM     25  C   UNL     1       0.599   9.834  18.400  0.00  0.00    +0.000 A 
ATOM     26  C   UNL     1      -0.270  10.918  18.333  0.00  0.00    +0.000 A 
ATOM     27  C   UNL     1      -0.841  11.415  19.502  0.00  0.00    +0.000 A 
ATOM     28  C   UNL     1      -0.596  10.802  20.740  0.00  0.00    +0.000 A 
ATOM     29  C   UNL     1      -1.099  11.368  21.922  0.00  0.00    +0.000 A 
ATOM     30  C   UNL     1      -0.903  10.749  23.154  0.00  0.00    +0.000 A 
ATOM     31  C   UNL     1      -0.279   9.510  23.208  0.00  0.00    +0.000 A 
ATOM     32  C   UNL     1       0.252   8.950  22.046  0.00  0.00    +0.000 A 
ATOM     33  C   UNL     1       0.182   9.620  20.801  0.00  0.00    +0.000 A 
ENDBRANCH  23  24
ENDBRANCH   6  23
TORSDOF 8
ENDMDL
MODEL 2
REMARK VINA RESULT:      -8.9      0.713      1.199
REMARK  Name = 
REMARK  10 active torsions:
REMARK  status: ('A' for Active; 'I' for Inactive)
REMARK    1  A    between atoms: C_1  and  C_2
REMARK    2  A    between atoms: C_2  and  C_3
REMARK    3  A    between atoms: C_2  and  C_4
REMARK    4  A    between atoms: C_4  and  C_5
REMARK    5  A    between atoms: C_5  and  C_6
REMARK    6  A    between atoms: C_8  and  N_9
REMARK    7  A    between atoms: N_9  and  C_10
REMARK    8  A    between atoms: C_10  and  C_11
REMARK    9  A    between atoms: N_19  and  C_20
REMARK   10  A    between atoms: C_20  and  C_21
REMARK                            x       y       z     vdW  Elec       q    Type
REMARK                         _______ _______ _______ _____ _____    ______ ____
ROOT
ATOM      1  C   UNL     1       2.978   4.888  17.713  0.00  0.00    +0.000 A 
ATOM      2  C   UNL     1       4.104   4.944  16.929  0.00  0.00    +0.000 A 
ATOM      3  C   UNL     1       4.666   6.191  16.734  0.00  0.00    +0.000 A 
ATOM      4  N   UNL     1       4.099   7.301  17.210  0.00  0.00    +0.000 NA
ATOM      5  C   UNL     1       3.027   7.169  17.997  0.00  0.00    +0.000 A 
ATOM      6  N   UNL     1       2.516   8.345  18.507  0.00  0.00    +0.000 N 
ATOM      7  N   UNL     1       2.446   5.987  18.278  0.00  0.00    +0.000 NA
ATOM      8  H   UNL     1       2.172   8.895  17.738  0.00  0.00    +0.000 HD
ENDROOT
BRANCH   3   9
ATOM      9  N   UNL     1       5.903   6.245  16.120  0.00  0.00    +0.000 N 
ATOM     10  H   UNL     1       6.401   7.120  16.205  0.00  0.00    +0.000 HD
BRANCH   9  11
ATOM     11  C   UNL     1       6.723   5.051  16.063  0.00  0.00    +0.000 C 
BRANCH  11  12
ATOM     12  C   UNL     1       6.871   4.701  14.599  0.00  0.00    +0.000 A 
ATOM     13  C   UNL     1       7.747   5.409  13.768  0.00  0.00    +0.000 A 
ATOM     14  C   UNL     1       7.790   5.140  12.398  0.00  0.00    +0.000 A 
ATOM     15  C   UNL     1       6.955   4.169  11.847  0.00  0.00    +0.000 A 
ATOM     16  C   UNL     1       6.081   3.457  12.664  0.00  0.00    +0.000 A 
ATOM     17  C   UNL     1       6.038   3.720  14.033  0.00  0.00    +0.000 A 
ENDBRANCH  11  12
ENDBRANCH   9  11
ENDBRANCH   3   9
BRANCH   1  18
ATOM     18  C   UNL     1       2.376   3.537  18.043  0.00  0.00    +0.000 C 
BRANCH  18  19
ATOM     19  C   UNL     1       1.432   3.569  19.246  0.00  0.00    +0.000 C 
BRANCH  19  21
ATOM     20  C   UNL     1       2.237   4.834  21.259  0.00  0.00    +0.000 C 
ATOM     21  C   UNL     1       2.154   3.453  20.605  0.00  0.00    +0.000 C 
ATOM     22  C   UNL     1       1.471   2.473  21.561  0.00  0.00    +0.000 C 
ENDBRANCH  19  21
ENDBRANCH  18  19
ENDBRANCH   1  18
BRANCH   6  23
ATOM     23  C   UNL     1       1.675   8.269  19.670  0.00  0.00    +0.000 C 
BRANCH  23  24
ATOM     24  C   UNL     1       0.653   9.390  19.628  0.00  0.00    +0.000 A 
ATOM     25  C   UNL     1       0.420  10.020  18.392  0.00  0.00    +0.000 A 
ATOM     26  C   UNL     1      -0.430  11.117  18.299  0.00  0.00    +0.000 A 
ATOM     27  C   UNL     1      -1.006  11.639  19.454  0.00  0.00    +0.000 A 
ATOM     28  C   UNL     1      -0.785  11.040  20.703  0.00  0.00    +0.000 A 
ATOM     29  C   UNL     1      -1.293  11.631  21.871  0.00  0.00    +0.000 A 
ATOM     30  C   UNL     1      -1.121  11.026  23.115  0.00  0.00    +0.000 A 
ATOM     31  C   UNL     1      -0.518   9.778  23.193  0.00  0.00    +0.000 A 
ATOM     32  C   UNL     1       0.018   9.193  22.045  0.00  0.00    +0.000 A 
ATOM     33  C   UNL     1      -0.028   9.846  20.790  0.00  0.00    +0.000 A 
ENDBRANCH  23  24
ENDBRANCH   6  23
TORSDOF 8
ENDMDL
MODEL 3
REMARK VINA RESULT:      -8.9      0.844      1.154
REMARK  Name = 
REMARK  10 active torsions:
REMARK  status: ('A' for Active; 'I' for Inactive)
REMARK    1  A    between atoms: C_1  and  C_2
REMARK    2  A    between atoms: C_2  and  C_3
REMARK    3  A    between atoms: C_2  and  C_4
REMARK    4  A    between atoms: C_4  and  C_5
REMARK    5  A    between atoms: C_5  and  C_6
REMARK    6  A    between atoms: C_8  and  N_9
REMARK    7  A    between atoms: N_9  and  C_10
REMARK    8  A    between atoms: C_10  and  C_11
REMARK    9  A    between atoms: N_19  and  C_20
REMARK   10  A    between atoms: C_20  and  C_21
REMARK                            x       y       z     vdW  Elec       q    Type
REMARK                         _______ _______ _______ _____ _____    ______ ____
ROOT
ATOM      1  C   UNL     1       2.526   4.513  17.852  0.00  0.00    +0.000 A 
ATOM      2  C   UNL     1       3.666   4.393  17.097  0.00  0.00    +0.000 A 
ATOM      3  C   UNL     1       4.432   5.533  16.941  0.00  0.00    +0.000 A 
ATOM      4  N   UNL     1       4.043   6.714  17.425  0.00  0.00    +0.000 NA
ATOM      5  C   UNL     1       2.943   6.749  18.183  0.00  0.00    +0.000 A 
ATOM      6  N   UNL     1       2.620   7.985  18.703  0.00  0.00    +0.000 N 
ATOM      7  N   UNL     1       2.167   5.675  18.427  0.00  0.00    +0.000 NA
ATOM      8  H   UNL     1       2.393   8.597  17.938  0.00  0.00    +0.000 HD
ENDROOT
BRANCH   3   9
ATOM      9  N   UNL     1       5.677   5.390  16.358  0.00  0.00    +0.000 N 
ATOM     10  H   UNL     1       6.404   5.994  16.715  0.00  0.00    +0.000 HD
BRANCH   9  11
ATOM     11  C   UNL     1       6.106   4.083  15.903  0.00  0.00    +0.000 C 
BRANCH  11  12
ATOM     12  C   UNL     1       6.436   4.226  14.434  0.00  0.00    +0.000 A 
ATOM     13  C   UNL     1       5.846   3.398  13.473  0.00  0.00    +0.000 A 
ATOM     14  C   UNL     1       6.244   3.476  12.137  0.00  0.00    +0.000 A 
ATOM     15  C   UNL     1       7.238   4.375  11.751  0.00  0.00    +0.000 A 
ATOM     16  C   UNL     1       7.832   5.205  12.699  0.00  0.00    +0.000 A 
ATOM     17  C   UNL     1       7.434   5.132  14.034  0.00  0.00    +0.000 A 
ENDBRANCH  11  12
ENDBRANCH   9  11
ENDBRANCH   3   9
BRANCH   1  18
ATOM     18  C   UNL     1       1.700   3.275  18.141  0.00  0.00    +0.000 C 
BRANCH  18  19
ATOM     19  C   UNL     1       2.447   2.223  18.962  0.00  0.00    +0.000 C 
BRANCH  19  21
ATOM     20  C   UNL     1       2.196   2.709  21.412  0.00  0.00    +0.000 C 
ATOM     21  C   UNL     1       3.146   2.794  20.214  0.00  0.00    +0.000 C 
ATOM     22  C   UNL     1       4.455   2.076  20.546  0.00  0.00    +0.000 C 
ENDBRANCH  19  21
ENDBRANCH  18  19
ENDBRANCH   1  18
BRANCH   6  23
ATOM     23  C   UNL     1       1.747   8.031  19.844  0.00  0.00    +0.000 C 
BRANCH  23  24
ATOM     24  C   UNL     1       0.863   9.262  19.755  0.00  0.00    +0.000 A 
ATOM     25  C   UNL     1       0.838   9.965  18.535  0.00  0.00    +0.000 A 
ATOM     26  C   UNL     1       0.128  11.154  18.412  0.00  0.00    +0.000 A 
ATOM     27  C   UNL     1      -0.511  11.692  19.526  0.00  0.00    +0.000 A 
ATOM     28  C   UNL     1      -0.495  11.021  20.758  0.00  0.00    +0.000 A 
ATOM     29  C   UNL     1      -1.060  11.619  21.896  0.00  0.00    +0.000 A 
ATOM     30  C   UNL     1      -1.093  10.949  23.118  0.00  0.00    +0.000 A 
ATOM     31  C   UNL     1      -0.642   9.638  23.193  0.00  0.00    +0.000 A 
ATOM     32  C   UNL     1      -0.051   9.043  22.078  0.00  0.00    +0.000 A 
ATOM     33  C   UNL     1       0.113   9.747  20.861  0.00  0.00    +0.000 A 
ENDBRANCH  23  24
ENDBRANCH   6  23
TORSDOF 8
ENDMDL
MODEL 4
REMARK VINA RESULT:      -8.9      0.663      1.361
REMARK  Name = 
REMARK  10 active torsions:
REMARK  status: ('A' for Active; 'I' for Inactive)
REMARK    1  A    between atoms: C_1  and  C_2
REMARK    2  A    between atoms: C_2  and  C_3
REMARK    3  A    between atoms: C_2  and  C_4
REMARK    4  A    between atoms: C_4  and  C_5
REMARK    5  A    between atoms: C_5  and  C_6
REMARK    6  A    between atoms: C_8  and  N_9
REMARK    7  A    between atoms: N_9  and  C_10
REMARK    8  A    between atoms: C_10  and  C_11
REMARK    9  A    between atoms: N_19  and  C_20
REMARK   10  A    between atoms: C_20  and  C_21
REMARK                            x       y       z     vdW  Elec       q    Type
REMARK                         _______ _______ _______ _____ _____    ______ ____
ROOT
ATOM      1  C   UNL     1       4.224   4.843  18.677  0.00  0.00    +0.000 A 
ATOM      2  C   UNL     1       5.144   4.953  17.664  0.00  0.00    +0.000 A 
ATOM      3  C   UNL     1       5.105   6.110  16.910  0.00  0.00    +0.000 A 
ATOM      4  N   UNL     1       4.166   7.039  17.096  0.00  0.00    +0.000 NA
ATOM      5  C   UNL     1       3.326   6.885  18.124  0.00  0.00    +0.000 A 
ATOM      6  N   UNL     1       2.414   7.904  18.303  0.00  0.00    +0.000 N 
ATOM      7  N   UNL     1       3.330   5.812  18.939  0.00  0.00    +0.000 NA
ATOM      8  H   UNL     1       1.801   7.918  17.505  0.00  0.00    +0.000 HD
ENDROOT
BRANCH   3   9
ATOM      9  N   UNL     1       6.141   6.329  16.022  0.00  0.00    +0.000 N 
ATOM     10  H   UNL     1       6.444   7.288  15.925  0.00  0.00    +0.000 HD
BRANCH   9  11
ATOM     11  C   UNL     1       7.170   5.320  15.864  0.00  0.00    +0.000 C 
BRANCH  11  12
ATOM     12  C   UNL     1       7.004   4.752  14.473  0.00  0.00    +0.000 A 
ATOM     13  C   UNL     1       7.750   5.240  13.395  0.00  0.00    +0.000 A 
ATOM     14  C   UNL     1       7.505   4.775  12.101  0.00  0.00    +0.000 A 
ATOM     15  C   UNL     1       6.509   3.826  11.873  0.00  0.00    +0.000 A 
ATOM     16  C   UNL     1       5.761   3.331  12.937  0.00  0.00    +0.000 A 
ATOM     17  C   UNL     1       6.006   3.791  14.231  0.00  0.00    +0.000 A 
ENDBRANCH  11  12
ENDBRANCH   9  11
ENDBRANCH   3   9
BRANCH   1  18
ATOM     18  C   UNL     1       4.284   3.642  19.600  0.00  0.00    +0.000 C 
BRANCH  18  19
ATOM     19  C   UNL     1       2.914   3.204  20.119  0.00  0.00    +0.000 C 
BRANCH  19  21
ATOM     20  C   UNL     1       0.866   2.550  18.824  0.00  0.00    +0.000 C 
ATOM     21  C   UNL     1       2.256   2.092  19.274  0.00  0.00    +0.000 C 
ATOM     22  C   UNL     1       3.088   1.701  18.052  0.00  0.00    +0.000 C 
ENDBRANCH  19  21
ENDBRANCH  18  19
ENDBRANCH   1  18
BRANCH   6  23
ATOM     23  C   UNL     1       1.793   8.037  19.593  0.00  0.00    +0.000 C 
BRANCH  23  24
ATOM     24  C   UNL     1       1.041   9.354  19.658  0.00  0.00    +0.000 A 
ATOM     25  C   UNL     1       1.157  10.231  18.564  0.00  0.00    +0.000 A 
ATOM     26  C   UNL     1       0.575  11.494  18.597  0.00  0.00    +0.000 A 
ATOM     27  C   UNL     1      -0.075  11.921  19.752  0.00  0.00    +0.000 A 
ATOM     28  C   UNL     1      -0.199  11.074  20.863  0.00  0.00    +0.000 A 
ATOM     29  C   UNL     1      -0.771  11.548  22.054  0.00  0.00    +0.000 A 
ATOM     30  C   UNL     1      -0.943  10.708  23.153  0.00  0.00    +0.000 A 
ATOM     31  C   UNL     1      -0.626   9.360  23.042  0.00  0.00    +0.000 A 
ATOM     32  C   UNL     1      -0.030   8.882  21.875  0.00  0.00    +0.000 A 
ATOM     33  C   UNL     1       0.275   9.741  20.792  0.00  0.00    +0.000 A 
ENDBRANCH  23  24
ENDBRANCH   6  23
TORSDOF 8
ENDMDL
MODEL 5
REMARK VINA RESULT:      -8.8      2.069      5.444
REMARK  Name = 
REMARK  10 active torsions:
REMARK  status: ('A' for Active; 'I' for Inactive)
REMARK    1  A    between atoms: C_1  and  C_2
REMARK    2  A    between atoms: C_2  and  C_3
REMARK    3  A    between atoms: C_2  and  C_4
REMARK    4  A    between atoms: C_4  and  C_5
REMARK    5  A    between atoms: C_5  and  C_6
REMARK    6  A    between atoms: C_8  and  N_9
REMARK    7  A    between atoms: N_9  and  C_10
REMARK    8  A    between atoms: C_10  and  C_11
REMARK    9  A    between atoms: N_19  and  C_20
REMARK   10  A    between atoms: C_20  and  C_21
REMARK                            x       y       z     vdW  Elec       q    Type
REMARK                         _______ _______ _______ _____ _____    ______ ____
ROOT
ATOM      1  C   UNL     1       3.308   6.978  18.277  0.00  0.00    +0.000 A 
ATOM      2  C   UNL     1       3.300   6.003  19.244  0.00  0.00    +0.000 A 
ATOM      3  C   UNL     1       2.453   6.197  20.318  0.00  0.00    +0.000 A 
ATOM      4  N   UNL     1       1.740   7.315  20.458  0.00  0.00    +0.000 NA
ATOM      5  C   UNL     1       1.766   8.205  19.461  0.00  0.00    +0.000 A 
ATOM      6  N   UNL     1       0.965   9.314  19.634  0.00  0.00    +0.000 N 
ATOM      7  N   UNL     1       2.525   8.069  18.356  0.00  0.00    +0.000 NA
ATOM      8  H   UNL     1       1.320   9.836  20.418  0.00  0.00    +0.000 HD
ENDROOT
BRANCH   3   9
ATOM      9  N   UNL     1       2.282   5.142  21.194  0.00  0.00    +0.000 N 
ATOM     10  H   UNL     1       2.342   5.370  22.177  0.00  0.00    +0.000 HD
BRANCH   9  11
ATOM     11  C   UNL     1       1.376   4.066  20.847  0.00  0.00    +0.000 C 
BRANCH  11  12
ATOM     12  C   UNL     1       2.130   3.157  19.902  0.00  0.00    +0.000 A 
ATOM     13  C   UNL     1       3.386   2.640  20.240  0.00  0.00    +0.000 A 
ATOM     14  C   UNL     1       4.112   1.890  19.312  0.00  0.00    +0.000 A 
ATOM     15  C   UNL     1       3.593   1.657  18.038  0.00  0.00    +0.000 A 
ATOM     16  C   UNL     1       2.345   2.166  17.691  0.00  0.00    +0.000 A 
ATOM     17  C   UNL     1       1.616   2.912  18.617  0.00  0.00    +0.000 A 
ENDBRANCH  11  12
ENDBRANCH   9  11
ENDBRANCH   3   9
BRANCH   1  18
ATOM     18  C   UNL     1       4.142   6.772  17.028  0.00  0.00    +0.000 C 
BRANCH  18  19
ATOM     19  C   UNL     1       4.820   5.402  16.969  0.00  0.00    +0.000 C 
BRANCH  19  21
ATOM     20  C   UNL     1       7.148   4.540  16.596  0.00  0.00    +0.000 C 
ATOM     21  C   UNL     1       5.998   5.335  15.973  0.00  0.00    +0.000 C 
ATOM     22  C   UNL     1       5.609   4.710  14.631  0.00  0.00    +0.000 C 
ENDBRANCH  19  21
ENDBRANCH  18  19
ENDBRANCH   1  18
BRANCH   6  23
ATOM     23  C   UNL     1       0.599  10.074  18.470  0.00  0.00    +0.000 C 
BRANCH  23  24
ATOM     24  C   UNL     1      -0.571  10.980  18.804  0.00  0.00    +0.000 A 
ATOM     25  C   UNL     1      -0.453  11.818  19.929  0.00  0.00    +0.000 A 
ATOM     26  C   UNL     1      -1.521  12.601  20.350  0.00  0.00    +0.000 A 
ATOM     27  C   UNL     1      -2.745  12.506  19.692  0.00  0.00    +0.000 A 
ATOM     28  C   UNL     1      -2.898  11.672  18.575  0.00  0.00    +0.000 A 
ATOM     29  C   UNL     1      -4.160  11.513  17.979  0.00  0.00    +0.000 A 
ATOM     30  C   UNL     1      -4.322  10.724  16.842  0.00  0.00    +0.000 A 
ATOM     31  C   UNL     1      -3.208  10.158  16.235  0.00  0.00    +0.000 A 
ATOM     32  C   UNL     1      -1.954  10.284  16.833  0.00  0.00    +0.000 A 
ATOM     33  C   UNL     1      -1.782  10.971  18.058  0.00  0.00    +0.000 A 
ENDBRANCH  23  24
ENDBRANCH   6  23
TORSDOF 8
ENDMDL
MODEL 6
REMARK VINA RESULT:      -8.7      2.085      5.182
REMARK  Name = 
REMARK  10 active torsions:
REMARK  status: ('A' for Active; 'I' for Inactive)
REMARK    1  A    between atoms: C_1  and  C_2
REMARK    2  A    between atoms: C_2  and  C_3
REMARK    3  A    between atoms: C_2  and  C_4
REMARK    4  A    between atoms: C_4  and  C_5
REMARK    5  A    between atoms: C_5  and  C_6
REMARK    6  A    between atoms: C_8  and  N_9
REMARK    7  A    between atoms: N_9  and  C_10
REMARK    8  A    between atoms: C_10  and  C_11
REMARK    9  A    between atoms: N_19  and  C_20
REMARK   10  A    between atoms: C_20  and  C_21
REMARK                            x       y       z     vdW  Elec       q    Type
REMARK                         _______ _______ _______ _____ _____    ______ ____
ROOT
ATOM      1  C   UNL     1       3.166   7.274  18.182  0.00  0.00    +0.000 A 
ATOM      2  C   UNL     1       3.111   6.256  19.102  0.00  0.00    +0.000 A 
ATOM      3  C   UNL     1       2.275   6.439  20.186  0.00  0.00    +0.000 A 
ATOM      4  N   UNL     1       1.616   7.583  20.381  0.00  0.00    +0.000 NA
ATOM      5  C   UNL     1       1.685   8.516  19.427  0.00  0.00    +0.000 A 
ATOM      6  N   UNL     1       0.939   9.654  19.655  0.00  0.00    +0.000 N 
ATOM      7  N   UNL     1       2.436   8.396  18.315  0.00  0.00    +0.000 NA
ATOM      8  H   UNL     1       1.319  10.120  20.461  0.00  0.00    +0.000 HD
ENDROOT
BRANCH   3   9
ATOM      9  N   UNL     1       2.053   5.354  21.012  0.00  0.00    +0.000 N 
ATOM     10  H   UNL     1       2.071   5.543  22.004  0.00  0.00    +0.000 HD
BRANCH   9  11
ATOM     11  C   UNL     1       1.150   4.304  20.583  0.00  0.00    +0.000 C 
BRANCH  11  12
ATOM     12  C   UNL     1       1.973   3.342  19.755  0.00  0.00    +0.000 A 
ATOM     13  C   UNL     1       3.148   2.773  20.257  0.00  0.00    +0.000 A 
ATOM     14  C   UNL     1       3.948   1.972  19.439  0.00  0.00    +0.000 A 
ATOM     15  C   UNL     1       3.584   1.739  18.113  0.00  0.00    +0.000 A 
ATOM     16  C   UNL     1       2.416   2.298  17.603  0.00  0.00    +0.000 A 
ATOM     17  C   UNL     1       1.613   3.096  18.418  0.00  0.00    +0.000 A 
ENDBRANCH  11  12
ENDBRANCH   9  11
ENDBRANCH   3   9
BRANCH   1  18
ATOM     18  C   UNL     1       3.989   7.088  16.923  0.00  0.00    +0.000 C 
BRANCH  18  19
ATOM     19  C   UNL     1       4.575   5.682  16.782  0.00  0.00    +0.000 C 
BRANCH  19  21
ATOM     20  C   UNL     1       7.047   5.332  16.523  0.00  0.00    +0.000 C 
ATOM     21  C   UNL     1       5.739   5.593  15.772  0.00  0.00    +0.000 C 
ATOM     22  C   UNL     1       5.529   4.507  14.715  0.00  0.00    +0.000 C 
ENDBRANCH  19  21
ENDBRANCH  18  19
ENDBRANCH   1  18
BRANCH   6  23
ATOM     23  C   UNL     1       0.610  10.485  18.528  0.00  0.00    +0.000 C 
BRANCH  23  24
ATOM     24  C   UNL     1      -0.897  10.529  18.356  0.00  0.00    +0.000 A 
ATOM     25  C   UNL     1      -1.461   9.781  17.306  0.00  0.00    +0.000 A 
ATOM     26  C   UNL     1      -2.822   9.852  17.030  0.00  0.00    +0.000 A 
ATOM     27  C   UNL     1      -3.626  10.725  17.759  0.00  0.00    +0.000 A 
ATOM     28  C   UNL     1      -3.092  11.492  18.805  0.00  0.00    +0.000 A 
ATOM     29  C   UNL     1      -3.891  12.437  19.469  0.00  0.00    +0.000 A 
ATOM     30  C   UNL     1      -3.390  13.175  20.539  0.00  0.00    +0.000 A 
ATOM     31  C   UNL     1      -2.113  12.912  21.016  0.00  0.00    +0.000 A 
ATOM     32  C   UNL     1      -1.298  11.998  20.347  0.00  0.00    +0.000 A 
ATOM     33  C   UNL     1      -1.736  11.329  19.179  0.00  0.00    +0.000 A 
ENDBRANCH  23  24
ENDBRANCH   6  23
TORSDOF 8
ENDMDL
MODEL 7
REMARK VINA RESULT:      -8.6      1.326      5.427
REMARK  Name = 
REMARK  10 active torsions:
REMARK  status: ('A' for Active; 'I' for Inactive)
REMARK    1  A    between atoms: C_1  and  C_2
REMARK    2  A    between atoms: C_2  and  C_3
REMARK    3  A    between atoms: C_2  and  C_4
REMARK    4  A    between atoms: C_4  and  C_5
REMARK    5  A    between atoms: C_5  and  C_6
REMARK    6  A    between atoms: C_8  and  N_9
REMARK    7  A    between atoms: N_9  and  C_10
REMARK    8  A    between atoms: C_10  and  C_11
REMARK    9  A    between atoms: N_19  and  C_20
REMARK   10  A    between atoms: C_20  and  C_21
REMARK                            x       y       z     vdW  Elec       q    Type
REMARK                         _______ _______ _______ _____ _____    ______ ____
ROOT
ATOM      1  C   UNL     1       4.982   5.357  16.650  0.00  0.00    +0.000 A 
ATOM      2  C   UNL     1       5.446   4.381  17.497  0.00  0.00    +0.000 A 
ATOM      3  C   UNL     1       5.009   4.434  18.807  0.00  0.00    +0.000 A 
ATOM      4  N   UNL     1       4.244   5.432  19.253  0.00  0.00    +0.000 NA
ATOM      5  C   UNL     1       3.799   6.326  18.366  0.00  0.00    +0.000 A 
ATOM      6  N   UNL     1       2.966   7.302  18.873  0.00  0.00    +0.000 N 
ATOM      7  N   UNL     1       4.135   6.318  17.061  0.00  0.00    +0.000 NA
ATOM      8  H   UNL     1       3.498   7.862  19.518  0.00  0.00    +0.000 HD
ENDROOT
BRANCH   3   9
ATOM      9  N   UNL     1       5.300   3.356  19.621  0.00  0.00    +0.000 N 
ATOM     10  H   UNL     1       5.544   3.577  20.576  0.00  0.00    +0.000 HD
BRANCH   9  11
ATOM     11  C   UNL     1       4.603   2.101  19.418  0.00  0.00    +0.000 C 
BRANCH  11  12
ATOM     12  C   UNL     1       3.144   2.367  19.714  0.00  0.00    +0.000 A 
ATOM     13  C   UNL     1       2.181   2.338  18.699  0.00  0.00    +0.000 A 
ATOM     14  C   UNL     1       0.858   2.690  18.975  0.00  0.00    +0.000 A 
ATOM     15  C   UNL     1       0.488   3.080  20.261  0.00  0.00    +0.000 A 
ATOM     16  C   UNL     1       1.437   3.111  21.279  0.00  0.00    +0.000 A 
ATOM     17  C   UNL     1       2.759   2.757  21.009  0.00  0.00    +0.000 A 
ENDBRANCH  11  12
ENDBRANCH   9  11
ENDBRANCH   3   9
BRANCH   1  18
ATOM     18  C   UNL     1       5.348   5.292  15.180  0.00  0.00    +0.000 C 
BRANCH  18  19
ATOM     19  C   UNL     1       6.668   4.567  14.913  0.00  0.00    +0.000 C 
BRANCH  19  21
ATOM     20  C   UNL     1       5.434   3.761  12.881  0.00  0.00    +0.000 C 
ATOM     21  C   UNL     1       6.818   4.064  13.461  0.00  0.00    +0.000 C 
ATOM     22  C   UNL     1       7.546   5.061  12.557  0.00  0.00    +0.000 C 
ENDBRANCH  19  21
ENDBRANCH  18  19
ENDBRANCH   1  18
BRANCH   6  23
ATOM     23  C   UNL     1       2.117   8.011  17.954  0.00  0.00    +0.000 C 
BRANCH  23  24
ATOM     24  C   UNL     1       1.697   9.333  18.572  0.00  0.00    +0.000 A 
ATOM     25  C   UNL     1       2.098  10.517  17.924  0.00  0.00    +0.000 A 
ATOM     26  C   UNL     1       1.832  11.761  18.486  0.00  0.00    +0.000 A 
ATOM     27  C   UNL     1       1.222  11.835  19.735  0.00  0.00    +0.000 A 
ATOM     28  C   UNL     1       0.821  10.673  20.410  0.00  0.00    +0.000 A 
ATOM     29  C   UNL     1       0.294  10.756  21.710  0.00  0.00    +0.000 A 
ATOM     30  C   UNL     1      -0.150   9.617  22.378  0.00  0.00    +0.000 A 
ATOM     31  C   UNL     1      -0.158   8.394  21.719  0.00  0.00    +0.000 A 
ATOM     32  C   UNL     1       0.390   8.292  20.440  0.00  0.00    +0.000 A 
ATOM     33  C   UNL     1       0.968   9.409  19.790  0.00  0.00    +0.000 A 
ENDBRANCH  23  24
ENDBRANCH   6  23
TORSDOF 8
ENDMDL
MODEL 8
REMARK VINA RESULT:      -8.6      1.631      2.772
REMARK  Name = 
REMARK  10 active torsions:
REMARK  status: ('A' for Active; 'I' for Inactive)
REMARK    1  A    between atoms: C_1  and  C_2
REMARK    2  A    between atoms: C_2  and  C_3
REMARK    3  A    between atoms: C_2  and  C_4
REMARK    4  A    between atoms: C_4  and  C_5
REMARK    5  A    between atoms: C_5  and  C_6
REMARK    6  A    between atoms: C_8  and  N_9
REMARK    7  A    between atoms: N_9  and  C_10
REMARK    8  A    between atoms: C_10  and  C_11
REMARK    9  A    between atoms: N_19  and  C_20
REMARK   10  A    between atoms: C_20  and  C_21
REMARK                            x       y       z     vdW  Elec       q    Type
REMARK                         _______ _______ _______ _____ _____    ______ ____
ROOT
ATOM      1  C   UNL     1       3.497   3.770  18.206  0.00  0.00    +0.000 A 
ATOM      2  C   UNL     1       4.336   3.603  17.131  0.00  0.00    +0.000 A 
ATOM      3  C   UNL     1       4.653   4.736  16.407  0.00  0.00    +0.000 A 
ATOM      4  N   UNL     1       4.106   5.922  16.680  0.00  0.00    +0.000 NA
ATOM      5  C   UNL     1       3.329   6.019  17.763  0.00  0.00    +0.000 A 
ATOM      6  N   UNL     1       2.837   7.280  18.029  0.00  0.00    +0.000 N 
ATOM      7  N   UNL     1       3.011   4.975  18.552  0.00  0.00    +0.000 NA
ATOM      8  H   UNL     1       2.220   7.540  17.278  0.00  0.00    +0.000 HD
ENDROOT
BRANCH   3   9
ATOM      9  N   UNL     1       5.646   4.626  15.452  0.00  0.00    +0.000 N 
ATOM     10  H   UNL     1       5.538   5.208  14.634  0.00  0.00    +0.000 HD
BRANCH   9  11
ATOM     11  C   UNL     1       7.009   4.361  15.868  0.00  0.00    +0.000 C 
BRANCH  11  12
ATOM     12  C   UNL     1       7.337   5.380  16.936  0.00  0.00    +0.000 A 
ATOM     13  C   UNL     1       7.413   6.745  16.640  0.00  0.00    +0.000 A 
ATOM     14  C   UNL     1       7.821   7.656  17.616  0.00  0.00    +0.000 A 
ATOM     15  C   UNL     1       8.164   7.211  18.892  0.00  0.00    +0.000 A 
ATOM     16  C   UNL     1       8.092   5.855  19.199  0.00  0.00    +0.000 A 
ATOM     17  C   UNL     1       7.681   4.943  18.228  0.00  0.00    +0.000 A 
ENDBRANCH  11  12
ENDBRANCH   9  11
ENDBRANCH   3   9
BRANCH   1  18
ATOM     18  C   UNL     1       3.194   2.581  19.096  0.00  0.00    +0.000 C 
BRANCH  18  19
ATOM     19  C   UNL     1       1.697   2.346  19.309  0.00  0.00    +0.000 C 
BRANCH  19  21
ATOM     20  C   UNL     1       2.240   2.731  21.729  0.00  0.00    +0.000 C 
ATOM     21  C   UNL     1       1.167   2.896  20.650  0.00  0.00    +0.000 C 
ATOM     22  C   UNL     1       0.744   4.364  20.568  0.00  0.00    +0.000 C 
ENDBRANCH  19  21
ENDBRANCH  18  19
ENDBRANCH   1  18
BRANCH   6  23
ATOM     23  C   UNL     1       2.380   7.560  19.363  0.00  0.00    +0.000 C 
BRANCH  23  24
ATOM     24  C   UNL     1       1.339   8.664  19.319  0.00  0.00    +0.000 A 
ATOM     25  C   UNL     1       1.066   9.260  18.073  0.00  0.00    +0.000 A 
ATOM     26  C   UNL     1       0.196  10.340  17.974  0.00  0.00    +0.000 A 
ATOM     27  C   UNL     1      -0.360  10.882  19.130  0.00  0.00    +0.000 A 
ATOM     28  C   UNL     1      -0.100  10.318  20.387  0.00  0.00    +0.000 A 
ATOM     29  C   UNL     1      -0.589  10.930  21.552  0.00  0.00    +0.000 A 
ATOM     30  C   UNL     1      -0.378  10.359  22.806  0.00  0.00    +0.000 A 
ATOM     31  C   UNL     1       0.247   9.122  22.900  0.00  0.00    +0.000 A 
ATOM     32  C   UNL     1       0.764   8.518  21.754  0.00  0.00    +0.000 A 
ATOM     33  C   UNL     1       0.678   9.139  20.485  0.00  0.00    +0.000 A 
ENDBRANCH  23  24
ENDBRANCH   6  23
TORSDOF 8
ENDMDL
MODEL 9
REMARK VINA RESULT:      -8.5      2.558      9.545
REMARK  Name = 
REMARK  10 active torsions:
REMARK  status: ('A' for Active; 'I' for Inactive)
REMARK    1  A    between atoms: C_1  and  C_2
REMARK    2  A    between atoms: C_2  and  C_3
REMARK    3  A    between atoms: C_2  and  C_4
REMARK    4  A    between atoms: C_4  and  C_5
REMARK    5  A    between atoms: C_5  and  C_6
REMARK    6  A    between atoms: C_8  and  N_9
REMARK    7  A    between atoms: N_9  and  C_10
REMARK    8  A    between atoms: C_10  and  C_11
REMARK    9  A    between atoms: N_19  and  C_20
REMARK   10  A    between atoms: C_20  and  C_21
REMARK                            x       y       z     vdW  Elec       q    Type
REMARK                         _______ _______ _______ _____ _____    ______ ____
ROOT
ATOM      1  C   UNL     1       0.386  10.243  20.518  0.00  0.00    +0.000 A 
ATOM      2  C   UNL     1      -0.482  10.825  19.627  0.00  0.00    +0.000 A 
ATOM      3  C   UNL     1      -0.387  10.419  18.310  0.00  0.00    +0.000 A 
ATOM      4  N   UNL     1       0.556   9.570  17.902  0.00  0.00    +0.000 NA
ATOM      5  C   UNL     1       1.342   9.013  18.828  0.00  0.00    +0.000 A 
ATOM      6  N   UNL     1       2.261   8.099  18.356  0.00  0.00    +0.000 N 
ATOM      7  N   UNL     1       1.282   9.314  20.140  0.00  0.00    +0.000 NA
ATOM      8  H   UNL     1       2.912   8.588  17.765  0.00  0.00    +0.000 HD
ENDROOT
BRANCH   3   9
ATOM      9  N   UNL     1      -1.376  10.839  17.441  0.00  0.00    +0.000 N 
ATOM     10  H   UNL     1      -1.057  11.222  16.561  0.00  0.00    +0.000 HD
BRANCH   9  11
ATOM     11  C   UNL     1      -2.641  10.132  17.404  0.00  0.00    +0.000 C 
BRANCH  11  12
ATOM     12  C   UNL     1      -3.707  11.141  17.766  0.00  0.00    +0.000 A 
ATOM     13  C   UNL     1      -3.770  11.705  19.045  0.00  0.00    +0.000 A 
ATOM     14  C   UNL     1      -4.825  12.553  19.390  0.00  0.00    +0.000 A 
ATOM     15  C   UNL     1      -5.828  12.839  18.464  0.00  0.00    +0.000 A 
ATOM     16  C   UNL     1      -5.775  12.285  17.188  0.00  0.00    +0.000 A 
ATOM     17  C   UNL     1      -4.722  11.441  16.838  0.00  0.00    +0.000 A 
ENDBRANCH  11  12
ENDBRANCH   9  11
ENDBRANCH   3   9
BRANCH   1  18
ATOM     18  C   UNL     1       0.262  10.575  21.992  0.00  0.00    +0.000 C 
BRANCH  18  19
ATOM     19  C   UNL     1      -1.180  10.811  22.443  0.00  0.00    +0.000 C 
BRANCH  19  21
ATOM     20  C   UNL     1      -0.749  13.282  22.341  0.00  0.00    +0.000 C 
ATOM     21  C   UNL     1      -1.393  12.161  23.161  0.00  0.00    +0.000 C 
ATOM     22  C   UNL     1      -2.870  12.483  23.399  0.00  0.00    +0.000 C 
ENDBRANCH  19  21
ENDBRANCH  18  19
ENDBRANCH   1  18
BRANCH   6  23
ATOM     23  C   UNL     1       2.821   7.159  19.289  0.00  0.00    +0.000 C 
BRANCH  23  24
ATOM     24  C   UNL     1       3.229   5.897  18.550  0.00  0.00    +0.000 A 
ATOM     25  C   UNL     1       4.265   5.997  17.603  0.00  0.00    +0.000 A 
ATOM     26  C   UNL     1       4.624   4.904  16.821  0.00  0.00    +0.000 A 
ATOM     27  C   UNL     1       3.906   3.716  16.929  0.00  0.00    +0.000 A 
ATOM     28  C   UNL     1       2.861   3.589  17.856  0.00  0.00    +0.000 A 
ATOM     29  C   UNL     1       2.083   2.420  17.890  0.00  0.00    +0.000 A 
ATOM     30  C   UNL     1       1.071   2.258  18.833  0.00  0.00    +0.000 A 
ATOM     31  C   UNL     1       0.884   3.226  19.812  0.00  0.00    +0.000 A 
ATOM     32  C   UNL     1       1.629   4.405  19.773  0.00  0.00    +0.000 A 
ATOM     33  C   UNL     1       2.574   4.651  18.748  0.00  0.00    +0.000 A 
ENDBRANCH  23  24
ENDBRANCH   6  23
TORSDOF 8
ENDMDL
