MODEL 1
REMARK VINA RESULT:      -9.0      0.000      0.000
REMARK  Name = 
REMARK  6 active torsions:
REMARK  status: ('A' for Active; 'I' for Inactive)
REMARK    1  A    between atoms: C_1  and  C_2
REMARK    2  A    between atoms: C_2  and  C_3
REMARK    3  A    between atoms: C_10  and  C_11
REMARK    4  A    between atoms: C_18  and  C_19
REMARK    5  A    between atoms: C_19  and  C_20
REMARK    6  A    between atoms: C_20  and  C_21
REMARK                            x       y       z     vdW  Elec       q    Type
REMARK                         _______ _______ _______ _____ _____    ______ ____
ROOT
ATOM      1  C   UNL     1       4.174   2.042  20.279  0.00  0.00    +0.000 C 
ATOM      2  C   UNL     1       4.308   3.100  19.184  0.00  0.00    +0.000 C 
ATOM      3  C   UNL     1       4.208   2.413  17.813  0.00  0.00    +0.000 C 
ATOM      4  O   UNL     1       5.603   3.693  19.333  0.00  0.00    +0.000 OA
ATOM      5  C   UNL     1       5.818   4.900  18.769  0.00  0.00    +0.000 C 
ATOM      6  O   UNL     1       6.944   5.372  18.666  0.00  0.00    +0.000 OA
ATOM      7  C   UNL     1       4.629   5.630  18.304  0.00  0.00    +0.000 C 
ATOM      8  C   UNL     1       3.427   5.204  18.694  0.00  0.00    +0.000 C 
ATOM      9  C   UNL     1       2.188   5.968  18.381  0.00  0.00    +0.000 C 
ATOM     10  C   UNL     1       2.424   7.358  17.752  0.00  0.00    +0.000 C 
ATOM     11  O   UNL     1       3.768   7.788  17.532  0.00  0.00    +0.000 OA
ATOM     12  C   UNL     1       4.844   6.859  17.481  0.00  0.00    +0.000 C 
ATOM     13  O   UNL     1       3.223   4.018  19.359  0.00  0.00    +0.000 OA
ENDROOT
BRANCH  10  14
ATOM     14  C   UNL     1       1.849   8.451  18.638  0.00  0.00    +0.000 A 
ATOM     15  C   UNL     1       1.489   9.695  18.086  0.00  0.00    +0.000 A 
ATOM     16  C   UNL     1       0.916  10.689  18.874  0.00  0.00    +0.000 A 
ATOM     17  C   UNL     1       0.689  10.454  20.230  0.00  0.00    +0.000 A 
ATOM     18  C   UNL     1       1.036   9.227  20.789  0.00  0.00    +0.000 A 
ATOM     19  C   UNL     1       1.611   8.227  20.000  0.00  0.00    +0.000 A 
ENDBRANCH  10  14
BRANCH  12  20
ATOM     20  C   UNL     1       5.176   6.527  16.014  0.00  0.00    +0.000 C 
BRANCH  20  21
ATOM     21  C   UNL     1       5.133   5.013  15.757  0.00  0.00    +0.000 C 
BRANCH  21  22
ATOM     22  C   UNL     1       5.824   4.629  14.471  0.00  0.00    +0.000 A 
ATOM     23  C   UNL     1       7.079   5.164  14.146  0.00  0.00    +0.000 A 
ATOM     24  C   UNL     1       7.705   4.822  12.945  0.00  0.00    +0.000 A 
ATOM     25  C   UNL     1       7.084   3.944  12.057  0.00  0.00    +0.000 A 
ATOM     26  C   UNL     1       5.841   3.400  12.375  0.00  0.00    +0.000 A 
ATOM     27  C   UNL     1       5.214   3.741  13.575  0.00  0.00    +0.000 A 
ENDBRANCH  21  22
ENDBRANCH  20  21
ENDBRANCH  12  20
TORSDOF 4
ENDMDL
MODEL 2
REMARK VINA RESULT:      -8.9      2.763      6.453
REMARK  Name = 
REMARK  6 active torsions:
REMARK  status: ('A' for Active; 'I' for Inactive)
REMARK    1  A    between atoms: C_1  and  C_2
REMARK    2  A    between atoms: C_2  and  C_3
REMARK    3  A    between atoms: C_10  and  C_11
REMARK    4  A    between atoms: C_18  and  C_19
REMARK    5  A    between atoms: C_19  and  C_20
REMARK    6  A    between atoms: C_20  and  C_21
REMARK                            x       y       z     vdW  Elec       q    Type
REMARK                         _______ _______ _______ _____ _____    ______ ____
ROOT
ATOM      1  C   UNL     1       0.745  11.675  18.693  0.00  0.00    +0.000 C 
ATOM      2  C   UNL     1       0.769  10.164  18.923  0.00  0.00    +0.000 C 
ATOM      3  C   UNL     1      -0.512   9.551  18.336  0.00  0.00    +0.000 C 
ATOM      4  O   UNL     1       0.797   9.958  20.339  0.00  0.00    +0.000 OA
ATOM      5  C   UNL     1       1.219   8.761  20.799  0.00  0.00    +0.000 C 
ATOM      6  O   UNL     1       1.071   8.432  21.970  0.00  0.00    +0.000 OA
ATOM      7  C   UNL     1       1.887   7.881  19.828  0.00  0.00    +0.000 C 
ATOM      8  C   UNL     1       2.270   8.398  18.659  0.00  0.00    +0.000 C 
ATOM      9  C   UNL     1       3.073   7.610  17.684  0.00  0.00    +0.000 C 
ATOM     10  C   UNL     1       3.576   6.248  18.207  0.00  0.00    +0.000 C 
ATOM     11  O   UNL     1       3.247   5.866  19.542  0.00  0.00    +0.000 OA
ATOM     12  C   UNL     1       2.167   6.473  20.242  0.00  0.00    +0.000 C 
ATOM     13  O   UNL     1       1.920   9.658  18.237  0.00  0.00    +0.000 OA
ENDROOT
BRANCH  10  14
ATOM     14  C   UNL     1       5.095   6.198  18.195  0.00  0.00    +0.000 A 
ATOM     15  C   UNL     1       5.824   6.976  17.275  0.00  0.00    +0.000 A 
ATOM     16  C   UNL     1       7.215   6.979  17.283  0.00  0.00    +0.000 A 
ATOM     17  C   UNL     1       7.905   6.205  18.217  0.00  0.00    +0.000 A 
ATOM     18  C   UNL     1       7.198   5.434  19.136  0.00  0.00    +0.000 A 
ATOM     19  C   UNL     1       5.800   5.430  19.130  0.00  0.00    +0.000 A 
ENDBRANCH  10  14
BRANCH  12  20
ATOM     20  C   UNL     1       0.916   5.579  20.146  0.00  0.00    +0.000 C 
BRANCH  20  21
ATOM     21  C   UNL     1       1.173   4.186  20.742  0.00  0.00    +0.000 C 
BRANCH  21  22
ATOM     22  C   UNL     1       2.000   3.314  19.829  0.00  0.00    +0.000 A 
ATOM     23  C   UNL     1       3.201   2.745  20.277  0.00  0.00    +0.000 A 
ATOM     24  C   UNL     1       3.973   1.957  19.421  0.00  0.00    +0.000 A 
ATOM     25  C   UNL     1       3.555   1.730  18.111  0.00  0.00    +0.000 A 
ATOM     26  C   UNL     1       2.359   2.284  17.658  0.00  0.00    +0.000 A 
ATOM     27  C   UNL     1       1.586   3.073  18.512  0.00  0.00    +0.000 A 
ENDBRANCH  21  22
ENDBRANCH  20  21
ENDBRANCH  12  20
TORSDOF 4
ENDMDL
MODEL 3
REMARK VINA RESULT:      -8.9      0.117      1.317
REMARK  Name = 
REMARK  6 active torsions:
REMARK  status: ('A' for Active; 'I' for Inactive)
REMARK    1  A    between atoms: C_1  and  C_2
REMARK    2  A    between atoms: C_2  and  C_3
REMARK    3  A    between atoms: C_10  and  C_11
REMARK    4  A    between atoms: C_18  and  C_19
REMARK    5  A    between atoms: C_19  and  C_20
REMARK    6  A    between atoms: C_20  and  C_21
REMARK                            x       y       z     vdW  Elec       q    Type
REMARK                         _______ _______ _______ _____ _____    ______ ____
ROOT
ATOM      1  C   UNL     1       4.206   2.146  20.305  0.00  0.00    +0.000 C 
ATOM      2  C   UNL     1       4.354   3.191  19.200  0.00  0.00    +0.000 C 
ATOM      3  C   UNL     1       4.287   2.486  17.836  0.00  0.00    +0.000 C 
ATOM      4  O   UNL     1       5.640   3.797  19.367  0.00  0.00    +0.000 OA
ATOM      5  C   UNL     1       5.856   4.998  18.792  0.00  0.00    +0.000 C 
ATOM      6  O   UNL     1       6.981   5.478  18.705  0.00  0.00    +0.000 OA
ATOM      7  C   UNL     1       4.671   5.713  18.294  0.00  0.00    +0.000 C 
ATOM      8  C   UNL     1       3.465   5.281  18.666  0.00  0.00    +0.000 C 
ATOM      9  C   UNL     1       2.227   6.031  18.318  0.00  0.00    +0.000 C 
ATOM     10  C   UNL     1       2.464   7.414  17.677  0.00  0.00    +0.000 C 
ATOM     11  O   UNL     1       3.808   7.853  17.478  0.00  0.00    +0.000 OA
ATOM     12  C   UNL     1       4.893   6.933  17.460  0.00  0.00    +0.000 C 
ATOM     13  O   UNL     1       3.258   4.102  19.341  0.00  0.00    +0.000 OA
ENDROOT
BRANCH  10  14
ATOM     14  C   UNL     1       1.863   8.514  18.537  0.00  0.00    +0.000 A 
ATOM     15  C   UNL     1       1.554   8.268  19.888  0.00  0.00    +0.000 A 
ATOM     16  C   UNL     1       1.049   9.278  20.703  0.00  0.00    +0.000 A 
ATOM     17  C   UNL     1       0.847  10.555  20.179  0.00  0.00    +0.000 A 
ATOM     18  C   UNL     1       1.152  10.814  18.845  0.00  0.00    +0.000 A 
ATOM     19  C   UNL     1       1.660   9.802  18.026  0.00  0.00    +0.000 A 
ENDBRANCH  10  14
BRANCH  12  20
ATOM     20  C   UNL     1       5.257   6.584  16.004  0.00  0.00    +0.000 C 
BRANCH  20  21
ATOM     21  C   UNL     1       5.163   5.073  15.747  0.00  0.00    +0.000 C 
BRANCH  21  22
ATOM     22  C   UNL     1       5.810   4.671  14.444  0.00  0.00    +0.000 A 
ATOM     23  C   UNL     1       5.183   3.756  13.586  0.00  0.00    +0.000 A 
ATOM     24  C   UNL     1       5.796   3.371  12.392  0.00  0.00    +0.000 A 
ATOM     25  C   UNL     1       7.040   3.894  12.043  0.00  0.00    +0.000 A 
ATOM     26  C   UNL     1       7.668   4.810  12.885  0.00  0.00    +0.000 A 
ATOM     27  C   UNL     1       7.057   5.196  14.080  0.00  0.00    +0.000 A 
ENDBRANCH  21  22
ENDBRANCH  20  21
ENDBRANCH  12  20
TORSDOF 4
ENDMDL
MODEL 4
REMARK VINA RESULT:      -8.8      0.403      1.012
REMARK  Name = 
REMARK  6 active torsions:
REMARK  status: ('A' for Active; 'I' for Inactive)
REMARK    1  A    between atoms: C_1  and  C_2
REMARK    2  A    between atoms: C_2  and  C_3
REMARK    3  A    between atoms: C_10  and  C_11
REMARK    4  A    between atoms: C_18  and  C_19
REMARK    5  A    between atoms: C_19  and  C_20
REMARK    6  A    between atoms: C_20  and  C_21
REMARK                            x       y       z     vdW  Elec       q    Type
REMARK                         _______ _______ _______ _____ _____    ______ ____
ROOT
ATOM      1  C   UNL     1       3.436   1.656  19.918  0.00  0.00    +0.000 C 
ATOM      2  C   UNL     1       3.865   2.777  18.972  0.00  0.00    +0.000 C 
ATOM      3  C   UNL     1       3.970   2.213  17.547  0.00  0.00    +0.000 C 
ATOM      4  O   UNL     1       5.153   3.223  19.411  0.00  0.00    +0.000 OA
ATOM      5  C   UNL     1       5.573   4.443  19.014  0.00  0.00    +0.000 C 
ATOM      6  O   UNL     1       6.734   4.805  19.164  0.00  0.00    +0.000 OA
ATOM      7  C   UNL     1       4.560   5.323  18.412  0.00  0.00    +0.000 C 
ATOM      8  C   UNL     1       3.274   4.991  18.534  0.00  0.00    +0.000 C 
ATOM      9  C   UNL     1       2.187   5.899  18.075  0.00  0.00    +0.000 C 
ATOM     10  C   UNL     1       2.655   7.302  17.636  0.00  0.00    +0.000 C 
ATOM     11  O   UNL     1       4.048   7.611  17.706  0.00  0.00    +0.000 OA
ATOM     12  C   UNL     1       5.031   6.584  17.763  0.00  0.00    +0.000 C 
ATOM     13  O   UNL     1       2.848   3.783  19.033  0.00  0.00    +0.000 OA
ENDROOT
BRANCH  10  14
ATOM     14  C   UNL     1       2.016   8.375  18.502  0.00  0.00    +0.000 A 
ATOM     15  C   UNL     1       1.675   9.623  17.949  0.00  0.00    +0.000 A 
ATOM     16  C   UNL     1       1.045  10.599  18.717  0.00  0.00    +0.000 A 
ATOM     17  C   UNL     1       0.741  10.340  20.053  0.00  0.00    +0.000 A 
ATOM     18  C   UNL     1       1.069   9.108  20.613  0.00  0.00    +0.000 A 
ATOM     19  C   UNL     1       1.701   8.127  19.845  0.00  0.00    +0.000 A 
ENDBRANCH  10  14
BRANCH  12  20
ATOM     20  C   UNL     1       5.608   6.336  16.357  0.00  0.00    +0.000 C 
BRANCH  20  21
ATOM     21  C   UNL     1       5.139   4.988  15.787  0.00  0.00    +0.000 C 
BRANCH  21  22
ATOM     22  C   UNL     1       5.826   4.644  14.488  0.00  0.00    +0.000 A 
ATOM     23  C   UNL     1       5.248   3.733  13.592  0.00  0.00    +0.000 A 
ATOM     24  C   UNL     1       5.897   3.402  12.402  0.00  0.00    +0.000 A 
ATOM     25  C   UNL     1       7.131   3.976  12.094  0.00  0.00    +0.000 A 
ATOM     26  C   UNL     1       7.709   4.888  12.973  0.00  0.00    +0.000 A 
ATOM     27  C   UNL     1       7.061   5.221  14.164  0.00  0.00    +0.000 A 
ENDBRANCH  21  22
ENDBRANCH  20  21
ENDBRANCH  12  20
TORSDOF 4
ENDMDL
MODEL 5
REMARK VINA RESULT:      -8.7      2.699      6.586
REMARK  Name = 
REMARK  6 active torsions:
REMARK  status: ('A' for Active; 'I' for Inactive)
REMARK    1  A    between atoms: C_1  and  C_2
REMARK    2  A    between atoms: C_2  and  C_3
REMARK    3  A    between atoms: C_10  and  C_11
REMARK    4  A    between atoms: C_18  and  C_19
REMARK    5  A    between atoms: C_19  and  C_20
REMARK    6  A    between atoms: C_20  and  C_21
REMARK                            x       y       z     vdW  Elec       q    Type
REMARK                         _______ _______ _______ _____ _____    ______ ____
ROOT
ATOM      1  C   UNL     1       0.828  11.753  18.768  0.00  0.00    +0.000 C 
ATOM      2  C   UNL     1       0.825  10.237  18.964  0.00  0.00    +0.000 C 
ATOM      3  C   UNL     1      -0.462   9.659  18.354  0.00  0.00    +0.000 C 
ATOM      4  O   UNL     1       0.839   9.999  20.376  0.00  0.00    +0.000 OA
ATOM      5  C   UNL     1       1.238   8.785  20.811  0.00  0.00    +0.000 C 
ATOM      6  O   UNL     1       1.075   8.433  21.974  0.00  0.00    +0.000 OA
ATOM      7  C   UNL     1       1.897   7.916  19.826  0.00  0.00    +0.000 C 
ATOM      8  C   UNL     1       2.298   8.452  18.672  0.00  0.00    +0.000 C 
ATOM      9  C   UNL     1       3.094   7.672  17.684  0.00  0.00    +0.000 C 
ATOM     10  C   UNL     1       3.571   6.291  18.180  0.00  0.00    +0.000 C 
ATOM     11  O   UNL     1       3.225   5.884  19.505  0.00  0.00    +0.000 OA
ATOM     12  C   UNL     1       2.150   6.494  20.210  0.00  0.00    +0.000 C 
ATOM     13  O   UNL     1       1.972   9.727  18.275  0.00  0.00    +0.000 OA
ENDROOT
BRANCH  10  14
ATOM     14  C   UNL     1       5.089   6.215  18.178  0.00  0.00    +0.000 A 
ATOM     15  C   UNL     1       5.761   5.428  19.131  0.00  0.00    +0.000 A 
ATOM     16  C   UNL     1       7.147   5.308  19.112  0.00  0.00    +0.000 A 
ATOM     17  C   UNL     1       7.887   5.973  18.135  0.00  0.00    +0.000 A 
ATOM     18  C   UNL     1       7.236   6.752  17.181  0.00  0.00    +0.000 A 
ATOM     19  C   UNL     1       5.843   6.873  17.198  0.00  0.00    +0.000 A 
ENDBRANCH  10  14
BRANCH  12  20
ATOM     20  C   UNL     1       0.885   5.624  20.085  0.00  0.00    +0.000 C 
BRANCH  20  21
ATOM     21  C   UNL     1       1.106   4.223  20.677  0.00  0.00    +0.000 C 
BRANCH  21  22
ATOM     22  C   UNL     1       1.965   3.355  19.791  0.00  0.00    +0.000 A 
ATOM     23  C   UNL     1       1.595   3.099  18.463  0.00  0.00    +0.000 A 
ATOM     24  C   UNL     1       2.383   2.277  17.655  0.00  0.00    +0.000 A 
ATOM     25  C   UNL     1       3.547   1.703  18.163  0.00  0.00    +0.000 A 
ATOM     26  C   UNL     1       3.928   1.958  19.479  0.00  0.00    +0.000 A 
ATOM     27  C   UNL     1       3.142   2.779  20.289  0.00  0.00    +0.000 A 
ENDBRANCH  21  22
ENDBRANCH  20  21
ENDBRANCH  12  20
TORSDOF 4
ENDMDL
MODEL 6
REMARK VINA RESULT:      -8.7      0.565      1.083
REMARK  Name = 
REMARK  6 active torsions:
REMARK  status: ('A' for Active; 'I' for Inactive)
REMARK    1  A    between atoms: C_1  and  C_2
REMARK    2  A    between atoms: C_2  and  C_3
REMARK    3  A    between atoms: C_10  and  C_11
REMARK    4  A    between atoms: C_18  and  C_19
REMARK    5  A    between atoms: C_19  and  C_20
REMARK    6  A    between atoms: C_20  and  C_21
REMARK                            x       y       z     vdW  Elec       q    Type
REMARK                         _______ _______ _______ _____ _____    ______ ____
ROOT
ATOM      1  C   UNL     1       2.960   1.697  19.850  0.00  0.00    +0.000 C 
ATOM      2  C   UNL     1       3.504   2.801  18.944  0.00  0.00    +0.000 C 
ATOM      3  C   UNL     1       3.665   2.243  17.521  0.00  0.00    +0.000 C 
ATOM      4  O   UNL     1       4.785   3.174  19.463  0.00  0.00    +0.000 OA
ATOM      5  C   UNL     1       5.292   4.372  19.104  0.00  0.00    +0.000 C 
ATOM      6  O   UNL     1       6.459   4.671  19.327  0.00  0.00    +0.000 OA
ATOM      7  C   UNL     1       4.366   5.310  18.453  0.00  0.00    +0.000 C 
ATOM      8  C   UNL     1       3.058   5.046  18.494  0.00  0.00    +0.000 C 
ATOM      9  C   UNL     1       2.051   6.014  17.980  0.00  0.00    +0.000 C 
ATOM     10  C   UNL     1       2.618   7.394  17.585  0.00  0.00    +0.000 C 
ATOM     11  O   UNL     1       4.018   7.627  17.742  0.00  0.00    +0.000 OA
ATOM     12  C   UNL     1       4.941   6.549  17.847  0.00  0.00    +0.000 C 
ATOM     13  O   UNL     1       2.540   3.860  18.955  0.00  0.00    +0.000 OA
ENDROOT
BRANCH  10  14
ATOM     14  C   UNL     1       1.986   8.493  18.423  0.00  0.00    +0.000 A 
ATOM     15  C   UNL     1       1.608   8.241  19.755  0.00  0.00    +0.000 A 
ATOM     16  C   UNL     1       1.074   9.249  20.552  0.00  0.00    +0.000 A 
ATOM     17  C   UNL     1       0.911  10.532  20.029  0.00  0.00    +0.000 A 
ATOM     18  C   UNL     1       1.284  10.798  18.714  0.00  0.00    +0.000 A 
ATOM     19  C   UNL     1       1.822   9.787  17.913  0.00  0.00    +0.000 A 
ENDBRANCH  10  14
BRANCH  12  20
ATOM     20  C   UNL     1       5.587   6.281  16.474  0.00  0.00    +0.000 C 
BRANCH  20  21
ATOM     21  C   UNL     1       5.166   4.914  15.913  0.00  0.00    +0.000 C 
BRANCH  21  22
ATOM     22  C   UNL     1       5.841   4.601  14.600  0.00  0.00    +0.000 A 
ATOM     23  C   UNL     1       7.064   5.199  14.263  0.00  0.00    +0.000 A 
ATOM     24  C   UNL     1       7.674   4.922  13.038  0.00  0.00    +0.000 A 
ATOM     25  C   UNL     1       7.070   4.046  12.137  0.00  0.00    +0.000 A 
ATOM     26  C   UNL     1       5.860   3.439  12.466  0.00  0.00    +0.000 A 
ATOM     27  C   UNL     1       5.248   3.715  13.690  0.00  0.00    +0.000 A 
ENDBRANCH  21  22
ENDBRANCH  20  21
ENDBRANCH  12  20
TORSDOF 4
ENDMDL
MODEL 7
REMARK VINA RESULT:      -8.6      2.990      6.827
REMARK  Name = 
REMARK  6 active torsions:
REMARK  status: ('A' for Active; 'I' for Inactive)
REMARK    1  A    between atoms: C_1  and  C_2
REMARK    2  A    between atoms: C_2  and  C_3
REMARK    3  A    between atoms: C_10  and  C_11
REMARK    4  A    between atoms: C_18  and  C_19
REMARK    5  A    between atoms: C_19  and  C_20
REMARK    6  A    between atoms: C_20  and  C_21
REMARK                            x       y       z     vdW  Elec       q    Type
REMARK                         _______ _______ _______ _____ _____    ______ ____
ROOT
ATOM      1  C   UNL     1       1.468   3.908  18.924  0.00  0.00    +0.000 C 
ATOM      2  C   UNL     1       2.752   4.713  18.722  0.00  0.00    +0.000 C 
ATOM      3  C   UNL     1       3.526   4.758  20.049  0.00  0.00    +0.000 C 
ATOM      4  O   UNL     1       2.359   6.038  18.348  0.00  0.00    +0.000 OA
ATOM      5  C   UNL     1       3.270   6.821  17.732  0.00  0.00    +0.000 C 
ATOM      6  O   UNL     1       3.086   8.022  17.576  0.00  0.00    +0.000 OA
ATOM      7  C   UNL     1       4.484   6.154  17.238  0.00  0.00    +0.000 C 
ATOM      8  C   UNL     1       4.501   4.822  17.182  0.00  0.00    +0.000 C 
ATOM      9  C   UNL     1       5.636   4.081  16.566  0.00  0.00    +0.000 C 
ATOM     10  C   UNL     1       6.673   4.966  15.843  0.00  0.00    +0.000 C 
ATOM     11  O   UNL     1       6.467   6.379  15.820  0.00  0.00    +0.000 OA
ATOM     12  C   UNL     1       5.604   7.017  16.754  0.00  0.00    +0.000 C 
ATOM     13  O   UNL     1       3.518   4.028  17.724  0.00  0.00    +0.000 OA
ENDROOT
BRANCH  10  14
ATOM     14  C   UNL     1       6.755   4.602  14.370  0.00  0.00    +0.000 A 
ATOM     15  C   UNL     1       5.841   3.687  13.814  0.00  0.00    +0.000 A 
ATOM     16  C   UNL     1       5.871   3.380  12.457  0.00  0.00    +0.000 A 
ATOM     17  C   UNL     1       6.816   3.987  11.629  0.00  0.00    +0.000 A 
ATOM     18  C   UNL     1       7.724   4.897  12.165  0.00  0.00    +0.000 A 
ATOM     19  C   UNL     1       7.695   5.208  13.527  0.00  0.00    +0.000 A 
ENDBRANCH  10  14
BRANCH  12  20
ATOM     20  C   UNL     1       6.433   7.601  17.914  0.00  0.00    +0.000 C 
BRANCH  20  21
ATOM     21  C   UNL     1       7.867   7.927  17.472  0.00  0.00    +0.000 C 
BRANCH  21  22
ATOM     22  C   UNL     1       8.359   9.237  18.038  0.00  0.00    +0.000 A 
ATOM     23  C   UNL     1       9.069   9.272  19.247  0.00  0.00    +0.000 A 
ATOM     24  C   UNL     1       9.504  10.488  19.777  0.00  0.00    +0.000 A 
ATOM     25  C   UNL     1       9.233  11.681  19.107  0.00  0.00    +0.000 A 
ATOM     26  C   UNL     1       8.536  11.656  17.902  0.00  0.00    +0.000 A 
ATOM     27  C   UNL     1       8.100  10.441  17.369  0.00  0.00    +0.000 A 
ENDBRANCH  21  22
ENDBRANCH  20  21
ENDBRANCH  12  20
TORSDOF 4
ENDMDL
MODEL 8
REMARK VINA RESULT:      -8.6      3.032      6.849
REMARK  Name = 
REMARK  6 active torsions:
REMARK  status: ('A' for Active; 'I' for Inactive)
REMARK    1  A    between atoms: C_1  and  C_2
REMARK    2  A    between atoms: C_2  and  C_3
REMARK    3  A    between atoms: C_10  and  C_11
REMARK    4  A    between atoms: C_18  and  C_19
REMARK    5  A    between atoms: C_19  and  C_20
REMARK    6  A    between atoms: C_20  and  C_21
REMARK                            x       y       z     vdW  Elec       q    Type
REMARK                         _______ _______ _______ _____ _____    ______ ____
ROOT
ATOM      1  C   UNL     1       1.380   4.239  18.971  0.00  0.00    +0.000 C 
ATOM      2  C   UNL     1       2.706   4.972  18.770  0.00  0.00    +0.000 C 
ATOM      3  C   UNL     1       3.488   4.959  20.093  0.00  0.00    +0.000 C 
ATOM      4  O   UNL     1       2.387   6.320  18.411  0.00  0.00    +0.000 OA
ATOM      5  C   UNL     1       3.338   7.057  17.797  0.00  0.00    +0.000 C 
ATOM      6  O   UNL     1       3.221   8.268  17.654  0.00  0.00    +0.000 OA
ATOM      7  C   UNL     1       4.509   6.327  17.290  0.00  0.00    +0.000 C 
ATOM      8  C   UNL     1       4.450   4.996  17.220  0.00  0.00    +0.000 C 
ATOM      9  C   UNL     1       5.538   4.199  16.591  0.00  0.00    +0.000 C 
ATOM     10  C   UNL     1       6.620   5.031  15.870  0.00  0.00    +0.000 C 
ATOM     11  O   UNL     1       6.494   6.454  15.862  0.00  0.00    +0.000 OA
ATOM     12  C   UNL     1       5.674   7.130  16.808  0.00  0.00    +0.000 C 
ATOM     13  O   UNL     1       3.427   4.255  17.761  0.00  0.00    +0.000 OA
ENDROOT
BRANCH  10  14
ATOM     14  C   UNL     1       6.673   4.677  14.393  0.00  0.00    +0.000 A 
ATOM     15  C   UNL     1       7.639   5.267  13.557  0.00  0.00    +0.000 A 
ATOM     16  C   UNL     1       7.733   4.918  12.213  0.00  0.00    +0.000 A 
ATOM     17  C   UNL     1       6.862   3.966  11.682  0.00  0.00    +0.000 A 
ATOM     18  C   UNL     1       5.904   3.371  12.498  0.00  0.00    +0.000 A 
ATOM     19  C   UNL     1       5.808   3.720  13.848  0.00  0.00    +0.000 A 
ENDBRANCH  10  14
BRANCH  12  20
ATOM     20  C   UNL     1       6.541   7.654  17.968  0.00  0.00    +0.000 C 
BRANCH  20  21
ATOM     21  C   UNL     1       7.946   8.047  17.488  0.00  0.00    +0.000 C 
BRANCH  21  22
ATOM     22  C   UNL     1       8.415   9.350  18.088  0.00  0.00    +0.000 A 
ATOM     23  C   UNL     1       8.217  10.562  17.411  0.00  0.00    +0.000 A 
ATOM     24  C   UNL     1       8.672  11.762  17.961  0.00  0.00    +0.000 A 
ATOM     25  C   UNL     1       9.330  11.764  19.191  0.00  0.00    +0.000 A 
ATOM     26  C   UNL     1       9.523  10.566  19.876  0.00  0.00    +0.000 A 
ATOM     27  C   UNL     1       9.069   9.365  19.328  0.00  0.00    +0.000 A 
ENDBRANCH  21  22
ENDBRANCH  20  21
ENDBRANCH  12  20
TORSDOF 4
ENDMDL
MODEL 9
REMARK VINA RESULT:      -8.2      2.894      6.783
REMARK  Name = 
REMARK  6 active torsions:
REMARK  status: ('A' for Active; 'I' for Inactive)
REMARK    1  A    between atoms: C_1  and  C_2
REMARK    2  A    between atoms: C_2  and  C_3
REMARK    3  A    between atoms: C_10  and  C_11
REMARK    4  A    between atoms: C_18  and  C_19
REMARK    5  A    between atoms: C_19  and  C_20
REMARK    6  A    between atoms: C_20  and  C_21
REMARK                            x       y       z     vdW  Elec       q    Type
REMARK                         _______ _______ _______ _____ _____    ______ ____
ROOT
ATOM      1  C   UNL     1       1.337   3.497  18.305  0.00  0.00    +0.000 C 
ATOM      2  C   UNL     1       2.647   4.284  18.306  0.00  0.00    +0.000 C 
ATOM      3  C   UNL     1       3.324   4.123  19.677  0.00  0.00    +0.000 C 
ATOM      4  O   UNL     1       2.309   5.659  18.094  0.00  0.00    +0.000 OA
ATOM      5  C   UNL     1       3.277   6.492  17.658  0.00  0.00    +0.000 C 
ATOM      6  O   UNL     1       3.128   7.709  17.659  0.00  0.00    +0.000 OA
ATOM      7  C   UNL     1       4.510   5.865  17.161  0.00  0.00    +0.000 C 
ATOM      8  C   UNL     1       4.505   4.553  16.921  0.00  0.00    +0.000 C 
ATOM      9  C   UNL     1       5.667   3.871  16.287  0.00  0.00    +0.000 C 
ATOM     10  C   UNL     1       6.771   4.817  15.769  0.00  0.00    +0.000 C 
ATOM     11  O   UNL     1       6.595   6.225  15.928  0.00  0.00    +0.000 OA
ATOM     12  C   UNL     1       5.679   6.753  16.881  0.00  0.00    +0.000 C 
ATOM     13  O   UNL     1       3.470   3.721  17.278  0.00  0.00    +0.000 OA
ENDROOT
BRANCH  10  14
ATOM     14  C   UNL     1       6.952   4.656  14.268  0.00  0.00    +0.000 A 
ATOM     15  C   UNL     1       6.191   3.709  13.559  0.00  0.00    +0.000 A 
ATOM     16  C   UNL     1       6.309   3.583  12.178  0.00  0.00    +0.000 A 
ATOM     17  C   UNL     1       7.191   4.408  11.480  0.00  0.00    +0.000 A 
ATOM     18  C   UNL     1       7.948   5.354  12.167  0.00  0.00    +0.000 A 
ATOM     19  C   UNL     1       7.830   5.482  13.554  0.00  0.00    +0.000 A 
ENDBRANCH  10  14
BRANCH  12  20
ATOM     20  C   UNL     1       6.433   7.147  18.165  0.00  0.00    +0.000 C 
BRANCH  20  21
ATOM     21  C   UNL     1       7.915   7.433  17.882  0.00  0.00    +0.000 C 
BRANCH  21  22
ATOM     22  C   UNL     1       8.277   8.879  18.119  0.00  0.00    +0.000 A 
ATOM     23  C   UNL     1       7.714   9.895  17.334  0.00  0.00    +0.000 A 
ATOM     24  C   UNL     1       8.068  11.229  17.543  0.00  0.00    +0.000 A 
ATOM     25  C   UNL     1       8.987  11.562  18.538  0.00  0.00    +0.000 A 
ATOM     26  C   UNL     1       9.545  10.561  19.330  0.00  0.00    +0.000 A 
ATOM     27  C   UNL     1       9.193   9.226  19.122  0.00  0.00    +0.000 A 
ENDBRANCH  21  22
ENDBRANCH  20  21
ENDBRANCH  12  20
TORSDOF 4
ENDMDL
