MODEL 1
REMARK VINA RESULT:      -7.4      0.000      0.000
REMARK  Name = 
REMARK  6 active torsions:
REMARK  status: ('A' for Active; 'I' for Inactive)
REMARK    1  A    between atoms: N_4  and  C_5
REMARK    2  A    between atoms: C_8  and  C_9
REMARK    3  A    between atoms: C_9  and  O_11
REMARK    4  A    between atoms: O_11  and  C_12
REMARK    5  A    between atoms: C_15  and  S_16
REMARK    6  A    between atoms: S_16  and  N_17
REMARK                            x       y       z     vdW  Elec       q    Type
REMARK                         _______ _______ _______ _____ _____    ______ ____
ROOT
ATOM      1  C   UNL     1       4.132   3.638  18.866  0.00  0.00    +0.000 C 
ATOM      2  O   UNL     1       4.441   2.895  19.781  0.00  0.00    +0.000 OA
ENDROOT
BRANCH   1   6
ATOM      3  C   UNL     1       6.780   4.987  15.737  0.00  0.00    +0.000 A 
ATOM      4  C   UNL     1       5.464   4.579  15.471  0.00  0.00    +0.000 A 
ATOM      5  C   UNL     1       4.618   4.144  16.495  0.00  0.00    +0.000 A 
ATOM      6  C   UNL     1       5.078   4.098  17.812  0.00  0.00    +0.000 A 
ATOM      7  C   UNL     1       6.371   4.549  18.099  0.00  0.00    +0.000 A 
ATOM      8  C   UNL     1       7.205   5.003  17.068  0.00  0.00    +0.000 A 
BRANCH   3  12
ATOM      9  N   UNL     1       6.832   4.090  12.848  0.00  0.00    +0.000 NA
ATOM     10  C   UNL     1       7.514   5.057  13.351  0.00  0.00    +0.000 C 
ATOM     11  N   UNL     1       8.322   5.811  12.566  0.00  0.00    +0.000 N 
ATOM     12  N   UNL     1       7.563   5.431  14.656  0.00  0.00    +0.000 N 
ATOM     13  H   UNL     1       6.986   4.038  11.842  0.00  0.00    +0.000 HD
ATOM     14  H   UNL     1       8.539   5.410  11.662  0.00  0.00    +0.000 HD
ATOM     15  H   UNL     1       9.154   6.179  13.009  0.00  0.00    +0.000 HD
ATOM     16  H   UNL     1       8.136   6.228  14.883  0.00  0.00    +0.000 HD
ENDBRANCH   3  12
ENDBRANCH   1   6
BRANCH   1  17
ATOM     17  O   UNL     1       2.865   4.121  18.594  0.00  0.00    +0.000 OA
BRANCH  17  18
ATOM     18  C   UNL     1       2.496   5.257  19.330  0.00  0.00    +0.000 A 
ATOM     19  C   UNL     1       2.696   6.503  18.737  0.00  0.00    +0.000 A 
ATOM     20  C   UNL     1       2.209   7.648  19.371  0.00  0.00    +0.000 A 
ATOM     21  C   UNL     1       1.510   7.524  20.579  0.00  0.00    +0.000 A 
ATOM     22  C   UNL     1       1.319   6.277  21.174  0.00  0.00    +0.000 A 
ATOM     23  C   UNL     1       1.803   5.137  20.539  0.00  0.00    +0.000 A 
BRANCH  21  24
ATOM     24  S   UNL     1       0.877   8.965  21.384  0.00  0.00    +0.000 S 
ATOM     25  O   UNL     1      -0.529   8.783  21.661  0.00  0.00    +0.000 OA
ATOM     26  O   UNL     1       1.817   9.399  22.392  0.00  0.00    +0.000 OA
BRANCH  24  27
ATOM     27  N   UNL     1       0.961  10.103  20.153  0.00  0.00    +0.000 NA
ATOM     28  H   UNL     1       1.938  10.338  19.965  0.00  0.00    +0.000 HD
ATOM     29  H   UNL     1       0.450   9.772  19.335  0.00  0.00    +0.000 HD
ENDBRANCH  24  27
ENDBRANCH  21  24
ENDBRANCH  17  18
ENDBRANCH   1  17
TORSDOF 6
ENDMDL
MODEL 2
REMARK VINA RESULT:      -7.3      0.772      1.377
REMARK  Name = 
REMARK  6 active torsions:
REMARK  status: ('A' for Active; 'I' for Inactive)
REMARK    1  A    between atoms: N_4  and  C_5
REMARK    2  A    between atoms: C_8  and  C_9
REMARK    3  A    between atoms: C_9  and  O_11
REMARK    4  A    between atoms: O_11  and  C_12
REMARK    5  A    between atoms: C_15  and  S_16
REMARK    6  A    between atoms: S_16  and  N_17
REMARK                            x       y       z     vdW  Elec       q    Type
REMARK                         _______ _______ _______ _____ _____    ______ ____
ROOT
ATOM      1  C   UNL     1       4.265   3.614  19.052  0.00  0.00    +0.000 C 
ATOM      2  O   UNL     1       4.637   3.037  20.058  0.00  0.00    +0.000 OA
ENDROOT
BRANCH   1   6
ATOM      3  C   UNL     1       6.826   4.968  15.853  0.00  0.00    +0.000 A 
ATOM      4  C   UNL     1       5.590   4.352  15.605  0.00  0.00    +0.000 A 
ATOM      5  C   UNL     1       4.771   3.919  16.650  0.00  0.00    +0.000 A 
ATOM      6  C   UNL     1       5.181   4.084  17.976  0.00  0.00    +0.000 A 
ATOM      7  C   UNL     1       6.387   4.741  18.240  0.00  0.00    +0.000 A 
ATOM      8  C   UNL     1       7.191   5.191  17.184  0.00  0.00    +0.000 A 
BRANCH   3  12
ATOM      9  N   UNL     1       6.740   4.098  12.957  0.00  0.00    +0.000 NA
ATOM     10  C   UNL     1       7.473   5.037  13.443  0.00  0.00    +0.000 C 
ATOM     11  N   UNL     1       8.277   5.771  12.634  0.00  0.00    +0.000 N 
ATOM     12  N   UNL     1       7.583   5.397  14.748  0.00  0.00    +0.000 N 
ATOM     13  H   UNL     1       6.856   4.052  11.946  0.00  0.00    +0.000 HD
ATOM     14  H   UNL     1       8.446   5.372  11.720  0.00  0.00    +0.000 HD
ATOM     15  H   UNL     1       9.136   6.106  13.049  0.00  0.00    +0.000 HD
ATOM     16  H   UNL     1       8.192   6.171  14.961  0.00  0.00    +0.000 HD
ENDBRANCH   3  12
ENDBRANCH   1   6
BRANCH   1  17
ATOM     17  O   UNL     1       2.955   3.869  18.689  0.00  0.00    +0.000 OA
BRANCH  17  18
ATOM     18  C   UNL     1       2.426   5.066  19.194  0.00  0.00    +0.000 A 
ATOM     19  C   UNL     1       1.792   5.017  20.436  0.00  0.00    +0.000 A 
ATOM     20  C   UNL     1       1.382   6.208  21.040  0.00  0.00    +0.000 A 
ATOM     21  C   UNL     1       1.633   7.429  20.402  0.00  0.00    +0.000 A 
ATOM     22  C   UNL     1       2.261   7.473  19.157  0.00  0.00    +0.000 A 
ATOM     23  C   UNL     1       2.670   6.286  18.557  0.00  0.00    +0.000 A 
BRANCH  21  24
ATOM     24  S   UNL     1       1.131   8.943  21.165  0.00  0.00    +0.000 S 
ATOM     25  O   UNL     1       1.874   9.134  22.390  0.00  0.00    +0.000 OA
ATOM     26  O   UNL     1       1.020   9.971  20.156  0.00  0.00    +0.000 OA
BRANCH  24  27
ATOM     27  N   UNL     1      -0.440   8.581  21.630  0.00  0.00    +0.000 NA
ATOM     28  H   UNL     1      -0.673   9.088  22.487  0.00  0.00    +0.000 HD
ATOM     29  H   UNL     1      -1.083   8.757  20.858  0.00  0.00    +0.000 HD
ENDBRANCH  24  27
ENDBRANCH  21  24
ENDBRANCH  17  18
ENDBRANCH   1  17
TORSDOF 6
ENDMDL
MODEL 3
REMARK VINA RESULT:      -7.3      4.594      6.307
REMARK  Name = 
REMARK  6 active torsions:
REMARK  status: ('A' for Active; 'I' for Inactive)
REMARK    1  A    between atoms: N_4  and  C_5
REMARK    2  A    between atoms: C_8  and  C_9
REMARK    3  A    between atoms: C_9  and  O_11
REMARK    4  A    between atoms: O_11  and  C_12
REMARK    5  A    between atoms: C_15  and  S_16
REMARK    6  A    between atoms: S_16  and  N_17
REMARK                            x       y       z     vdW  Elec       q    Type
REMARK                         _______ _______ _______ _____ _____    ______ ____
ROOT
ATOM      1  C   UNL     1       1.784   9.502  18.338  0.00  0.00    +0.000 C 
ATOM      2  O   UNL     1       2.139  10.224  17.423  0.00  0.00    +0.000 OA
ENDROOT
BRANCH   1   6
ATOM      3  C   UNL     1       3.203   5.492  19.069  0.00  0.00    +0.000 A 
ATOM      4  C   UNL     1       2.380   6.167  19.984  0.00  0.00    +0.000 A 
ATOM      5  C   UNL     1       1.928   7.466  19.734  0.00  0.00    +0.000 A 
ATOM      6  C   UNL     1       2.302   8.124  18.560  0.00  0.00    +0.000 A 
ATOM      7  C   UNL     1       3.081   7.445  17.616  0.00  0.00    +0.000 A 
ATOM      8  C   UNL     1       3.511   6.135  17.867  0.00  0.00    +0.000 A 
BRANCH   3  12
ATOM      9  N   UNL     1       5.866   4.104  18.707  0.00  0.00    +0.000 NA
ATOM     10  C   UNL     1       4.824   3.605  19.273  0.00  0.00    +0.000 C 
ATOM     11  N   UNL     1       4.862   2.361  19.812  0.00  0.00    +0.000 N 
ATOM     12  N   UNL     1       3.598   4.179  19.382  0.00  0.00    +0.000 N 
ATOM     13  H   UNL     1       6.647   3.452  18.773  0.00  0.00    +0.000 HD
ATOM     14  H   UNL     1       5.643   1.789  19.518  0.00  0.00    +0.000 HD
ATOM     15  H   UNL     1       3.998   1.838  19.783  0.00  0.00    +0.000 HD
ATOM     16  H   UNL     1       2.890   3.659  19.875  0.00  0.00    +0.000 HD
ENDBRANCH   3  12
ENDBRANCH   1   6
BRANCH   1  17
ATOM     17  O   UNL     1       0.916   9.840  19.360  0.00  0.00    +0.000 OA
BRANCH  17  18
ATOM     18  C   UNL     1      -0.331  10.328  18.938  0.00  0.00    +0.000 A 
ATOM     19  C   UNL     1      -0.902   9.744  17.808  0.00  0.00    +0.000 A 
ATOM     20  C   UNL     1      -2.203  10.097  17.440  0.00  0.00    +0.000 A 
ATOM     21  C   UNL     1      -2.918  11.011  18.224  0.00  0.00    +0.000 A 
ATOM     22  C   UNL     1      -2.341  11.599  19.350  0.00  0.00    +0.000 A 
ATOM     23  C   UNL     1      -1.045  11.245  19.715  0.00  0.00    +0.000 A 
BRANCH  21  24
ATOM     24  S   UNL     1      -4.570  11.454  17.776  0.00  0.00    +0.000 S 
ATOM     25  O   UNL     1      -4.601  11.857  16.389  0.00  0.00    +0.000 OA
ATOM     26  O   UNL     1      -5.489  10.481  18.322  0.00  0.00    +0.000 OA
BRANCH  24  27
ATOM     27  N   UNL     1      -4.797  12.857  18.669  0.00  0.00    +0.000 NA
ATOM     28  H   UNL     1      -4.197  12.841  19.497  0.00  0.00    +0.000 HD
ATOM     29  H   UNL     1      -4.661  13.675  18.076  0.00  0.00    +0.000 HD
ENDBRANCH  24  27
ENDBRANCH  21  24
ENDBRANCH  17  18
ENDBRANCH   1  17
TORSDOF 6
ENDMDL
MODEL 4
REMARK VINA RESULT:      -7.3      0.777      1.367
REMARK  Name = 
REMARK  6 active torsions:
REMARK  status: ('A' for Active; 'I' for Inactive)
REMARK    1  A    between atoms: N_4  and  C_5
REMARK    2  A    between atoms: C_8  and  C_9
REMARK    3  A    between atoms: C_9  and  O_11
REMARK    4  A    between atoms: O_11  and  C_12
REMARK    5  A    between atoms: C_15  and  S_16
REMARK    6  A    between atoms: S_16  and  N_17
REMARK                            x       y       z     vdW  Elec       q    Type
REMARK                         _______ _______ _______ _____ _____    ______ ____
ROOT
ATOM      1  C   UNL     1       4.054   3.763  18.803  0.00  0.00    +0.000 C 
ATOM      2  O   UNL     1       4.401   3.039  19.720  0.00  0.00    +0.000 OA
ENDROOT
BRANCH   1   6
ATOM      3  C   UNL     1       6.773   5.069  15.715  0.00  0.00    +0.000 A 
ATOM      4  C   UNL     1       7.086   5.185  17.078  0.00  0.00    +0.000 A 
ATOM      5  C   UNL     1       6.196   4.758  18.067  0.00  0.00    +0.000 A 
ATOM      6  C   UNL     1       4.961   4.212  17.710  0.00  0.00    +0.000 A 
ATOM      7  C   UNL     1       4.656   4.044  16.355  0.00  0.00    +0.000 A 
ATOM      8  C   UNL     1       5.565   4.456  15.371  0.00  0.00    +0.000 A 
BRANCH   3  12
ATOM      9  N   UNL     1       7.051   4.459  12.765  0.00  0.00    +0.000 NA
ATOM     10  C   UNL     1       7.789   5.266  13.443  0.00  0.00    +0.000 C 
ATOM     11  N   UNL     1       8.776   5.971  12.837  0.00  0.00    +0.000 N 
ATOM     12  N   UNL     1       7.730   5.501  14.780  0.00  0.00    +0.000 N 
ATOM     13  H   UNL     1       7.317   4.485  11.781  0.00  0.00    +0.000 HD
ATOM     14  H   UNL     1       9.045   5.633  11.922  0.00  0.00    +0.000 HD
ATOM     15  H   UNL     1       9.590   6.172  13.403  0.00  0.00    +0.000 HD
ATOM     16  H   UNL     1       8.371   6.182  15.154  0.00  0.00    +0.000 HD
ENDBRANCH   3  12
ENDBRANCH   1   6
BRANCH   1  17
ATOM     17  O   UNL     1       2.776   4.232  18.565  0.00  0.00    +0.000 OA
BRANCH  17  18
ATOM     18  C   UNL     1       2.427   5.384  19.286  0.00  0.00    +0.000 A 
ATOM     19  C   UNL     1       2.528   6.610  18.629  0.00  0.00    +0.000 A 
ATOM     20  C   UNL     1       2.053   7.764  19.257  0.00  0.00    +0.000 A 
ATOM     21  C   UNL     1       1.464   7.667  20.524  0.00  0.00    +0.000 A 
ATOM     22  C   UNL     1       1.371   6.440  21.182  0.00  0.00    +0.000 A 
ATOM     23  C   UNL     1       1.843   5.292  20.553  0.00  0.00    +0.000 A 
BRANCH  21  24
ATOM     24  S   UNL     1       0.846   9.119  21.323  0.00  0.00    +0.000 S 
ATOM     25  O   UNL     1       1.013  10.257  20.449  0.00  0.00    +0.000 OA
ATOM     26  O   UNL     1      -0.411   8.810  21.965  0.00  0.00    +0.000 OA
BRANCH  24  27
ATOM     27  N   UNL     1       1.961   9.321  22.562  0.00  0.00    +0.000 NA
ATOM     28  H   UNL     1       1.745  10.172  23.085  0.00  0.00    +0.000 HD
ATOM     29  H   UNL     1       2.001   8.480  23.137  0.00  0.00    +0.000 HD
ENDBRANCH  24  27
ENDBRANCH  21  24
ENDBRANCH  17  18
ENDBRANCH   1  17
TORSDOF 6
ENDMDL
MODEL 5
REMARK VINA RESULT:      -7.3      3.154      4.222
REMARK  Name = 
REMARK  6 active torsions:
REMARK  status: ('A' for Active; 'I' for Inactive)
REMARK    1  A    between atoms: N_4  and  C_5
REMARK    2  A    between atoms: C_8  and  C_9
REMARK    3  A    between atoms: C_9  and  O_11
REMARK    4  A    between atoms: O_11  and  C_12
REMARK    5  A    between atoms: C_15  and  S_16
REMARK    6  A    between atoms: S_16  and  N_17
REMARK                            x       y       z     vdW  Elec       q    Type
REMARK                         _______ _______ _______ _____ _____    ______ ____
ROOT
ATOM      1  C   UNL     1       6.751   6.717  17.758  0.00  0.00    +0.000 C 
ATOM      2  O   UNL     1       7.073   7.889  17.669  0.00  0.00    +0.000 OA
ENDROOT
BRANCH   1   6
ATOM      3  C   UNL     1       5.954   4.106  14.415  0.00  0.00    +0.000 A 
ATOM      4  C   UNL     1       7.030   3.886  15.289  0.00  0.00    +0.000 A 
ATOM      5  C   UNL     1       7.276   4.740  16.367  0.00  0.00    +0.000 A 
ATOM      6  C   UNL     1       6.451   5.846  16.588  0.00  0.00    +0.000 A 
ATOM      7  C   UNL     1       5.346   6.049  15.755  0.00  0.00    +0.000 A 
ATOM      8  C   UNL     1       5.095   5.174  14.689  0.00  0.00    +0.000 A 
BRANCH   3  12
ATOM      9  N   UNL     1       7.192   3.985  11.658  0.00  0.00    +0.000 NA
ATOM     10  C   UNL     1       6.384   3.120  12.162  0.00  0.00    +0.000 C 
ATOM     11  N   UNL     1       6.041   2.009  11.465  0.00  0.00    +0.000 N 
ATOM     12  N   UNL     1       5.760   3.189  13.366  0.00  0.00    +0.000 N 
ATOM     13  H   UNL     1       7.509   3.674  10.740  0.00  0.00    +0.000 HD
ATOM     14  H   UNL     1       6.247   2.043  10.474  0.00  0.00    +0.000 HD
ATOM     15  H   UNL     1       5.111   1.650  11.631  0.00  0.00    +0.000 HD
ATOM     16  H   UNL     1       5.168   2.414  13.622  0.00  0.00    +0.000 HD
ENDBRANCH   3  12
ENDBRANCH   1   6
BRANCH   1  17
ATOM     17  O   UNL     1       6.678   5.972  18.920  0.00  0.00    +0.000 OA
BRANCH  17  18
ATOM     18  C   UNL     1       5.453   5.320  19.127  0.00  0.00    +0.000 A 
ATOM     19  C   UNL     1       5.476   3.932  19.260  0.00  0.00    +0.000 A 
ATOM     20  C   UNL     1       4.303   3.260  19.612  0.00  0.00    +0.000 A 
ATOM     21  C   UNL     1       3.132   3.991  19.848  0.00  0.00    +0.000 A 
ATOM     22  C   UNL     1       3.111   5.379  19.707  0.00  0.00    +0.000 A 
ATOM     23  C   UNL     1       4.281   6.047  19.358  0.00  0.00    +0.000 A 
BRANCH  21  24
ATOM     24  S   UNL     1       1.645   3.152  20.308  0.00  0.00    +0.000 S 
ATOM     25  O   UNL     1       0.557   4.100  20.368  0.00  0.00    +0.000 OA
ATOM     26  O   UNL     1       1.554   1.910  19.575  0.00  0.00    +0.000 OA
BRANCH  24  27
ATOM     27  N   UNL     1       1.976   2.728  21.898  0.00  0.00    +0.000 NA
ATOM     28  H   UNL     1       1.330   3.211  22.526  0.00  0.00    +0.000 HD
ATOM     29  H   UNL     1       1.969   1.713  21.997  0.00  0.00    +0.000 HD
ENDBRANCH  24  27
ENDBRANCH  21  24
ENDBRANCH  17  18
ENDBRANCH   1  17
TORSDOF 6
ENDMDL
MODEL 6
REMARK VINA RESULT:      -7.3      3.364      4.165
REMARK  Name = 
REMARK  6 active torsions:
REMARK  status: ('A' for Active; 'I' for Inactive)
REMARK    1  A    between atoms: N_4  and  C_5
REMARK    2  A    between atoms: C_8  and  C_9
REMARK    3  A    between atoms: C_9  and  O_11
REMARK    4  A    between atoms: O_11  and  C_12
REMARK    5  A    between atoms: C_15  and  S_16
REMARK    6  A    between atoms: S_16  and  N_17
REMARK                            x       y       z     vdW  Elec       q    Type
REMARK                         _______ _______ _______ _____ _____    ______ ____
ROOT
ATOM      1  C   UNL     1       7.255   6.203  18.235  0.00  0.00    +0.000 C 
ATOM      2  O   UNL     1       7.921   7.223  18.256  0.00  0.00    +0.000 OA
ENDROOT
BRANCH   1   6
ATOM      3  C   UNL     1       5.665   4.510  14.597  0.00  0.00    +0.000 A 
ATOM      4  C   UNL     1       5.205   5.732  15.110  0.00  0.00    +0.000 A 
ATOM      5  C   UNL     1       5.729   6.268  16.289  0.00  0.00    +0.000 A 
ATOM      6  C   UNL     1       6.723   5.582  16.990  0.00  0.00    +0.000 A 
ATOM      7  C   UNL     1       7.227   4.387  16.464  0.00  0.00    +0.000 A 
ATOM      8  C   UNL     1       6.710   3.869  15.269  0.00  0.00    +0.000 A 
BRANCH   3  12
ATOM      9  N   UNL     1       6.949   3.116  12.238  0.00  0.00    +0.000 NA
ATOM     10  C   UNL     1       5.694   3.360  12.381  0.00  0.00    +0.000 C 
ATOM     11  N   UNL     1       4.802   2.951  11.445  0.00  0.00    +0.000 N 
ATOM     12  N   UNL     1       5.104   4.047  13.393  0.00  0.00    +0.000 N 
ATOM     13  H   UNL     1       7.106   2.581  11.386  0.00  0.00    +0.000 HD
ATOM     14  H   UNL     1       5.204   2.691  10.554  0.00  0.00    +0.000 HD
ATOM     15  H   UNL     1       3.989   3.539  11.319  0.00  0.00    +0.000 HD
ATOM     16  H   UNL     1       4.100   4.134  13.365  0.00  0.00    +0.000 HD
ENDBRANCH   3  12
ENDBRANCH   1   6
BRANCH   1  17
ATOM     17  O   UNL     1       6.936   5.408  19.320  0.00  0.00    +0.000 OA
BRANCH  17  18
ATOM     18  C   UNL     1       5.619   4.925  19.331  0.00  0.00    +0.000 A 
ATOM     19  C   UNL     1       4.588   5.865  19.321  0.00  0.00    +0.000 A 
ATOM     20  C   UNL     1       3.268   5.429  19.183  0.00  0.00    +0.000 A 
ATOM     21  C   UNL     1       3.003   4.062  19.035  0.00  0.00    +0.000 A 
ATOM     22  C   UNL     1       4.036   3.124  19.053  0.00  0.00    +0.000 A 
ATOM     23  C   UNL     1       5.351   3.560  19.189  0.00  0.00    +0.000 A 
BRANCH  21  24
ATOM     24  S   UNL     1       1.338   3.500  18.846  0.00  0.00    +0.000 S 
ATOM     25  O   UNL     1       0.595   3.782  20.053  0.00  0.00    +0.000 OA
ATOM     26  O   UNL     1       0.857   3.869  17.535  0.00  0.00    +0.000 OA
BRANCH  24  27
ATOM     27  N   UNL     1       1.545   1.835  18.810  0.00  0.00    +0.000 NA
ATOM     28  H   UNL     1       1.991   1.523  19.675  0.00  0.00    +0.000 HD
ATOM     29  H   UNL     1       0.656   1.376  18.614  0.00  0.00    +0.000 HD
ENDBRANCH  24  27
ENDBRANCH  21  24
ENDBRANCH  17  18
ENDBRANCH   1  17
TORSDOF 6
ENDMDL
MODEL 7
REMARK VINA RESULT:      -7.2      1.977      2.301
REMARK  Name = 
REMARK  6 active torsions:
REMARK  status: ('A' for Active; 'I' for Inactive)
REMARK    1  A    between atoms: N_4  and  C_5
REMARK    2  A    between atoms: C_8  and  C_9
REMARK    3  A    between atoms: C_9  and  O_11
REMARK    4  A    between atoms: O_11  and  C_12
REMARK    5  A    between atoms: C_15  and  S_16
REMARK    6  A    between atoms: S_16  and  N_17
REMARK                            x       y       z     vdW  Elec       q    Type
REMARK                         _______ _______ _______ _____ _____    ______ ____
ROOT
ATOM      1  C   UNL     1       3.898   5.630  18.627  0.00  0.00    +0.000 C 
ATOM      2  O   UNL     1       4.394   5.548  19.736  0.00  0.00    +0.000 OA
ENDROOT
BRANCH   1   6
ATOM      3  C   UNL     1       5.936   4.485  14.998  0.00  0.00    +0.000 A 
ATOM      4  C   UNL     1       5.555   3.542  15.965  0.00  0.00    +0.000 A 
ATOM      5  C   UNL     1       4.896   3.927  17.135  0.00  0.00    +0.000 A 
ATOM      6  C   UNL     1       4.612   5.275  17.368  0.00  0.00    +0.000 A 
ATOM      7  C   UNL     1       4.942   6.220  16.391  0.00  0.00    +0.000 A 
ATOM      8  C   UNL     1       5.583   5.820  15.211  0.00  0.00    +0.000 A 
BRANCH   3  12
ATOM      9  N   UNL     1       4.782   3.449  12.401  0.00  0.00    +0.000 NA
ATOM     10  C   UNL     1       6.030   3.623  12.657  0.00  0.00    +0.000 C 
ATOM     11  N   UNL     1       6.969   3.374  11.710  0.00  0.00    +0.000 N 
ATOM     12  N   UNL     1       6.576   4.016  13.837  0.00  0.00    +0.000 N 
ATOM     13  H   UNL     1       4.661   3.151  11.434  0.00  0.00    +0.000 HD
ATOM     14  H   UNL     1       6.650   2.822  10.924  0.00  0.00    +0.000 HD
ATOM     15  H   UNL     1       7.863   3.044  12.047  0.00  0.00    +0.000 HD
ATOM     16  H   UNL     1       7.578   4.122  13.866  0.00  0.00    +0.000 HD
ENDBRANCH   3  12
ENDBRANCH   1   6
BRANCH   1  17
ATOM     17  O   UNL     1       2.594   5.984  18.334  0.00  0.00    +0.000 OA
BRANCH  17  18
ATOM     18  C   UNL     1       2.223   7.270  18.755  0.00  0.00    +0.000 A 
ATOM     19  C   UNL     1       2.137   8.267  17.784  0.00  0.00    +0.000 A 
ATOM     20  C   UNL     1       1.631   9.520  18.135  0.00  0.00    +0.000 A 
ATOM     21  C   UNL     1       1.198   9.749  19.447  0.00  0.00    +0.000 A 
ATOM     22  C   UNL     1       1.293   8.751  20.418  0.00  0.00    +0.000 A 
ATOM     23  C   UNL     1       1.796   7.502  20.067  0.00  0.00    +0.000 A 
BRANCH  21  24
ATOM     24  S   UNL     1       0.543  11.327  19.899  0.00  0.00    +0.000 S 
ATOM     25  O   UNL     1      -0.898  11.249  19.964  0.00  0.00    +0.000 OA
ATOM     26  O   UNL     1       1.339  11.885  20.967  0.00  0.00    +0.000 OA
BRANCH  24  27
ATOM     27  N   UNL     1       0.895  12.241  18.535  0.00  0.00    +0.000 NA
ATOM     28  H   UNL     1       1.879  12.514  18.547  0.00  0.00    +0.000 HD
ATOM     29  H   UNL     1       0.615  11.735  17.694  0.00  0.00    +0.000 HD
ENDBRANCH  24  27
ENDBRANCH  21  24
ENDBRANCH  17  18
ENDBRANCH   1  17
TORSDOF 6
ENDMDL
MODEL 8
REMARK VINA RESULT:      -7.2      4.346      6.073
REMARK  Name = 
REMARK  6 active torsions:
REMARK  status: ('A' for Active; 'I' for Inactive)
REMARK    1  A    between atoms: N_4  and  C_5
REMARK    2  A    between atoms: C_8  and  C_9
REMARK    3  A    between atoms: C_9  and  O_11
REMARK    4  A    between atoms: O_11  and  C_12
REMARK    5  A    between atoms: C_15  and  S_16
REMARK    6  A    between atoms: S_16  and  N_17
REMARK                            x       y       z     vdW  Elec       q    Type
REMARK                         _______ _______ _______ _____ _____    ______ ____
ROOT
ATOM      1  C   UNL     1       1.403   8.595  20.559  0.00  0.00    +0.000 C 
ATOM      2  O   UNL     1       0.969   8.741  21.688  0.00  0.00    +0.000 OA
ENDROOT
BRANCH   1   6
ATOM      3  C   UNL     1       2.601   4.748  19.013  0.00  0.00    +0.000 A 
ATOM      4  C   UNL     1       1.905   4.877  20.225  0.00  0.00    +0.000 A 
ATOM      5  C   UNL     1       1.524   6.130  20.713  0.00  0.00    +0.000 A 
ATOM      6  C   UNL     1       1.843   7.287  19.999  0.00  0.00    +0.000 A 
ATOM      7  C   UNL     1       2.493   7.170  18.766  0.00  0.00    +0.000 A 
ATOM      8  C   UNL     1       2.852   5.908  18.274  0.00  0.00    +0.000 A 
BRANCH   3  12
ATOM      9  N   UNL     1       5.122   3.123  19.412  0.00  0.00    +0.000 NA
ATOM     10  C   UNL     1       4.046   2.720  18.833  0.00  0.00    +0.000 C 
ATOM     11  N   UNL     1       3.949   1.450  18.368  0.00  0.00    +0.000 N 
ATOM     12  N   UNL     1       2.931   3.452  18.577  0.00  0.00    +0.000 N 
ATOM     13  H   UNL     1       5.796   2.361  19.469  0.00  0.00    +0.000 HD
ATOM     14  H   UNL     1       4.829   0.957  18.278  0.00  0.00    +0.000 HD
ATOM     15  H   UNL     1       3.375   1.321  17.546  0.00  0.00    +0.000 HD
ATOM     16  H   UNL     1       2.163   2.977  18.129  0.00  0.00    +0.000 HD
ENDBRANCH   3  12
ENDBRANCH   1   6
BRANCH   1  17
ATOM     17  O   UNL     1       1.499   9.571  19.584  0.00  0.00    +0.000 OA
BRANCH  17  18
ATOM     18  C   UNL     1       0.269  10.061  19.118  0.00  0.00    +0.000 A 
ATOM     19  C   UNL     1      -0.170   9.615  17.871  0.00  0.00    +0.000 A 
ATOM     20  C   UNL     1      -1.451   9.961  17.435  0.00  0.00    +0.000 A 
ATOM     21  C   UNL     1      -2.280  10.728  18.264  0.00  0.00    +0.000 A 
ATOM     22  C   UNL     1      -1.834  11.178  19.507  0.00  0.00    +0.000 A 
ATOM     23  C   UNL     1      -0.558  10.831  19.941  0.00  0.00    +0.000 A 
BRANCH  21  24
ATOM     24  S   UNL     1      -3.908  11.160  17.728  0.00  0.00    +0.000 S 
ATOM     25  O   UNL     1      -3.863  11.589  16.349  0.00  0.00    +0.000 OA
ATOM     26  O   UNL     1      -4.844  10.167  18.202  0.00  0.00    +0.000 OA
BRANCH  24  27
ATOM     27  N   UNL     1      -4.205  12.543  18.632  0.00  0.00    +0.000 NA
ATOM     28  H   UNL     1      -3.515  12.621  19.381  0.00  0.00    +0.000 HD
ATOM     29  H   UNL     1      -4.245  13.358  18.020  0.00  0.00    +0.000 HD
ENDBRANCH  24  27
ENDBRANCH  21  24
ENDBRANCH  17  18
ENDBRANCH   1  17
TORSDOF 6
ENDMDL
MODEL 9
REMARK VINA RESULT:      -7.2      5.402      7.334
REMARK  Name = 
REMARK  6 active torsions:
REMARK  status: ('A' for Active; 'I' for Inactive)
REMARK    1  A    between atoms: N_4  and  C_5
REMARK    2  A    between atoms: C_8  and  C_9
REMARK    3  A    between atoms: C_9  and  O_11
REMARK    4  A    between atoms: O_11  and  C_12
REMARK    5  A    between atoms: C_15  and  S_16
REMARK    6  A    between atoms: S_16  and  N_17
REMARK                            x       y       z     vdW  Elec       q    Type
REMARK                         _______ _______ _______ _____ _____    ______ ____
ROOT
ATOM      1  C   UNL     1       1.613   9.723  18.458  0.00  0.00    +0.000 C 
ATOM      2  O   UNL     1       2.040  10.009  17.353  0.00  0.00    +0.000 OA
ENDROOT
BRANCH   1   6
ATOM      3  C   UNL     1       2.209   5.956  20.479  0.00  0.00    +0.000 A 
ATOM      4  C   UNL     1       1.543   7.029  21.090  0.00  0.00    +0.000 A 
ATOM      5  C   UNL     1       1.358   8.243  20.423  0.00  0.00    +0.000 A 
ATOM      6  C   UNL     1       1.848   8.413  19.126  0.00  0.00    +0.000 A 
ATOM      7  C   UNL     1       2.469   7.335  18.486  0.00  0.00    +0.000 A 
ATOM      8  C   UNL     1       2.631   6.115  19.156  0.00  0.00    +0.000 A 
BRANCH   3  12
ATOM      9  N   UNL     1       0.569   3.415  20.385  0.00  0.00    +0.000 NA
ATOM     10  C   UNL     1       1.627   3.606  21.092  0.00  0.00    +0.000 C 
ATOM     11  N   UNL     1       2.131   2.610  21.861  0.00  0.00    +0.000 N 
ATOM     12  N   UNL     1       2.337   4.759  21.207  0.00  0.00    +0.000 N 
ATOM     13  H   UNL     1       0.248   2.453  20.489  0.00  0.00    +0.000 HD
ATOM     14  H   UNL     1       1.500   1.838  22.032  0.00  0.00    +0.000 HD
ATOM     15  H   UNL     1       2.593   2.897  22.713  0.00  0.00    +0.000 HD
ATOM     16  H   UNL     1       3.157   4.736  21.791  0.00  0.00    +0.000 HD
ENDBRANCH   3  12
ENDBRANCH   1   6
BRANCH   1  17
ATOM     17  O   UNL     1       0.915  10.558  19.310  0.00  0.00    +0.000 OA
BRANCH  17  18
ATOM     18  C   UNL     1      -0.452  10.686  19.022  0.00  0.00    +0.000 A 
ATOM     19  C   UNL     1      -1.170  11.657  19.720  0.00  0.00    +0.000 A 
ATOM     20  C   UNL     1      -2.495  11.916  19.361  0.00  0.00    +0.000 A 
ATOM     21  C   UNL     1      -3.072  11.215  18.295  0.00  0.00    +0.000 A 
ATOM     22  C   UNL     1      -2.354  10.239  17.604  0.00  0.00    +0.000 A 
ATOM     23  C   UNL     1      -1.033   9.983  17.962  0.00  0.00    +0.000 A 
BRANCH  21  24
ATOM     24  S   UNL     1      -4.744  11.546  17.824  0.00  0.00    +0.000 S 
ATOM     25  O   UNL     1      -4.792  11.871  16.417  0.00  0.00    +0.000 OA
ATOM     26  O   UNL     1      -5.611  10.557  18.422  0.00  0.00    +0.000 OA
BRANCH  24  27
ATOM     27  N   UNL     1      -5.047  12.981  18.639  0.00  0.00    +0.000 NA
ATOM     28  H   UNL     1      -4.180  13.334  19.051  0.00  0.00    +0.000 HD
ATOM     29  H   UNL     1      -5.511  13.644  18.019  0.00  0.00    +0.000 HD
ENDBRANCH  24  27
ENDBRANCH  21  24
ENDBRANCH  17  18
ENDBRANCH   1  17
TORSDOF 6
ENDMDL
