MODEL 1
REMARK VINA RESULT:      -7.2      0.000      0.000
REMARK  Name = 
REMARK  11 active torsions:
REMARK  status: ('A' for Active; 'I' for Inactive)
REMARK    1  A    between atoms: C_1  and  C_2
REMARK    2  A    between atoms: C_2  and  N_3
REMARK    3  A    between atoms: N_3  and  C_4
REMARK    4  A    between atoms: N_3  and  C_6
REMARK    5  A    between atoms: C_4  and  C_5
REMARK    6  A    between atoms: C_6  and  C_7
REMARK    7  A    between atoms: C_7  and  N_8
REMARK    8  A    between atoms: C_9  and  C_11
REMARK    9  A    between atoms: C_14  and  N_15
REMARK   10  A    between atoms: N_15  and  S_16
REMARK   11  A    between atoms: S_16  and  C_19
REMARK                            x       y       z     vdW  Elec       q    Type
REMARK                         _______ _______ _______ _____ _____    ______ ____
ROOT
ATOM      1  C   UNL     1       5.345   5.839  17.336  0.00  0.00    +0.000 A 
ATOM      2  C   UNL     1       5.230   4.485  16.980  0.00  0.00    +0.000 A 
ATOM      3  C   UNL     1       4.019   3.809  17.140  0.00  0.00    +0.000 A 
ATOM      4  C   UNL     1       2.913   4.478  17.661  0.00  0.00    +0.000 A 
ATOM      5  C   UNL     1       3.030   5.805  18.073  0.00  0.00    +0.000 A 
ATOM      6  C   UNL     1       4.242   6.489  17.911  0.00  0.00    +0.000 A 
ENDROOT
BRANCH   1   8
ATOM      7  N   UNL     1       6.911   7.673  17.804  0.00  0.00    +0.000 N 
ATOM      8  C   UNL     1       6.644   6.525  17.083  0.00  0.00    +0.000 C 
ATOM      9  O   UNL     1       7.408   6.088  16.226  0.00  0.00    +0.000 OA
ATOM     10  H   UNL     1       6.269   8.039  18.492  0.00  0.00    +0.000 HD
BRANCH   7  11
ATOM     11  C   UNL     1       8.124   8.431  17.557  0.00  0.00    +0.000 C 
BRANCH  11  12
ATOM     12  C   UNL     1       7.962   9.948  17.787  0.00  0.00    +0.000 C 
BRANCH  12  13
ATOM     13  N   UNL     1       9.159  10.653  18.306  0.00  0.00    +0.000 NA
BRANCH  13  15
ATOM     14  C   UNL     1      10.230  12.767  17.417  0.00  0.00    +0.000 C 
ATOM     15  C   UNL     1       9.042  12.111  18.114  0.00  0.00    +0.000 C 
ENDBRANCH  13  15
BRANCH  13  16
ATOM     16  C   UNL     1       9.443  10.261  19.702  0.00  0.00    +0.000 C 
ATOM     17  C   UNL     1       9.602  11.392  20.717  0.00  0.00    +0.000 C 
ENDBRANCH  13  16
ENDBRANCH  12  13
ENDBRANCH  11  12
ENDBRANCH   7  11
ENDBRANCH   1   8
BRANCH   4  18
ATOM     18  N   UNL     1       1.655   3.816  17.770  0.00  0.00    +0.000 N 
ATOM     19  H   UNL     1       1.294   3.434  16.891  0.00  0.00    +0.000 HD
BRANCH  18  20
ATOM     20  S   UNL     1       1.482   2.624  18.982  0.00  0.00    +0.000 S 
ATOM     21  O   UNL     1       0.152   2.091  18.724  0.00  0.00    +0.000 OA
ATOM     22  O   UNL     1       2.624   1.733  18.912  0.00  0.00    +0.000 OA
BRANCH  20  23
ATOM     23  C   UNL     1       1.469   3.593  20.584  0.00  0.00    +0.000 C 
ATOM     24  F   UNL     1       0.668   4.696  20.516  0.00  0.00    +0.000 F 
ATOM     25  F   UNL     1       1.013   2.849  21.632  0.00  0.00    +0.000 F 
ATOM     26  F   UNL     1       2.711   4.036  20.930  0.00  0.00    +0.000 F 
ENDBRANCH  20  23
ENDBRANCH  18  20
ENDBRANCH   4  18
TORSDOF 9
ENDMDL
MODEL 2
REMARK VINA RESULT:      -7.1      0.401      1.361
REMARK  Name = 
REMARK  11 active torsions:
REMARK  status: ('A' for Active; 'I' for Inactive)
REMARK    1  A    between atoms: C_1  and  C_2
REMARK    2  A    between atoms: C_2  and  N_3
REMARK    3  A    between atoms: N_3  and  C_4
REMARK    4  A    between atoms: N_3  and  C_6
REMARK    5  A    between atoms: C_4  and  C_5
REMARK    6  A    between atoms: C_6  and  C_7
REMARK    7  A    between atoms: C_7  and  N_8
REMARK    8  A    between atoms: C_9  and  C_11
REMARK    9  A    between atoms: C_14  and  N_15
REMARK   10  A    between atoms: N_15  and  S_16
REMARK   11  A    between atoms: S_16  and  C_19
REMARK                            x       y       z     vdW  Elec       q    Type
REMARK                         _______ _______ _______ _____ _____    ______ ____
ROOT
ATOM      1  C   UNL     1       5.403   5.914  17.142  0.00  0.00    +0.000 A 
ATOM      2  C   UNL     1       4.419   6.518  17.941  0.00  0.00    +0.000 A 
ATOM      3  C   UNL     1       3.182   5.899  18.136  0.00  0.00    +0.000 A 
ATOM      4  C   UNL     1       2.917   4.672  17.531  0.00  0.00    +0.000 A 
ATOM      5  C   UNL     1       3.862   4.090  16.687  0.00  0.00    +0.000 A 
ATOM      6  C   UNL     1       5.106   4.706  16.493  0.00  0.00    +0.000 A 
ENDROOT
BRANCH   1   8
ATOM      7  N   UNL     1       6.956   7.688  17.831  0.00  0.00    +0.000 N 
ATOM      8  C   UNL     1       6.725   6.591  17.023  0.00  0.00    +0.000 C 
ATOM      9  O   UNL     1       7.542   6.195  16.196  0.00  0.00    +0.000 OA
ATOM     10  H   UNL     1       6.272   8.021  18.495  0.00  0.00    +0.000 HD
BRANCH   7  11
ATOM     11  C   UNL     1       8.193   8.438  17.718  0.00  0.00    +0.000 C 
BRANCH  11  12
ATOM     12  C   UNL     1       8.002   9.965  17.832  0.00  0.00    +0.000 C 
BRANCH  12  13
ATOM     13  N   UNL     1       9.174  10.724  18.332  0.00  0.00    +0.000 NA
BRANCH  13  15
ATOM     14  C   UNL     1       7.864  12.554  17.172  0.00  0.00    +0.000 C 
ATOM     15  C   UNL     1       8.996  12.174  18.121  0.00  0.00    +0.000 C 
ENDBRANCH  13  15
BRANCH  13  16
ATOM     16  C   UNL     1       9.484  10.365  19.731  0.00  0.00    +0.000 C 
ATOM     17  C   UNL     1       9.929  11.500  20.653  0.00  0.00    +0.000 C 
ENDBRANCH  13  16
ENDBRANCH  12  13
ENDBRANCH  11  12
ENDBRANCH   7  11
ENDBRANCH   1   8
BRANCH   4  18
ATOM     18  N   UNL     1       1.683   4.001  17.772  0.00  0.00    +0.000 N 
ATOM     19  H   UNL     1       1.211   3.655  16.931  0.00  0.00    +0.000 HD
BRANCH  18  20
ATOM     20  S   UNL     1       1.664   2.758  18.945  0.00  0.00    +0.000 S 
ATOM     21  O   UNL     1       0.409   2.074  18.672  0.00  0.00    +0.000 OA
ATOM     22  O   UNL     1       2.908   2.019  18.845  0.00  0.00    +0.000 OA
BRANCH  20  23
ATOM     23  C   UNL     1       1.540   3.667  20.578  0.00  0.00    +0.000 C 
ATOM     24  F   UNL     1       2.759   4.073  21.039  0.00  0.00    +0.000 F 
ATOM     25  F   UNL     1       0.770   4.789  20.485  0.00  0.00    +0.000 F 
ATOM     26  F   UNL     1       0.991   2.896  21.558  0.00  0.00    +0.000 F 
ENDBRANCH  20  23
ENDBRANCH  18  20
ENDBRANCH   4  18
TORSDOF 9
ENDMDL
MODEL 3
REMARK VINA RESULT:      -7.1      4.311      6.443
REMARK  Name = 
REMARK  11 active torsions:
REMARK  status: ('A' for Active; 'I' for Inactive)
REMARK    1  A    between atoms: C_1  and  C_2
REMARK    2  A    between atoms: C_2  and  N_3
REMARK    3  A    between atoms: N_3  and  C_4
REMARK    4  A    between atoms: N_3  and  C_6
REMARK    5  A    between atoms: C_4  and  C_5
REMARK    6  A    between atoms: C_6  and  C_7
REMARK    7  A    between atoms: C_7  and  N_8
REMARK    8  A    between atoms: C_9  and  C_11
REMARK    9  A    between atoms: C_14  and  N_15
REMARK   10  A    between atoms: N_15  and  S_16
REMARK   11  A    between atoms: S_16  and  C_19
REMARK                            x       y       z     vdW  Elec       q    Type
REMARK                         _______ _______ _______ _____ _____    ______ ____
ROOT
ATOM      1  C   UNL     1       5.237   4.781  16.783  0.00  0.00    +0.000 A 
ATOM      2  C   UNL     1       4.719   3.477  16.843  0.00  0.00    +0.000 A 
ATOM      3  C   UNL     1       4.233   2.960  18.046  0.00  0.00    +0.000 A 
ATOM      4  C   UNL     1       4.262   3.740  19.200  0.00  0.00    +0.000 A 
ATOM      5  C   UNL     1       4.827   5.015  19.167  0.00  0.00    +0.000 A 
ATOM      6  C   UNL     1       5.313   5.539  17.962  0.00  0.00    +0.000 A 
ENDROOT
BRANCH   1   8
ATOM      7  N   UNL     1       6.374   4.435  14.634  0.00  0.00    +0.000 N 
ATOM      8  C   UNL     1       5.681   5.300  15.459  0.00  0.00    +0.000 C 
ATOM      9  O   UNL     1       5.466   6.472  15.158  0.00  0.00    +0.000 OA
ATOM     10  H   UNL     1       6.567   3.479  14.895  0.00  0.00    +0.000 HD
BRANCH   7  11
ATOM     11  C   UNL     1       6.899   4.895  13.361  0.00  0.00    +0.000 C 
BRANCH  11  12
ATOM     12  C   UNL     1       6.795   3.844  12.235  0.00  0.00    +0.000 C 
BRANCH  12  13
ATOM     13  N   UNL     1       5.575   3.001  12.252  0.00  0.00    +0.000 NA
BRANCH  13  15
ATOM     14  C   UNL     1       3.585   3.162  10.696  0.00  0.00    +0.000 C 
ATOM     15  C   UNL     1       4.389   3.774  11.839  0.00  0.00    +0.000 C 
ENDBRANCH  13  15
BRANCH  13  16
ATOM     16  C   UNL     1       5.773   1.762  11.471  0.00  0.00    +0.000 C 
ATOM     17  C   UNL     1       7.195   1.465  10.996  0.00  0.00    +0.000 C 
ENDBRANCH  13  16
ENDBRANCH  12  13
ENDBRANCH  11  12
ENDBRANCH   7  11
ENDBRANCH   1   8
BRANCH   4  18
ATOM     18  N   UNL     1       3.712   3.247  20.419  0.00  0.00    +0.000 N 
ATOM     19  H   UNL     1       4.312   3.369  21.241  0.00  0.00    +0.000 HD
BRANCH  18  20
ATOM     20  S   UNL     1       2.128   3.733  20.836  0.00  0.00    +0.000 S 
ATOM     21  O   UNL     1       1.896   3.037  22.093  0.00  0.00    +0.000 OA
ATOM     22  O   UNL     1       2.075   5.182  20.812  0.00  0.00    +0.000 OA
BRANCH  20  23
ATOM     23  C   UNL     1       1.050   2.989  19.499  0.00  0.00    +0.000 C 
ATOM     24  F   UNL     1      -0.257   2.894  19.881  0.00  0.00    +0.000 F 
ATOM     25  F   UNL     1       1.064   3.731  18.354  0.00  0.00    +0.000 F 
ATOM     26  F   UNL     1       1.446   1.732  19.155  0.00  0.00    +0.000 F 
ENDBRANCH  20  23
ENDBRANCH  18  20
ENDBRANCH   4  18
TORSDOF 9
ENDMDL
MODEL 4
REMARK VINA RESULT:      -7.0      4.266      6.422
REMARK  Name = 
REMARK  11 active torsions:
REMARK  status: ('A' for Active; 'I' for Inactive)
REMARK    1  A    between atoms: C_1  and  C_2
REMARK    2  A    between atoms: C_2  and  N_3
REMARK    3  A    between atoms: N_3  and  C_4
REMARK    4  A    between atoms: N_3  and  C_6
REMARK    5  A    between atoms: C_4  and  C_5
REMARK    6  A    between atoms: C_6  and  C_7
REMARK    7  A    between atoms: C_7  and  N_8
REMARK    8  A    between atoms: C_9  and  C_11
REMARK    9  A    between atoms: C_14  and  N_15
REMARK   10  A    between atoms: N_15  and  S_16
REMARK   11  A    between atoms: S_16  and  C_19
REMARK                            x       y       z     vdW  Elec       q    Type
REMARK                         _______ _______ _______ _____ _____    ______ ____
ROOT
ATOM      1  C   UNL     1       5.663   5.239  16.827  0.00  0.00    +0.000 A 
ATOM      2  C   UNL     1       5.841   4.261  17.819  0.00  0.00    +0.000 A 
ATOM      3  C   UNL     1       4.938   4.150  18.878  0.00  0.00    +0.000 A 
ATOM      4  C   UNL     1       3.849   5.017  18.956  0.00  0.00    +0.000 A 
ATOM      5  C   UNL     1       3.693   6.029  18.011  0.00  0.00    +0.000 A 
ATOM      6  C   UNL     1       4.595   6.142  16.944  0.00  0.00    +0.000 A 
ENDROOT
BRANCH   1   8
ATOM      7  N   UNL     1       6.338   4.476  14.591  0.00  0.00    +0.000 N 
ATOM      8  C   UNL     1       6.623   5.268  15.687  0.00  0.00    +0.000 C 
ATOM      9  O   UNL     1       7.645   5.945  15.767  0.00  0.00    +0.000 OA
ATOM     10  H   UNL     1       5.506   3.906  14.541  0.00  0.00    +0.000 HD
BRANCH   7  11
ATOM     11  C   UNL     1       7.264   4.401  13.477  0.00  0.00    +0.000 C 
BRANCH  11  12
ATOM     12  C   UNL     1       6.599   3.987  12.147  0.00  0.00    +0.000 C 
BRANCH  12  13
ATOM     13  N   UNL     1       5.546   2.948  12.251  0.00  0.00    +0.000 NA
BRANCH  13  15
ATOM     14  C   UNL     1       3.666   3.232  10.579  0.00  0.00    +0.000 C 
ATOM     15  C   UNL     1       4.212   3.514  11.975  0.00  0.00    +0.000 C 
ENDBRANCH  13  15
BRANCH  13  16
ATOM     16  C   UNL     1       5.873   1.774  11.415  0.00  0.00    +0.000 C 
ATOM     17  C   UNL     1       7.325   1.632  10.962  0.00  0.00    +0.000 C 
ENDBRANCH  13  16
ENDBRANCH  12  13
ENDBRANCH  11  12
ENDBRANCH   7  11
ENDBRANCH   1   8
BRANCH   4  18
ATOM     18  N   UNL     1       2.886   4.873  19.997  0.00  0.00    +0.000 N 
ATOM     19  H   UNL     1       2.178   5.612  20.032  0.00  0.00    +0.000 HD
BRANCH  18  20
ATOM     20  S   UNL     1       2.093   3.367  20.151  0.00  0.00    +0.000 S 
ATOM     21  O   UNL     1       3.189   2.451  20.433  0.00  0.00    +0.000 OA
ATOM     22  O   UNL     1       1.026   3.511  21.122  0.00  0.00    +0.000 OA
BRANCH  20  23
ATOM     23  C   UNL     1       1.416   3.025  18.439  0.00  0.00    +0.000 C 
ATOM     24  F   UNL     1       0.309   2.229  18.468  0.00  0.00    +0.000 F 
ATOM     25  F   UNL     1       1.051   4.170  17.792  0.00  0.00    +0.000 F 
ATOM     26  F   UNL     1       2.325   2.398  17.639  0.00  0.00    +0.000 F 
ENDBRANCH  20  23
ENDBRANCH  18  20
ENDBRANCH   4  18
TORSDOF 9
ENDMDL
MODEL 5
REMARK VINA RESULT:      -6.9      4.359      6.440
REMARK  Name = 
REMARK  11 active torsions:
REMARK  status: ('A' for Active; 'I' for Inactive)
REMARK    1  A    between atoms: C_1  and  C_2
REMARK    2  A    between atoms: C_2  and  N_3
REMARK    3  A    between atoms: N_3  and  C_4
REMARK    4  A    between atoms: N_3  and  C_6
REMARK    5  A    between atoms: C_4  and  C_5
REMARK    6  A    between atoms: C_6  and  C_7
REMARK    7  A    between atoms: C_7  and  N_8
REMARK    8  A    between atoms: C_9  and  C_11
REMARK    9  A    between atoms: C_14  and  N_15
REMARK   10  A    between atoms: N_15  and  S_16
REMARK   11  A    between atoms: S_16  and  C_19
REMARK                            x       y       z     vdW  Elec       q    Type
REMARK                         _______ _______ _______ _____ _____    ______ ____
ROOT
ATOM      1  C   UNL     1       5.415   4.257  16.808  0.00  0.00    +0.000 A 
ATOM      2  C   UNL     1       5.782   4.750  18.070  0.00  0.00    +0.000 A 
ATOM      3  C   UNL     1       5.220   4.217  19.233  0.00  0.00    +0.000 A 
ATOM      4  C   UNL     1       4.284   3.189  19.143  0.00  0.00    +0.000 A 
ATOM      5  C   UNL     1       3.867   2.730  17.894  0.00  0.00    +0.000 A 
ATOM      6  C   UNL     1       4.432   3.259  16.725  0.00  0.00    +0.000 A 
ENDROOT
BRANCH   1   8
ATOM      7  N   UNL     1       6.526   3.932  14.641  0.00  0.00    +0.000 N 
ATOM      8  C   UNL     1       6.096   4.821  15.608  0.00  0.00    +0.000 C 
ATOM      9  O   UNL     1       6.295   6.030  15.530  0.00  0.00    +0.000 OA
ATOM     10  H   UNL     1       6.377   2.936  14.720  0.00  0.00    +0.000 HD
BRANCH   7  11
ATOM     11  C   UNL     1       7.259   4.404  13.481  0.00  0.00    +0.000 C 
BRANCH  11  12
ATOM     12  C   UNL     1       6.652   3.945  12.138  0.00  0.00    +0.000 C 
BRANCH  12  13
ATOM     13  N   UNL     1       5.528   2.983  12.235  0.00  0.00    +0.000 NA
BRANCH  13  15
ATOM     14  C   UNL     1       3.625   3.117  10.571  0.00  0.00    +0.000 C 
ATOM     15  C   UNL     1       4.249   3.621  11.868  0.00  0.00    +0.000 C 
ENDBRANCH  13  15
BRANCH  13  16
ATOM     16  C   UNL     1       5.814   1.752  11.469  0.00  0.00    +0.000 C 
ATOM     17  C   UNL     1       7.237   1.584  10.938  0.00  0.00    +0.000 C 
ENDBRANCH  13  16
ENDBRANCH  12  13
ENDBRANCH  11  12
ENDBRANCH   7  11
ENDBRANCH   1   8
BRANCH   4  18
ATOM     18  N   UNL     1       3.750   2.595  20.324  0.00  0.00    +0.000 N 
ATOM     19  H   UNL     1       4.238   2.847  21.189  0.00  0.00    +0.000 HD
BRANCH  18  20
ATOM     20  S   UNL     1       2.069   2.732  20.599  0.00  0.00    +0.000 S 
ATOM     21  O   UNL     1       1.501   1.889  19.558  0.00  0.00    +0.000 OA
ATOM     22  O   UNL     1       1.807   2.411  21.989  0.00  0.00    +0.000 OA
BRANCH  20  23
ATOM     23  C   UNL     1       1.687   4.528  20.230  0.00  0.00    +0.000 C 
ATOM     24  F   UNL     1       0.483   4.917  20.740  0.00  0.00    +0.000 F 
ATOM     25  F   UNL     1       2.621   5.372  20.757  0.00  0.00    +0.000 F 
ATOM     26  F   UNL     1       1.642   4.782  18.892  0.00  0.00    +0.000 F 
ENDBRANCH  20  23
ENDBRANCH  18  20
ENDBRANCH   4  18
TORSDOF 9
ENDMDL
MODEL 6
REMARK VINA RESULT:      -6.9      1.294      1.782
REMARK  Name = 
REMARK  11 active torsions:
REMARK  status: ('A' for Active; 'I' for Inactive)
REMARK    1  A    between atoms: C_1  and  C_2
REMARK    2  A    between atoms: C_2  and  N_3
REMARK    3  A    between atoms: N_3  and  C_4
REMARK    4  A    between atoms: N_3  and  C_6
REMARK    5  A    between atoms: C_4  and  C_5
REMARK    6  A    between atoms: C_6  and  C_7
REMARK    7  A    between atoms: C_7  and  N_8
REMARK    8  A    between atoms: C_9  and  C_11
REMARK    9  A    between atoms: C_14  and  N_15
REMARK   10  A    between atoms: N_15  and  S_16
REMARK   11  A    between atoms: S_16  and  C_19
REMARK                            x       y       z     vdW  Elec       q    Type
REMARK                         _______ _______ _______ _____ _____    ______ ____
ROOT
ATOM      1  C   UNL     1       6.082   5.718  17.537  0.00  0.00    +0.000 A 
ATOM      2  C   UNL     1       5.995   5.299  18.875  0.00  0.00    +0.000 A 
ATOM      3  C   UNL     1       5.053   4.342  19.260  0.00  0.00    +0.000 A 
ATOM      4  C   UNL     1       4.188   3.798  18.313  0.00  0.00    +0.000 A 
ATOM      5  C   UNL     1       4.224   4.248  16.994  0.00  0.00    +0.000 A 
ATOM      6  C   UNL     1       5.170   5.205  16.601  0.00  0.00    +0.000 A 
ENDROOT
BRANCH   1   8
ATOM      7  N   UNL     1       7.306   7.799  17.987  0.00  0.00    +0.000 N 
ATOM      8  C   UNL     1       7.149   6.693  17.174  0.00  0.00    +0.000 C 
ATOM      9  O   UNL     1       7.816   6.518  16.158  0.00  0.00    +0.000 OA
ATOM     10  H   UNL     1       6.740   7.948  18.810  0.00  0.00    +0.000 HD
BRANCH   7  11
ATOM     11  C   UNL     1       8.277   8.825  17.654  0.00  0.00    +0.000 C 
BRANCH  11  12
ATOM     12  C   UNL     1       8.479   9.870  18.771  0.00  0.00    +0.000 C 
BRANCH  12  13
ATOM     13  N   UNL     1       9.780  10.583  18.758  0.00  0.00    +0.000 NA
BRANCH  13  15
ATOM     14  C   UNL     1       8.609  12.553  17.681  0.00  0.00    +0.000 C 
ATOM     15  C   UNL     1       9.810  11.612  17.701  0.00  0.00    +0.000 C 
ENDBRANCH  13  15
BRANCH  13  16
ATOM     16  C   UNL     1      10.115  11.105  20.099  0.00  0.00    +0.000 C 
ATOM     17  C   UNL     1      11.357  11.987  20.206  0.00  0.00    +0.000 C 
ENDBRANCH  13  16
ENDBRANCH  12  13
ENDBRANCH  11  12
ENDBRANCH   7  11
ENDBRANCH   1   8
BRANCH   4  18
ATOM     18  N   UNL     1       3.265   2.776  18.682  0.00  0.00    +0.000 N 
ATOM     19  H   UNL     1       3.665   2.021  19.248  0.00  0.00    +0.000 HD
BRANCH  18  20
ATOM     20  S   UNL     1       1.787   3.252  19.394  0.00  0.00    +0.000 S 
ATOM     21  O   UNL     1       1.670   4.647  18.996  0.00  0.00    +0.000 OA
ATOM     22  O   UNL     1       0.760   2.313  18.985  0.00  0.00    +0.000 OA
BRANCH  20  23
ATOM     23  C   UNL     1       2.109   3.151  21.236  0.00  0.00    +0.000 C 
ATOM     24  F   UNL     1       3.196   2.380  21.530  0.00  0.00    +0.000 F 
ATOM     25  F   UNL     1       2.346   4.377  21.785  0.00  0.00    +0.000 F 
ATOM     26  F   UNL     1       1.057   2.616  21.916  0.00  0.00    +0.000 F 
ENDBRANCH  20  23
ENDBRANCH  18  20
ENDBRANCH   4  18
TORSDOF 9
ENDMDL
MODEL 7
REMARK VINA RESULT:      -6.8      5.500      7.407
REMARK  Name = 
REMARK  11 active torsions:
REMARK  status: ('A' for Active; 'I' for Inactive)
REMARK    1  A    between atoms: C_1  and  C_2
REMARK    2  A    between atoms: C_2  and  N_3
REMARK    3  A    between atoms: N_3  and  C_4
REMARK    4  A    between atoms: N_3  and  C_6
REMARK    5  A    between atoms: C_4  and  C_5
REMARK    6  A    between atoms: C_6  and  C_7
REMARK    7  A    between atoms: C_7  and  N_8
REMARK    8  A    between atoms: C_9  and  C_11
REMARK    9  A    between atoms: C_14  and  N_15
REMARK   10  A    between atoms: N_15  and  S_16
REMARK   11  A    between atoms: S_16  and  C_19
REMARK                            x       y       z     vdW  Elec       q    Type
REMARK                         _______ _______ _______ _____ _____    ______ ____
ROOT
ATOM      1  C   UNL     1       3.593   5.009  19.065  0.00  0.00    +0.000 A 
ATOM      2  C   UNL     1       4.966   5.261  19.217  0.00  0.00    +0.000 A 
ATOM      3  C   UNL     1       5.875   4.867  18.232  0.00  0.00    +0.000 A 
ATOM      4  C   UNL     1       5.419   4.215  17.088  0.00  0.00    +0.000 A 
ATOM      5  C   UNL     1       4.066   3.906  16.952  0.00  0.00    +0.000 A 
ATOM      6  C   UNL     1       3.151   4.303  17.935  0.00  0.00    +0.000 A 
ENDROOT
BRANCH   1   8
ATOM      7  N   UNL     1       2.209   6.809  20.002  0.00  0.00    +0.000 N 
ATOM      8  C   UNL     1       2.665   5.510  20.118  0.00  0.00    +0.000 C 
ATOM      9  O   UNL     1       2.372   4.788  21.067  0.00  0.00    +0.000 OA
ATOM     10  H   UNL     1       2.471   7.405  19.230  0.00  0.00    +0.000 HD
BRANCH   7  11
ATOM     11  C   UNL     1       1.361   7.385  21.028  0.00  0.00    +0.000 C 
BRANCH  11  12
ATOM     12  C   UNL     1       1.279   8.926  20.970  0.00  0.00    +0.000 C 
BRANCH  12  13
ATOM     13  N   UNL     1      -0.070   9.490  20.724  0.00  0.00    +0.000 NA
BRANCH  13  15
ATOM     14  C   UNL     1      -0.280   9.819  23.225  0.00  0.00    +0.000 C 
ATOM     15  C   UNL     1      -0.480  10.385  21.822  0.00  0.00    +0.000 C 
ENDBRANCH  13  15
BRANCH  13  16
ATOM     16  C   UNL     1      -0.149  10.119  19.389  0.00  0.00    +0.000 C 
ATOM     17  C   UNL     1       1.064   9.951  18.474  0.00  0.00    +0.000 C 
ENDBRANCH  13  16
ENDBRANCH  12  13
ENDBRANCH  11  12
ENDBRANCH   7  11
ENDBRANCH   1   8
BRANCH   4  18
ATOM     18  N   UNL     1       6.329   3.863  16.048  0.00  0.00    +0.000 N 
ATOM     19  H   UNL     1       6.203   2.919  15.669  0.00  0.00    +0.000 HD
BRANCH  18  20
ATOM     20  S   UNL     1       6.502   4.946  14.737  0.00  0.00    +0.000 S 
ATOM     21  O   UNL     1       5.451   5.922  14.983  0.00  0.00    +0.000 OA
ATOM     22  O   UNL     1       7.882   5.390  14.692  0.00  0.00    +0.000 OA
BRANCH  20  23
ATOM     23  C   UNL     1       6.065   3.921  13.232  0.00  0.00    +0.000 C 
ATOM     24  F   UNL     1       6.765   4.303  12.125  0.00  0.00    +0.000 F 
ATOM     25  F   UNL     1       6.330   2.596  13.418  0.00  0.00    +0.000 F 
ATOM     26  F   UNL     1       4.745   4.015  12.908  0.00  0.00    +0.000 F 
ENDBRANCH  20  23
ENDBRANCH  18  20
ENDBRANCH   4  18
TORSDOF 9
ENDMDL
MODEL 8
REMARK VINA RESULT:      -6.8      4.312      6.490
REMARK  Name = 
REMARK  11 active torsions:
REMARK  status: ('A' for Active; 'I' for Inactive)
REMARK    1  A    between atoms: C_1  and  C_2
REMARK    2  A    between atoms: C_2  and  N_3
REMARK    3  A    between atoms: N_3  and  C_4
REMARK    4  A    between atoms: N_3  and  C_6
REMARK    5  A    between atoms: C_4  and  C_5
REMARK    6  A    between atoms: C_6  and  C_7
REMARK    7  A    between atoms: C_7  and  N_8
REMARK    8  A    between atoms: C_9  and  C_11
REMARK    9  A    between atoms: C_14  and  N_15
REMARK   10  A    between atoms: N_15  and  S_16
REMARK   11  A    between atoms: S_16  and  C_19
REMARK                            x       y       z     vdW  Elec       q    Type
REMARK                         _______ _______ _______ _____ _____    ______ ____
ROOT
ATOM      1  C   UNL     1       5.668   5.088  16.682  0.00  0.00    +0.000 A 
ATOM      2  C   UNL     1       4.469   5.819  16.720  0.00  0.00    +0.000 A 
ATOM      3  C   UNL     1       3.587   5.682  17.793  0.00  0.00    +0.000 A 
ATOM      4  C   UNL     1       3.893   4.811  18.837  0.00  0.00    +0.000 A 
ATOM      5  C   UNL     1       5.051   4.036  18.784  0.00  0.00    +0.000 A 
ATOM      6  C   UNL     1       5.941   4.173  17.711  0.00  0.00    +0.000 A 
ENDROOT
BRANCH   1   8
ATOM      7  N   UNL     1       6.343   4.657  14.360  0.00  0.00    +0.000 N 
ATOM      8  C   UNL     1       6.600   5.324  15.543  0.00  0.00    +0.000 C 
ATOM      9  O   UNL     1       7.577   6.053  15.694  0.00  0.00    +0.000 OA
ATOM     10  H   UNL     1       5.549   4.043  14.249  0.00  0.00    +0.000 HD
BRANCH   7  11
ATOM     11  C   UNL     1       7.248   4.785  13.232  0.00  0.00    +0.000 C 
BRANCH  11  12
ATOM     12  C   UNL     1       6.947   3.798  12.084  0.00  0.00    +0.000 C 
BRANCH  12  13
ATOM     13  N   UNL     1       5.594   3.191  12.096  0.00  0.00    +0.000 NA
BRANCH  13  15
ATOM     14  C   UNL     1       3.472   3.200  10.716  0.00  0.00    +0.000 C 
ATOM     15  C   UNL     1       4.649   3.984  11.287  0.00  0.00    +0.000 C 
ENDBRANCH  13  15
BRANCH  13  16
ATOM     16  C   UNL     1       5.648   1.765  11.711  0.00  0.00    +0.000 C 
ATOM     17  C   UNL     1       6.834   1.325  10.855  0.00  0.00    +0.000 C 
ENDBRANCH  13  16
ENDBRANCH  12  13
ENDBRANCH  11  12
ENDBRANCH   7  11
ENDBRANCH   1   8
BRANCH   4  18
ATOM     18  N   UNL     1       3.031   4.710  19.968  0.00  0.00    +0.000 N 
ATOM     19  H   UNL     1       2.324   5.448  20.037  0.00  0.00    +0.000 HD
BRANCH  18  20
ATOM     20  S   UNL     1       2.265   3.210  20.258  0.00  0.00    +0.000 S 
ATOM     21  O   UNL     1       3.383   2.329  20.563  0.00  0.00    +0.000 OA
ATOM     22  O   UNL     1       1.233   3.411  21.257  0.00  0.00    +0.000 OA
BRANCH  20  23
ATOM     23  C   UNL     1       1.530   2.739  18.602  0.00  0.00    +0.000 C 
ATOM     24  F   UNL     1       2.465   2.236  17.744  0.00  0.00    +0.000 F 
ATOM     25  F   UNL     1       0.562   1.786  18.720  0.00  0.00    +0.000 F 
ATOM     26  F   UNL     1       0.956   3.802  17.971  0.00  0.00    +0.000 F 
ENDBRANCH  20  23
ENDBRANCH  18  20
ENDBRANCH   4  18
TORSDOF 9
ENDMDL
MODEL 9
REMARK VINA RESULT:      -6.8      1.281      2.116
REMARK  Name = 
REMARK  11 active torsions:
REMARK  status: ('A' for Active; 'I' for Inactive)
REMARK    1  A    between atoms: C_1  and  C_2
REMARK    2  A    between atoms: C_2  and  N_3
REMARK    3  A    between atoms: N_3  and  C_4
REMARK    4  A    between atoms: N_3  and  C_6
REMARK    5  A    between atoms: C_4  and  C_5
REMARK    6  A    between atoms: C_6  and  C_7
REMARK    7  A    between atoms: C_7  and  N_8
REMARK    8  A    between atoms: C_9  and  C_11
REMARK    9  A    between atoms: C_14  and  N_15
REMARK   10  A    between atoms: N_15  and  S_16
REMARK   11  A    between atoms: S_16  and  C_19
REMARK                            x       y       z     vdW  Elec       q    Type
REMARK                         _______ _______ _______ _____ _____    ______ ____
ROOT
ATOM      1  C   UNL     1       6.201   5.750  17.541  0.00  0.00    +0.000 A 
ATOM      2  C   UNL     1       5.348   5.309  16.516  0.00  0.00    +0.000 A 
ATOM      3  C   UNL     1       4.354   4.363  16.776  0.00  0.00    +0.000 A 
ATOM      4  C   UNL     1       4.207   3.847  18.062  0.00  0.00    +0.000 A 
ATOM      5  C   UNL     1       5.084   4.232  19.075  0.00  0.00    +0.000 A 
ATOM      6  C   UNL     1       6.080   5.185  18.819  0.00  0.00    +0.000 A 
ENDROOT
BRANCH   1   8
ATOM      7  N   UNL     1       7.237   7.923  18.034  0.00  0.00    +0.000 N 
ATOM      8  C   UNL     1       7.199   6.809  17.217  0.00  0.00    +0.000 C 
ATOM      9  O   UNL     1       7.918   6.689  16.228  0.00  0.00    +0.000 OA
ATOM     10  H   UNL     1       6.629   8.024  18.834  0.00  0.00    +0.000 HD
BRANCH   7  11
ATOM     11  C   UNL     1       8.135   9.023  17.737  0.00  0.00    +0.000 C 
BRANCH  11  12
ATOM     12  C   UNL     1       8.895   9.551  18.972  0.00  0.00    +0.000 C 
BRANCH  12  13
ATOM     13  N   UNL     1       9.227  10.996  18.954  0.00  0.00    +0.000 NA
BRANCH  13  15
ATOM     14  C   UNL     1       8.997  11.300  21.457  0.00  0.00    +0.000 C 
ATOM     15  C   UNL     1       9.875  11.408  20.214  0.00  0.00    +0.000 C 
ENDBRANCH  13  15
BRANCH  13  16
ATOM     16  C   UNL     1      10.004  11.349  17.748  0.00  0.00    +0.000 C 
ATOM     17  C   UNL     1      11.430  11.852  17.968  0.00  0.00    +0.000 C 
ENDBRANCH  13  16
ENDBRANCH  12  13
ENDBRANCH  11  12
ENDBRANCH   7  11
ENDBRANCH   1   8
BRANCH   4  18
ATOM     18  N   UNL     1       3.157   2.927  18.354  0.00  0.00    +0.000 N 
ATOM     19  H   UNL     1       3.364   2.265  19.108  0.00  0.00    +0.000 HD
BRANCH  18  20
ATOM     20  S   UNL     1       1.590   3.559  18.613  0.00  0.00    +0.000 S 
ATOM     21  O   UNL     1       1.359   4.353  17.416  0.00  0.00    +0.000 OA
ATOM     22  O   UNL     1       0.698   2.455  18.912  0.00  0.00    +0.000 OA
BRANCH  20  23
ATOM     23  C   UNL     1       1.789   4.693  20.089  0.00  0.00    +0.000 C 
ATOM     24  F   UNL     1       2.606   4.163  21.045  0.00  0.00    +0.000 F 
ATOM     25  F   UNL     1       2.330   5.897  19.744  0.00  0.00    +0.000 F 
ATOM     26  F   UNL     1       0.600   4.960  20.700  0.00  0.00    +0.000 F 
ENDBRANCH  20  23
ENDBRANCH  18  20
ENDBRANCH   4  18
TORSDOF 9
ENDMDL
