MODEL 1
REMARK VINA RESULT:      -6.8      0.000      0.000
REMARK  Name = 
REMARK  11 active torsions:
REMARK  status: ('A' for Active; 'I' for Inactive)
REMARK    1  A    between atoms: C_5  and  O_6
REMARK    2  A    between atoms: C_7  and  C_8
REMARK    3  A    between atoms: C_11  and  C_12
REMARK    4  A    between atoms: C_12  and  C_13
REMARK    5  A    between atoms: C_15  and  O_16
REMARK    6  A    between atoms: O_16  and  C_17
REMARK    7  A    between atoms: C_17  and  C_19
REMARK    8  A    between atoms: C_20  and  C_21
REMARK    9  A    between atoms: C_21  and  C_22
REMARK   10  A    between atoms: C_21  and  C_23
REMARK   11  A    between atoms: C_21  and  O_24
REMARK                            x       y       z     vdW  Elec       q    Type
REMARK                         _______ _______ _______ _____ _____    ______ ____
ROOT
ATOM      1  C   UNL     1      -1.712  10.345  16.845  0.00  0.00    +0.000 C 
ATOM      2  C   UNL     1      -2.299  10.429  18.048  0.00  0.00    +0.000 C 
ATOM      3  C   UNL     1      -3.807  10.406  18.166  0.00  0.00    +0.000 C 
ATOM      4  C   UNL     1      -4.336  11.719  18.716  0.00  0.00    +0.000 C 
ATOM      5  C   UNL     1      -3.527  12.330  19.865  0.00  0.00    +0.000 C 
ATOM      6  C   UNL     1      -1.981  12.049  19.922  0.00  0.00    +0.000 C 
ATOM      7  C   UNL     1      -1.220  13.167  19.137  0.00  0.00    +0.000 C 
ATOM      8  C   UNL     1      -1.542  12.109  21.411  0.00  0.00    +0.000 C 
ATOM      9  C   UNL     1      -0.048  11.870  21.630  0.00  0.00    +0.000 C 
ATOM     10  C   UNL     1       0.492  10.616  20.929  0.00  0.00    +0.000 C 
ATOM     11  C   UNL     1      -0.021  10.479  19.482  0.00  0.00    +0.000 C 
ATOM     12  C   UNL     1      -1.595  10.612  19.390  0.00  0.00    +0.000 C 
ENDROOT
BRANCH  10  13
ATOM     13  C   UNL     1       0.240   9.372  21.796  0.00  0.00    +0.000 C 
ATOM     14  C   UNL     1      -0.040   9.557  23.269  0.00  0.00    +0.000 C 
ATOM     15  O   UNL     1       0.264   8.236  21.322  0.00  0.00    +0.000 OA
ENDBRANCH  10  13
BRANCH   5  16
ATOM     16  O   UNL     1      -3.781  13.745  19.834  0.00  0.00    +0.000 OA
ATOM     17  H   UNL     1      -4.749  13.866  19.788  0.00  0.00    +0.000 HD
ENDBRANCH   5  16
BRANCH  11  18
ATOM     18  O   UNL     1       0.573   9.330  18.852  0.00  0.00    +0.000 OA
BRANCH  18  19
ATOM     19  C   UNL     1       1.734   9.639  18.183  0.00  0.00    +0.000 C 
ATOM     20  O   UNL     1       2.115  10.761  17.884  0.00  0.00    +0.000 OA
BRANCH  19  21
ATOM     21  C   UNL     1       2.481   8.424  17.900  0.00  0.00    +0.000 C 
ATOM     22  C   UNL     1       2.462   7.393  18.764  0.00  0.00    +0.000 C 
BRANCH  22  23
ATOM     23  C   UNL     1       3.186   6.093  18.541  0.00  0.00    +0.000 C 
ATOM     24  C   UNL     1       2.236   4.997  18.055  0.00  0.00    +0.000 C 
ATOM     25  C   UNL     1       4.337   6.293  17.556  0.00  0.00    +0.000 C 
BRANCH  23  26
ATOM     26  O   UNL     1       3.750   5.667  19.781  0.00  0.00    +0.000 OA
ATOM     27  H   UNL     1       4.458   6.296  20.005  0.00  0.00    +0.000 HD
ENDBRANCH  23  26
ENDBRANCH  22  23
ENDBRANCH  19  21
ENDBRANCH  18  19
ENDBRANCH  11  18
TORSDOF 7
ENDMDL
MODEL 2
REMARK VINA RESULT:      -6.7      2.964      8.364
REMARK  Name = 
REMARK  11 active torsions:
REMARK  status: ('A' for Active; 'I' for Inactive)
REMARK    1  A    between atoms: C_5  and  O_6
REMARK    2  A    between atoms: C_7  and  C_8
REMARK    3  A    between atoms: C_11  and  C_12
REMARK    4  A    between atoms: C_12  and  C_13
REMARK    5  A    between atoms: C_15  and  O_16
REMARK    6  A    between atoms: O_16  and  C_17
REMARK    7  A    between atoms: C_17  and  C_19
REMARK    8  A    between atoms: C_20  and  C_21
REMARK    9  A    between atoms: C_21  and  C_22
REMARK   10  A    between atoms: C_21  and  C_23
REMARK   11  A    between atoms: C_21  and  O_24
REMARK                            x       y       z     vdW  Elec       q    Type
REMARK                         _______ _______ _______ _____ _____    ______ ____
ROOT
ATOM      1  C   UNL     1       6.088   7.715  17.583  0.00  0.00    +0.000 C 
ATOM      2  C   UNL     1       6.062   6.419  17.925  0.00  0.00    +0.000 C 
ATOM      3  C   UNL     1       7.352   5.666  18.166  0.00  0.00    +0.000 C 
ATOM      4  C   UNL     1       7.541   4.558  17.145  0.00  0.00    +0.000 C 
ATOM      5  C   UNL     1       6.284   3.753  16.799  0.00  0.00    +0.000 C 
ATOM      6  C   UNL     1       4.889   4.470  16.892  0.00  0.00    +0.000 C 
ATOM      7  C   UNL     1       4.542   5.114  15.509  0.00  0.00    +0.000 C 
ATOM      8  C   UNL     1       3.819   3.391  17.213  0.00  0.00    +0.000 C 
ATOM      9  C   UNL     1       2.395   3.936  17.319  0.00  0.00    +0.000 C 
ATOM     10  C   UNL     1       2.262   5.157  18.239  0.00  0.00    +0.000 C 
ATOM     11  C   UNL     1       3.381   6.194  18.013  0.00  0.00    +0.000 C 
ATOM     12  C   UNL     1       4.820   5.540  18.054  0.00  0.00    +0.000 C 
ENDROOT
BRANCH  10  13
ATOM     13  C   UNL     1       2.123   4.708  19.702  0.00  0.00    +0.000 C 
ATOM     14  C   UNL     1       0.921   3.881  20.097  0.00  0.00    +0.000 C 
ATOM     15  O   UNL     1       2.958   5.008  20.556  0.00  0.00    +0.000 OA
ENDBRANCH  10  13
BRANCH   5  16
ATOM     16  O   UNL     1       6.491   3.223  15.479  0.00  0.00    +0.000 OA
ATOM     17  H   UNL     1       7.428   3.374  15.248  0.00  0.00    +0.000 HD
ENDBRANCH   5  16
BRANCH  11  18
ATOM     18  O   UNL     1       3.165   7.346  18.847  0.00  0.00    +0.000 OA
BRANCH  18  19
ATOM     19  C   UNL     1       2.440   8.326  18.213  0.00  0.00    +0.000 C 
ATOM     20  O   UNL     1       2.425   8.546  17.011  0.00  0.00    +0.000 OA
BRANCH  19  21
ATOM     21  C   UNL     1       1.649   9.065  19.184  0.00  0.00    +0.000 C 
ATOM     22  C   UNL     1       1.443   8.568  20.417  0.00  0.00    +0.000 C 
BRANCH  22  23
ATOM     23  C   UNL     1       0.659   9.275  21.490  0.00  0.00    +0.000 C 
ATOM     24  C   UNL     1       0.195  10.657  21.029  0.00  0.00    +0.000 C 
ATOM     25  C   UNL     1      -0.529   8.417  21.926  0.00  0.00    +0.000 C 
BRANCH  23  26
ATOM     26  O   UNL     1       1.503   9.451  22.628  0.00  0.00    +0.000 OA
ATOM     27  H   UNL     1       1.051  10.072  23.226  0.00  0.00    +0.000 HD
ENDBRANCH  23  26
ENDBRANCH  22  23
ENDBRANCH  19  21
ENDBRANCH  18  19
ENDBRANCH  11  18
TORSDOF 7
ENDMDL
MODEL 3
REMARK VINA RESULT:      -6.7      0.875      1.140
REMARK  Name = 
REMARK  11 active torsions:
REMARK  status: ('A' for Active; 'I' for Inactive)
REMARK    1  A    between atoms: C_5  and  O_6
REMARK    2  A    between atoms: C_7  and  C_8
REMARK    3  A    between atoms: C_11  and  C_12
REMARK    4  A    between atoms: C_12  and  C_13
REMARK    5  A    between atoms: C_15  and  O_16
REMARK    6  A    between atoms: O_16  and  C_17
REMARK    7  A    between atoms: C_17  and  C_19
REMARK    8  A    between atoms: C_20  and  C_21
REMARK    9  A    between atoms: C_21  and  C_22
REMARK   10  A    between atoms: C_21  and  C_23
REMARK   11  A    between atoms: C_21  and  O_24
REMARK                            x       y       z     vdW  Elec       q    Type
REMARK                         _______ _______ _______ _____ _____    ______ ____
ROOT
ATOM      1  C   UNL     1      -1.801  10.229  16.562  0.00  0.00    +0.000 C 
ATOM      2  C   UNL     1      -2.318  10.284  17.798  0.00  0.00    +0.000 C 
ATOM      3  C   UNL     1      -3.817  10.257  18.001  0.00  0.00    +0.000 C 
ATOM      4  C   UNL     1      -4.313  11.556  18.612  0.00  0.00    +0.000 C 
ATOM      5  C   UNL     1      -3.438  12.140  19.728  0.00  0.00    +0.000 C 
ATOM      6  C   UNL     1      -1.893  11.859  19.690  0.00  0.00    +0.000 C 
ATOM      7  C   UNL     1      -1.176  12.996  18.889  0.00  0.00    +0.000 C 
ATOM      8  C   UNL     1      -1.369  11.883  21.152  0.00  0.00    +0.000 C 
ATOM      9  C   UNL     1       0.135  11.639  21.279  0.00  0.00    +0.000 C 
ATOM     10  C   UNL     1       0.633  10.403  20.519  0.00  0.00    +0.000 C 
ATOM     11  C   UNL     1       0.038  10.300  19.100  0.00  0.00    +0.000 C 
ATOM     12  C   UNL     1      -1.538  10.435  19.102  0.00  0.00    +0.000 C 
ENDROOT
BRANCH  10  13
ATOM     13  C   UNL     1       0.429   9.138  21.368  0.00  0.00    +0.000 C 
ATOM     14  C   UNL     1       1.581   8.173  21.521  0.00  0.00    +0.000 C 
ATOM     15  O   UNL     1      -0.645   8.892  21.918  0.00  0.00    +0.000 OA
ENDBRANCH  10  13
BRANCH   5  16
ATOM     16  O   UNL     1      -3.693  13.555  19.745  0.00  0.00    +0.000 OA
ATOM     17  H   UNL     1      -2.828  14.006  19.796  0.00  0.00    +0.000 HD
ENDBRANCH   5  16
BRANCH  11  18
ATOM     18  O   UNL     1       0.594   9.168  18.410  0.00  0.00    +0.000 OA
BRANCH  18  19
ATOM     19  C   UNL     1       1.840   9.428  17.890  0.00  0.00    +0.000 C 
ATOM     20  O   UNL     1       2.224  10.501  17.447  0.00  0.00    +0.000 OA
BRANCH  19  21
ATOM     21  C   UNL     1       2.669   8.236  17.968  0.00  0.00    +0.000 C 
ATOM     22  C   UNL     1       2.107   7.021  18.095  0.00  0.00    +0.000 C 
BRANCH  22  23
ATOM     23  C   UNL     1       2.887   5.735  18.159  0.00  0.00    +0.000 C 
ATOM     24  C   UNL     1       3.558   5.552  19.521  0.00  0.00    +0.000 C 
ATOM     25  C   UNL     1       1.978   4.550  17.834  0.00  0.00    +0.000 C 
BRANCH  23  26
ATOM     26  O   UNL     1       3.913   5.775  17.166  0.00  0.00    +0.000 OA
ATOM     27  H   UNL     1       3.527   6.186  16.373  0.00  0.00    +0.000 HD
ENDBRANCH  23  26
ENDBRANCH  22  23
ENDBRANCH  19  21
ENDBRANCH  18  19
ENDBRANCH  11  18
TORSDOF 7
ENDMDL
MODEL 4
REMARK VINA RESULT:      -6.6      6.157      8.428
REMARK  Name = 
REMARK  11 active torsions:
REMARK  status: ('A' for Active; 'I' for Inactive)
REMARK    1  A    between atoms: C_5  and  O_6
REMARK    2  A    between atoms: C_7  and  C_8
REMARK    3  A    between atoms: C_11  and  C_12
REMARK    4  A    between atoms: C_12  and  C_13
REMARK    5  A    between atoms: C_15  and  O_16
REMARK    6  A    between atoms: O_16  and  C_17
REMARK    7  A    between atoms: C_17  and  C_19
REMARK    8  A    between atoms: C_20  and  C_21
REMARK    9  A    between atoms: C_21  and  C_22
REMARK   10  A    between atoms: C_21  and  C_23
REMARK   11  A    between atoms: C_21  and  O_24
REMARK                            x       y       z     vdW  Elec       q    Type
REMARK                         _______ _______ _______ _____ _____    ______ ____
ROOT
ATOM      1  C   UNL     1       3.094   2.122  16.598  0.00  0.00    +0.000 C 
ATOM      2  C   UNL     1       3.263   2.476  17.880  0.00  0.00    +0.000 C 
ATOM      3  C   UNL     1       2.826   1.548  18.992  0.00  0.00    +0.000 C 
ATOM      4  C   UNL     1       1.708   2.165  19.815  0.00  0.00    +0.000 C 
ATOM      5  C   UNL     1       1.861   3.657  20.130  0.00  0.00    +0.000 C 
ATOM      6  C   UNL     1       2.639   4.560  19.107  0.00  0.00    +0.000 C 
ATOM      7  C   UNL     1       1.633   5.151  18.064  0.00  0.00    +0.000 C 
ATOM      8  C   UNL     1       3.274   5.737  19.897  0.00  0.00    +0.000 C 
ATOM      9  C   UNL     1       4.057   6.721  19.028  0.00  0.00    +0.000 C 
ATOM     10  C   UNL     1       5.074   6.054  18.092  0.00  0.00    +0.000 C 
ATOM     11  C   UNL     1       4.497   4.815  17.378  0.00  0.00    +0.000 C 
ATOM     12  C   UNL     1       3.825   3.800  18.389  0.00  0.00    +0.000 C 
ENDROOT
BRANCH  10  13
ATOM     13  C   UNL     1       6.387   5.780  18.840  0.00  0.00    +0.000 C 
ATOM     14  C   UNL     1       7.653   6.445  18.353  0.00  0.00    +0.000 C 
ATOM     15  O   UNL     1       6.433   5.033  19.818  0.00  0.00    +0.000 OA
ENDBRANCH  10  13
BRANCH   5  16
ATOM     16  O   UNL     1       0.534   4.166  20.345  0.00  0.00    +0.000 OA
ATOM     17  H   UNL     1       0.501   5.062  19.960  0.00  0.00    +0.000 HD
ENDBRANCH   5  16
BRANCH  11  18
ATOM     18  O   UNL     1       5.465   4.276  16.461  0.00  0.00    +0.000 OA
BRANCH  18  19
ATOM     19  C   UNL     1       5.661   5.085  15.367  0.00  0.00    +0.000 C 
ATOM     20  O   UNL     1       5.537   6.301  15.340  0.00  0.00    +0.000 OA
BRANCH  19  21
ATOM     21  C   UNL     1       6.076   4.285  14.226  0.00  0.00    +0.000 C 
ATOM     22  C   UNL     1       5.210   4.009  13.234  0.00  0.00    +0.000 C 
BRANCH  22  23
ATOM     23  C   UNL     1       5.561   3.209  12.008  0.00  0.00    +0.000 C 
ATOM     24  C   UNL     1       4.431   3.236  10.978  0.00  0.00    +0.000 C 
ATOM     25  C   UNL     1       6.866   3.722  11.400  0.00  0.00    +0.000 C 
BRANCH  23  26
ATOM     26  O   UNL     1       5.771   1.851  12.396  0.00  0.00    +0.000 OA
ATOM     27  H   UNL     1       5.299   1.717  13.236  0.00  0.00    +0.000 HD
ENDBRANCH  23  26
ENDBRANCH  22  23
ENDBRANCH  19  21
ENDBRANCH  18  19
ENDBRANCH  11  18
TORSDOF 7
ENDMDL
MODEL 5
REMARK VINA RESULT:      -6.5      3.268      8.313
REMARK  Name = 
REMARK  11 active torsions:
REMARK  status: ('A' for Active; 'I' for Inactive)
REMARK    1  A    between atoms: C_5  and  O_6
REMARK    2  A    between atoms: C_7  and  C_8
REMARK    3  A    between atoms: C_11  and  C_12
REMARK    4  A    between atoms: C_12  and  C_13
REMARK    5  A    between atoms: C_15  and  O_16
REMARK    6  A    between atoms: O_16  and  C_17
REMARK    7  A    between atoms: C_17  and  C_19
REMARK    8  A    between atoms: C_20  and  C_21
REMARK    9  A    between atoms: C_21  and  C_22
REMARK   10  A    between atoms: C_21  and  C_23
REMARK   11  A    between atoms: C_21  and  O_24
REMARK                            x       y       z     vdW  Elec       q    Type
REMARK                         _______ _______ _______ _____ _____    ______ ____
ROOT
ATOM      1  C   UNL     1       1.006   4.331  18.861  0.00  0.00    +0.000 C 
ATOM      2  C   UNL     1       2.063   3.762  18.265  0.00  0.00    +0.000 C 
ATOM      3  C   UNL     1       2.059   2.282  17.951  0.00  0.00    +0.000 C 
ATOM      4  C   UNL     1       3.133   1.550  18.738  0.00  0.00    +0.000 C 
ATOM      5  C   UNL     1       4.483   2.267  18.842  0.00  0.00    +0.000 C 
ATOM      6  C   UNL     1       4.498   3.838  18.814  0.00  0.00    +0.000 C 
ATOM      7  C   UNL     1       4.390   4.385  20.276  0.00  0.00    +0.000 C 
ATOM      8  C   UNL     1       5.861   4.291  18.221  0.00  0.00    +0.000 C 
ATOM      9  C   UNL     1       6.035   5.807  18.145  0.00  0.00    +0.000 C 
ATOM     10  C   UNL     1       4.858   6.537  17.483  0.00  0.00    +0.000 C 
ATOM     11  C   UNL     1       3.490   6.026  17.978  0.00  0.00    +0.000 C 
ATOM     12  C   UNL     1       3.373   4.451  17.890  0.00  0.00    +0.000 C 
ENDROOT
BRANCH  10  13
ATOM     13  C   UNL     1       5.010   6.515  15.954  0.00  0.00    +0.000 C 
ATOM     14  C   UNL     1       5.605   5.289  15.301  0.00  0.00    +0.000 C 
ATOM     15  O   UNL     1       4.666   7.468  15.254  0.00  0.00    +0.000 OA
ENDBRANCH  10  13
BRANCH   5  16
ATOM     16  O   UNL     1       5.112   1.778  20.038  0.00  0.00    +0.000 OA
ATOM     17  H   UNL     1       4.543   1.070  20.397  0.00  0.00    +0.000 HD
ENDBRANCH   5  16
BRANCH  11  18
ATOM     18  O   UNL     1       2.430   6.793  17.382  0.00  0.00    +0.000 OA
BRANCH  18  19
ATOM     19  C   UNL     1       2.342   8.063  17.902  0.00  0.00    +0.000 C 
ATOM     20  O   UNL     1       2.566   9.103  17.303  0.00  0.00    +0.000 OA
BRANCH  19  21
ATOM     21  C   UNL     1       1.903   8.001  19.287  0.00  0.00    +0.000 C 
ATOM     22  C   UNL     1       1.310   9.062  19.864  0.00  0.00    +0.000 C 
BRANCH  22  23
ATOM     23  C   UNL     1       0.805   9.078  21.281  0.00  0.00    +0.000 C 
ATOM     24  C   UNL     1       0.393  10.485  21.716  0.00  0.00    +0.000 C 
ATOM     25  C   UNL     1      -0.356   8.096  21.438  0.00  0.00    +0.000 C 
BRANCH  23  26
ATOM     26  O   UNL     1       1.857   8.642  22.143  0.00  0.00    +0.000 OA
ATOM     27  H   UNL     1       1.446   8.378  22.985  0.00  0.00    +0.000 HD
ENDBRANCH  23  26
ENDBRANCH  22  23
ENDBRANCH  19  21
ENDBRANCH  18  19
ENDBRANCH  11  18
TORSDOF 7
ENDMDL
MODEL 6
REMARK VINA RESULT:      -6.5      6.155      8.631
REMARK  Name = 
REMARK  11 active torsions:
REMARK  status: ('A' for Active; 'I' for Inactive)
REMARK    1  A    between atoms: C_5  and  O_6
REMARK    2  A    between atoms: C_7  and  C_8
REMARK    3  A    between atoms: C_11  and  C_12
REMARK    4  A    between atoms: C_12  and  C_13
REMARK    5  A    between atoms: C_15  and  O_16
REMARK    6  A    between atoms: O_16  and  C_17
REMARK    7  A    between atoms: C_17  and  C_19
REMARK    8  A    between atoms: C_20  and  C_21
REMARK    9  A    between atoms: C_21  and  C_22
REMARK   10  A    between atoms: C_21  and  C_23
REMARK   11  A    between atoms: C_21  and  O_24
REMARK                            x       y       z     vdW  Elec       q    Type
REMARK                         _______ _______ _______ _____ _____    ______ ____
ROOT
ATOM      1  C   UNL     1       3.949   1.707  17.826  0.00  0.00    +0.000 C 
ATOM      2  C   UNL     1       3.969   2.619  18.809  0.00  0.00    +0.000 C 
ATOM      3  C   UNL     1       3.569   2.234  20.217  0.00  0.00    +0.000 C 
ATOM      4  C   UNL     1       2.319   2.978  20.655  0.00  0.00    +0.000 C 
ATOM      5  C   UNL     1       2.254   4.457  20.260  0.00  0.00    +0.000 C 
ATOM      6  C   UNL     1       2.987   4.911  18.946  0.00  0.00    +0.000 C 
ATOM      7  C   UNL     1       1.998   4.814  17.738  0.00  0.00    +0.000 C 
ATOM      8  C   UNL     1       3.401   6.398  19.123  0.00  0.00    +0.000 C 
ATOM      9  C   UNL     1       4.117   6.994  17.910  0.00  0.00    +0.000 C 
ATOM     10  C   UNL     1       5.281   6.140  17.392  0.00  0.00    +0.000 C 
ATOM     11  C   UNL     1       4.926   4.641  17.313  0.00  0.00    +0.000 C 
ATOM     12  C   UNL     1       4.314   4.099  18.667  0.00  0.00    +0.000 C 
ENDROOT
BRANCH  10  13
ATOM     13  C   UNL     1       6.556   6.432  18.198  0.00  0.00    +0.000 C 
ATOM     14  C   UNL     1       7.500   7.502  17.702  0.00  0.00    +0.000 C 
ATOM     15  O   UNL     1       6.827   5.815  19.229  0.00  0.00    +0.000 OA
ENDBRANCH  10  13
BRANCH   5  16
ATOM     16  O   UNL     1       0.860   4.802  20.204  0.00  0.00    +0.000 OA
ATOM     17  H   UNL     1       0.804   5.755  19.999  0.00  0.00    +0.000 HD
ENDBRANCH   5  16
BRANCH  11  18
ATOM     18  O   UNL     1       6.025   3.901  16.752  0.00  0.00    +0.000 OA
BRANCH  18  19
ATOM     19  C   UNL     1       6.496   4.459  15.587  0.00  0.00    +0.000 C 
ATOM     20  O   UNL     1       7.349   5.330  15.500  0.00  0.00    +0.000 OA
BRANCH  19  21
ATOM     21  C   UNL     1       5.849   3.837  14.443  0.00  0.00    +0.000 C 
ATOM     22  C   UNL     1       6.463   3.804  13.246  0.00  0.00    +0.000 C 
BRANCH  22  23
ATOM     23  C   UNL     1       5.878   3.162  12.017  0.00  0.00    +0.000 C 
ATOM     24  C   UNL     1       4.416   3.562  11.815  0.00  0.00    +0.000 C 
ATOM     25  C   UNL     1       6.716   3.515  10.788  0.00  0.00    +0.000 C 
BRANCH  23  26
ATOM     26  O   UNL     1       5.928   1.744  12.178  0.00  0.00    +0.000 OA
ATOM     27  H   UNL     1       6.161   1.569  13.106  0.00  0.00    +0.000 HD
ENDBRANCH  23  26
ENDBRANCH  22  23
ENDBRANCH  19  21
ENDBRANCH  18  19
ENDBRANCH  11  18
TORSDOF 7
ENDMDL
MODEL 7
REMARK VINA RESULT:      -6.4      2.257      8.460
REMARK  Name = 
REMARK  11 active torsions:
REMARK  status: ('A' for Active; 'I' for Inactive)
REMARK    1  A    between atoms: C_5  and  O_6
REMARK    2  A    between atoms: C_7  and  C_8
REMARK    3  A    between atoms: C_11  and  C_12
REMARK    4  A    between atoms: C_12  and  C_13
REMARK    5  A    between atoms: C_15  and  O_16
REMARK    6  A    between atoms: O_16  and  C_17
REMARK    7  A    between atoms: C_17  and  C_19
REMARK    8  A    between atoms: C_20  and  C_21
REMARK    9  A    between atoms: C_21  and  C_22
REMARK   10  A    between atoms: C_21  and  C_23
REMARK   11  A    between atoms: C_21  and  O_24
REMARK                            x       y       z     vdW  Elec       q    Type
REMARK                         _______ _______ _______ _____ _____    ______ ____
ROOT
ATOM      1  C   UNL     1       6.051   7.739  17.554  0.00  0.00    +0.000 C 
ATOM      2  C   UNL     1       6.023   6.449  17.918  0.00  0.00    +0.000 C 
ATOM      3  C   UNL     1       7.310   5.707  18.205  0.00  0.00    +0.000 C 
ATOM      4  C   UNL     1       7.529   4.581  17.209  0.00  0.00    +0.000 C 
ATOM      5  C   UNL     1       6.284   3.764  16.848  0.00  0.00    +0.000 C 
ATOM      6  C   UNL     1       4.884   4.476  16.895  0.00  0.00    +0.000 C 
ATOM      7  C   UNL     1       4.566   5.092  15.492  0.00  0.00    +0.000 C 
ATOM      8  C   UNL     1       3.811   3.397  17.211  0.00  0.00    +0.000 C 
ATOM      9  C   UNL     1       2.383   3.937  17.273  0.00  0.00    +0.000 C 
ATOM     10  C   UNL     1       2.223   5.174  18.167  0.00  0.00    +0.000 C 
ATOM     11  C   UNL     1       3.342   6.212  17.948  0.00  0.00    +0.000 C 
ATOM     12  C   UNL     1       4.783   5.566  18.035  0.00  0.00    +0.000 C 
ENDROOT
BRANCH  10  13
ATOM     13  C   UNL     1       2.051   4.752  19.634  0.00  0.00    +0.000 C 
ATOM     14  C   UNL     1       1.031   3.689  19.970  0.00  0.00    +0.000 C 
ATOM     15  O   UNL     1       2.716   5.259  20.538  0.00  0.00    +0.000 OA
ENDBRANCH  10  13
BRANCH   5  16
ATOM     16  O   UNL     1       6.525   3.211  15.544  0.00  0.00    +0.000 OA
ATOM     17  H   UNL     1       6.303   2.261  15.585  0.00  0.00    +0.000 HD
ENDBRANCH   5  16
BRANCH  11  18
ATOM     18  O   UNL     1       3.100   7.378  18.755  0.00  0.00    +0.000 OA
BRANCH  18  19
ATOM     19  C   UNL     1       2.460   8.376  18.060  0.00  0.00    +0.000 C 
ATOM     20  O   UNL     1       2.670   8.693  16.898  0.00  0.00    +0.000 OA
BRANCH  19  21
ATOM     21  C   UNL     1       1.451   8.999  18.902  0.00  0.00    +0.000 C 
ATOM     22  C   UNL     1       0.630   9.940  18.402  0.00  0.00    +0.000 C 
BRANCH  22  23
ATOM     23  C   UNL     1      -0.455  10.619  19.195  0.00  0.00    +0.000 C 
ATOM     24  C   UNL     1      -0.377  10.257  20.679  0.00  0.00    +0.000 C 
ATOM     25  C   UNL     1      -0.384  12.133  18.997  0.00  0.00    +0.000 C 
BRANCH  23  26
ATOM     26  O   UNL     1      -1.721  10.180  18.701  0.00  0.00    +0.000 OA
ATOM     27  H   UNL     1      -2.392  10.790  19.053  0.00  0.00    +0.000 HD
ENDBRANCH  23  26
ENDBRANCH  22  23
ENDBRANCH  19  21
ENDBRANCH  18  19
ENDBRANCH  11  18
TORSDOF 7
ENDMDL
MODEL 8
REMARK VINA RESULT:      -6.2      4.629      7.847
REMARK  Name = 
REMARK  11 active torsions:
REMARK  status: ('A' for Active; 'I' for Inactive)
REMARK    1  A    between atoms: C_5  and  O_6
REMARK    2  A    between atoms: C_7  and  C_8
REMARK    3  A    between atoms: C_11  and  C_12
REMARK    4  A    between atoms: C_12  and  C_13
REMARK    5  A    between atoms: C_15  and  O_16
REMARK    6  A    between atoms: O_16  and  C_17
REMARK    7  A    between atoms: C_17  and  C_19
REMARK    8  A    between atoms: C_20  and  C_21
REMARK    9  A    between atoms: C_21  and  C_22
REMARK   10  A    between atoms: C_21  and  C_23
REMARK   11  A    between atoms: C_21  and  O_24
REMARK                            x       y       z     vdW  Elec       q    Type
REMARK                         _______ _______ _______ _____ _____    ______ ____
ROOT
ATOM      1  C   UNL     1       4.426   2.664  20.780  0.00  0.00    +0.000 C 
ATOM      2  C   UNL     1       3.175   3.118  20.618  0.00  0.00    +0.000 C 
ATOM      3  C   UNL     1       2.027   2.480  21.370  0.00  0.00    +0.000 C 
ATOM      4  C   UNL     1       1.045   1.820  20.417  0.00  0.00    +0.000 C 
ATOM      5  C   UNL     1       0.730   2.606  19.140  0.00  0.00    +0.000 C 
ATOM      6  C   UNL     1       1.839   3.554  18.554  0.00  0.00    +0.000 C 
ATOM      7  C   UNL     1       2.719   2.757  17.535  0.00  0.00    +0.000 C 
ATOM      8  C   UNL     1       1.126   4.704  17.791  0.00  0.00    +0.000 C 
ATOM      9  C   UNL     1       2.081   5.708  17.145  0.00  0.00    +0.000 C 
ATOM     10  C   UNL     1       3.162   6.241  18.094  0.00  0.00    +0.000 C 
ATOM     11  C   UNL     1       3.808   5.127  18.942  0.00  0.00    +0.000 C 
ATOM     12  C   UNL     1       2.729   4.229  19.672  0.00  0.00    +0.000 C 
ENDROOT
BRANCH  10  13
ATOM     13  C   UNL     1       2.611   7.410  18.926  0.00  0.00    +0.000 C 
ATOM     14  C   UNL     1       2.415   8.750  18.256  0.00  0.00    +0.000 C 
ATOM     15  O   UNL     1       2.332   7.283  20.119  0.00  0.00    +0.000 OA
ENDBRANCH  10  13
BRANCH   5  16
ATOM     16  O   UNL     1       0.323   1.639  18.157  0.00  0.00    +0.000 OA
ATOM     17  H   UNL     1      -0.325   1.046  18.584  0.00  0.00    +0.000 HD
ENDBRANCH   5  16
BRANCH  11  18
ATOM     18  O   UNL     1       4.861   5.671  19.757  0.00  0.00    +0.000 OA
BRANCH  18  19
ATOM     19  C   UNL     1       6.106   5.474  19.208  0.00  0.00    +0.000 C 
ATOM     20  O   UNL     1       7.105   5.106  19.807  0.00  0.00    +0.000 OA
BRANCH  19  21
ATOM     21  C   UNL     1       6.065   5.738  17.779  0.00  0.00    +0.000 C 
ATOM     22  C   UNL     1       6.502   4.816  16.902  0.00  0.00    +0.000 C 
BRANCH  22  23
ATOM     23  C   UNL     1       6.476   4.995  15.408  0.00  0.00    +0.000 C 
ATOM     24  C   UNL     1       6.136   3.688  14.690  0.00  0.00    +0.000 C 
ATOM     25  C   UNL     1       5.489   6.099  15.027  0.00  0.00    +0.000 C 
BRANCH  23  26
ATOM     26  O   UNL     1       7.772   5.409  14.976  0.00  0.00    +0.000 OA
ATOM     27  H   UNL     1       8.007   4.861  14.208  0.00  0.00    +0.000 HD
ENDBRANCH  23  26
ENDBRANCH  22  23
ENDBRANCH  19  21
ENDBRANCH  18  19
ENDBRANCH  11  18
TORSDOF 7
ENDMDL
MODEL 9
REMARK VINA RESULT:      -6.2      1.764      3.327
REMARK  Name = 
REMARK  11 active torsions:
REMARK  status: ('A' for Active; 'I' for Inactive)
REMARK    1  A    between atoms: C_5  and  O_6
REMARK    2  A    between atoms: C_7  and  C_8
REMARK    3  A    between atoms: C_11  and  C_12
REMARK    4  A    between atoms: C_12  and  C_13
REMARK    5  A    between atoms: C_15  and  O_16
REMARK    6  A    between atoms: O_16  and  C_17
REMARK    7  A    between atoms: C_17  and  C_19
REMARK    8  A    between atoms: C_20  and  C_21
REMARK    9  A    between atoms: C_21  and  C_22
REMARK   10  A    between atoms: C_21  and  C_23
REMARK   11  A    between atoms: C_21  and  O_24
REMARK                            x       y       z     vdW  Elec       q    Type
REMARK                         _______ _______ _______ _____ _____    ______ ____
ROOT
ATOM      1  C   UNL     1      -0.312   9.173  21.025  0.00  0.00    +0.000 C 
ATOM      2  C   UNL     1      -0.251  10.432  21.483  0.00  0.00    +0.000 C 
ATOM      3  C   UNL     1      -0.602  10.739  22.922  0.00  0.00    +0.000 C 
ATOM      4  C   UNL     1      -1.831  11.627  23.011  0.00  0.00    +0.000 C 
ATOM      5  C   UNL     1      -1.904  12.764  21.986  0.00  0.00    +0.000 C 
ATOM      6  C   UNL     1      -1.217  12.555  20.588  0.00  0.00    +0.000 C 
ATOM      7  C   UNL     1      -2.249  11.938  19.588  0.00  0.00    +0.000 C 
ATOM      8  C   UNL     1      -0.790  13.950  20.054  0.00  0.00    +0.000 C 
ATOM      9  C   UNL     1      -0.116  13.913  18.683  0.00  0.00    +0.000 C 
ATOM     10  C   UNL     1       1.025  12.892  18.576  0.00  0.00    +0.000 C 
ATOM     11  C   UNL     1       0.660  11.529  19.200  0.00  0.00    +0.000 C 
ATOM     12  C   UNL     1       0.095  11.677  20.670  0.00  0.00    +0.000 C 
ENDROOT
BRANCH  10  13
ATOM     13  C   UNL     1       2.329  13.492  19.121  0.00  0.00    +0.000 C 
ATOM     14  C   UNL     1       3.306  14.112  18.149  0.00  0.00    +0.000 C 
ATOM     15  O   UNL     1       2.599  13.476  20.323  0.00  0.00    +0.000 OA
ENDBRANCH  10  13
BRANCH   5  16
ATOM     16  O   UNL     1      -3.297  13.075  21.821  0.00  0.00    +0.000 OA
ATOM     17  H   UNL     1      -3.782  12.228  21.785  0.00  0.00    +0.000 HD
ENDBRANCH   5  16
BRANCH  11  18
ATOM     18  O   UNL     1       1.735  10.593  19.006  0.00  0.00    +0.000 OA
BRANCH  18  19
ATOM     19  C   UNL     1       1.393   9.569  18.155  0.00  0.00    +0.000 C 
ATOM     20  O   UNL     1       0.360   9.487  17.506  0.00  0.00    +0.000 OA
BRANCH  19  21
ATOM     21  C   UNL     1       2.464   8.586  18.106  0.00  0.00    +0.000 C 
ATOM     22  C   UNL     1       2.221   7.296  18.399  0.00  0.00    +0.000 C 
BRANCH  22  23
ATOM     23  C   UNL     1       3.263   6.211  18.351  0.00  0.00    +0.000 C 
ATOM     24  C   UNL     1       2.681   4.896  17.831  0.00  0.00    +0.000 C 
ATOM     25  C   UNL     1       4.450   6.658  17.498  0.00  0.00    +0.000 C 
BRANCH  23  26
ATOM     26  O   UNL     1       3.746   5.985  19.675  0.00  0.00    +0.000 OA
ATOM     27  H   UNL     1       4.027   6.847  20.028  0.00  0.00    +0.000 HD
ENDBRANCH  23  26
ENDBRANCH  22  23
ENDBRANCH  19  21
ENDBRANCH  18  19
ENDBRANCH  11  18
TORSDOF 7
ENDMDL
