MODEL 1
REMARK VINA RESULT:      -6.8      0.000      0.000
REMARK  Name = 
REMARK  7 active torsions:
REMARK  status: ('A' for Active; 'I' for Inactive)
REMARK    1  A    between atoms: C_1  and  O_2
REMARK    2  A    between atoms: O_2  and  C_3
REMARK    3  A    between atoms: C_3  and  C_4
REMARK    4  A    between atoms: C_4  and  S_5
REMARK    5  A    between atoms: S_5  and  C_6
REMARK    6  A    between atoms: C_8  and  C_9
REMARK    7  A    between atoms: C_15  and  C_16
REMARK                            x       y       z     vdW  Elec       q    Type
REMARK                         _______ _______ _______ _____ _____    ______ ____
ROOT
ATOM      1  C   UNL     1       5.719   4.780  18.440  0.00  0.00    +0.000 A 
ATOM      2  N   UNL     1       4.930   5.799  18.448  0.00  0.00    +0.000 NA
ATOM      3  C   UNL     1       3.658   5.596  18.946  0.00  0.00    +0.000 A 
ATOM      4  C   UNL     1       3.187   4.413  19.389  0.00  0.00    +0.000 A 
ATOM      5  C   UNL     1       4.132   3.276  19.368  0.00  0.00    +0.000 A 
ATOM      6  O   UNL     1       3.833   2.155  19.766  0.00  0.00    +0.000 OA
ATOM      7  N   UNL     1       5.375   3.547  18.883  0.00  0.00    +0.000 N 
ATOM      8  H   UNL     1       6.057   2.804  18.859  0.00  0.00    +0.000 HD
ENDROOT
BRANCH   3   9
ATOM      9  C   UNL     1       2.798   6.798  19.002  0.00  0.00    +0.000 A 
ATOM     10  C   UNL     1       2.575   7.548  17.838  0.00  0.00    +0.000 A 
ATOM     11  C   UNL     1       1.809   8.714  17.888  0.00  0.00    +0.000 A 
ATOM     12  C   UNL     1       1.258   9.135  19.096  0.00  0.00    +0.000 A 
ATOM     13  C   UNL     1       1.462   8.387  20.256  0.00  0.00    +0.000 A 
ATOM     14  C   UNL     1       2.228   7.220  20.210  0.00  0.00    +0.000 A 
ENDBRANCH   3   9
BRANCH   4  15
ATOM     15  C   UNL     1       1.873   4.201  19.881  0.00  0.00    +0.000 C 
ATOM     16  N   UNL     1       0.803   4.002  20.287  0.00  0.00    +0.000 NA
ENDBRANCH   4  15
BRANCH   1  17
ATOM     17  S   UNL     1       7.342   4.827  17.843  0.00  0.00    +0.000 S 
BRANCH  17  18
ATOM     18  C   UNL     1       7.064   5.377  16.127  0.00  0.00    +0.000 C 
BRANCH  18  19
ATOM     19  C   UNL     1       6.446   4.308  15.225  0.00  0.00    +0.000 C 
BRANCH  19  21
ATOM     20  C   UNL     1       6.158   3.627  12.986  0.00  0.00    +0.000 C 
ATOM     21  O   UNL     1       6.799   4.545  13.862  0.00  0.00    +0.000 OA
ENDBRANCH  19  21
ENDBRANCH  18  19
ENDBRANCH  17  18
ENDBRANCH   1  17
TORSDOF 6
ENDMDL
MODEL 2
REMARK VINA RESULT:      -6.8      3.043      6.551
REMARK  Name = 
REMARK  7 active torsions:
REMARK  status: ('A' for Active; 'I' for Inactive)
REMARK    1  A    between atoms: C_1  and  O_2
REMARK    2  A    between atoms: O_2  and  C_3
REMARK    3  A    between atoms: C_3  and  C_4
REMARK    4  A    between atoms: C_4  and  S_5
REMARK    5  A    between atoms: S_5  and  C_6
REMARK    6  A    between atoms: C_8  and  C_9
REMARK    7  A    between atoms: C_15  and  C_16
REMARK                            x       y       z     vdW  Elec       q    Type
REMARK                         _______ _______ _______ _____ _____    ______ ____
ROOT
ATOM      1  C   UNL     1       2.447   6.789  19.633  0.00  0.00    +0.000 A 
ATOM      2  N   UNL     1       3.383   6.499  18.796  0.00  0.00    +0.000 NA
ATOM      3  C   UNL     1       3.943   5.240  18.901  0.00  0.00    +0.000 A 
ATOM      4  C   UNL     1       3.598   4.322  19.826  0.00  0.00    +0.000 A 
ATOM      5  C   UNL     1       2.513   4.698  20.758  0.00  0.00    +0.000 A 
ATOM      6  O   UNL     1       2.092   3.944  21.628  0.00  0.00    +0.000 OA
ATOM      7  N   UNL     1       1.992   5.945  20.589  0.00  0.00    +0.000 N 
ATOM      8  H   UNL     1       1.242   6.242  21.196  0.00  0.00    +0.000 HD
ENDROOT
BRANCH   3   9
ATOM      9  C   UNL     1       4.968   4.913  17.887  0.00  0.00    +0.000 A 
ATOM     10  C   UNL     1       6.323   5.144  18.170  0.00  0.00    +0.000 A 
ATOM     11  C   UNL     1       7.298   4.890  17.203  0.00  0.00    +0.000 A 
ATOM     12  C   UNL     1       6.927   4.401  15.951  0.00  0.00    +0.000 A 
ATOM     13  C   UNL     1       5.583   4.155  15.667  0.00  0.00    +0.000 A 
ATOM     14  C   UNL     1       4.606   4.408  16.632  0.00  0.00    +0.000 A 
ENDBRANCH   3   9
BRANCH   4  15
ATOM     15  C   UNL     1       4.187   3.037  19.946  0.00  0.00    +0.000 C 
ATOM     16  N   UNL     1       4.660   1.978  20.021  0.00  0.00    +0.000 NA
ENDBRANCH   4  15
BRANCH   1  17
ATOM     17  S   UNL     1       1.635   8.316  19.673  0.00  0.00    +0.000 S 
BRANCH  17  18
ATOM     18  C   UNL     1       0.927   8.288  21.352  0.00  0.00    +0.000 C 
BRANCH  18  19
ATOM     19  C   UNL     1       1.611   9.244  22.330  0.00  0.00    +0.000 C 
BRANCH  19  21
ATOM     20  C   UNL     1      -0.613   9.811  22.873  0.00  0.00    +0.000 C 
ATOM     21  O   UNL     1       0.706   9.623  23.368  0.00  0.00    +0.000 OA
ENDBRANCH  19  21
ENDBRANCH  18  19
ENDBRANCH  17  18
ENDBRANCH   1  17
TORSDOF 6
ENDMDL
MODEL 3
REMARK VINA RESULT:      -6.7      3.082      6.533
REMARK  Name = 
REMARK  7 active torsions:
REMARK  status: ('A' for Active; 'I' for Inactive)
REMARK    1  A    between atoms: C_1  and  O_2
REMARK    2  A    between atoms: O_2  and  C_3
REMARK    3  A    between atoms: C_3  and  C_4
REMARK    4  A    between atoms: C_4  and  S_5
REMARK    5  A    between atoms: S_5  and  C_6
REMARK    6  A    between atoms: C_8  and  C_9
REMARK    7  A    between atoms: C_15  and  C_16
REMARK                            x       y       z     vdW  Elec       q    Type
REMARK                         _______ _______ _______ _____ _____    ______ ____
ROOT
ATOM      1  C   UNL     1       2.490   6.811  19.648  0.00  0.00    +0.000 A 
ATOM      2  N   UNL     1       3.432   6.531  18.814  0.00  0.00    +0.000 NA
ATOM      3  C   UNL     1       3.974   5.263  18.892  0.00  0.00    +0.000 A 
ATOM      4  C   UNL     1       3.607   4.325  19.788  0.00  0.00    +0.000 A 
ATOM      5  C   UNL     1       2.517   4.690  20.718  0.00  0.00    +0.000 A 
ATOM      6  O   UNL     1       2.077   3.919  21.563  0.00  0.00    +0.000 OA
ATOM      7  N   UNL     1       2.014   5.948  20.577  0.00  0.00    +0.000 N 
ATOM      8  H   UNL     1       1.261   6.238  21.183  0.00  0.00    +0.000 HD
ENDROOT
BRANCH   3   9
ATOM      9  C   UNL     1       5.007   4.950  17.881  0.00  0.00    +0.000 A 
ATOM     10  C   UNL     1       4.621   4.503  16.608  0.00  0.00    +0.000 A 
ATOM     11  C   UNL     1       5.586   4.154  15.662  0.00  0.00    +0.000 A 
ATOM     12  C   UNL     1       6.940   4.253  15.978  0.00  0.00    +0.000 A 
ATOM     13  C   UNL     1       7.332   4.710  17.235  0.00  0.00    +0.000 A 
ATOM     14  C   UNL     1       6.370   5.061  18.185  0.00  0.00    +0.000 A 
ENDBRANCH   3   9
BRANCH   4  15
ATOM     15  C   UNL     1       4.179   3.030  19.881  0.00  0.00    +0.000 C 
ATOM     16  N   UNL     1       4.657   1.976  19.980  0.00  0.00    +0.000 NA
ENDBRANCH   4  15
BRANCH   1  17
ATOM     17  S   UNL     1       1.697   8.346  19.720  0.00  0.00    +0.000 S 
BRANCH  17  18
ATOM     18  C   UNL     1       0.821   8.211  21.313  0.00  0.00    +0.000 C 
BRANCH  18  19
ATOM     19  C   UNL     1       1.290   9.215  22.367  0.00  0.00    +0.000 C 
BRANCH  19  21
ATOM     20  C   UNL     1      -0.661  10.396  22.964  0.00  0.00    +0.000 C 
ATOM     21  O   UNL     1       0.564  10.438  22.245  0.00  0.00    +0.000 OA
ENDBRANCH  19  21
ENDBRANCH  18  19
ENDBRANCH  17  18
ENDBRANCH   1  17
TORSDOF 6
ENDMDL
MODEL 4
REMARK VINA RESULT:      -6.6      0.403      1.158
REMARK  Name = 
REMARK  7 active torsions:
REMARK  status: ('A' for Active; 'I' for Inactive)
REMARK    1  A    between atoms: C_1  and  O_2
REMARK    2  A    between atoms: O_2  and  C_3
REMARK    3  A    between atoms: C_3  and  C_4
REMARK    4  A    between atoms: C_4  and  S_5
REMARK    5  A    between atoms: S_5  and  C_6
REMARK    6  A    between atoms: C_8  and  C_9
REMARK    7  A    between atoms: C_15  and  C_16
REMARK                            x       y       z     vdW  Elec       q    Type
REMARK                         _______ _______ _______ _____ _____    ______ ____
ROOT
ATOM      1  C   UNL     1       5.771   4.910  18.619  0.00  0.00    +0.000 A 
ATOM      2  N   UNL     1       4.981   5.927  18.612  0.00  0.00    +0.000 NA
ATOM      3  C   UNL     1       3.687   5.714  19.047  0.00  0.00    +0.000 A 
ATOM      4  C   UNL     1       3.199   4.522  19.445  0.00  0.00    +0.000 A 
ATOM      5  C   UNL     1       4.146   3.385  19.444  0.00  0.00    +0.000 A 
ATOM      6  O   UNL     1       3.832   2.257  19.805  0.00  0.00    +0.000 OA
ATOM      7  N   UNL     1       5.410   3.668  19.021  0.00  0.00    +0.000 N 
ATOM      8  H   UNL     1       6.094   2.926  19.013  0.00  0.00    +0.000 HD
ENDROOT
BRANCH   3   9
ATOM      9  C   UNL     1       2.823   6.913  19.089  0.00  0.00    +0.000 A 
ATOM     10  C   UNL     1       2.215   7.290  20.295  0.00  0.00    +0.000 A 
ATOM     11  C   UNL     1       1.355   8.389  20.337  0.00  0.00    +0.000 A 
ATOM     12  C   UNL     1       1.101   9.120  19.178  0.00  0.00    +0.000 A 
ATOM     13  C   UNL     1       1.714   8.761  17.978  0.00  0.00    +0.000 A 
ATOM     14  C   UNL     1       2.575   7.662  17.932  0.00  0.00    +0.000 A 
ENDBRANCH   3   9
BRANCH   4  15
ATOM     15  C   UNL     1       1.865   4.298  19.872  0.00  0.00    +0.000 C 
ATOM     16  N   UNL     1       0.781   4.098  20.240  0.00  0.00    +0.000 NA
ENDBRANCH   4  15
BRANCH   1  17
ATOM     17  S   UNL     1       7.419   4.971  18.097  0.00  0.00    +0.000 S 
BRANCH  17  18
ATOM     18  C   UNL     1       7.265   4.349  16.390  0.00  0.00    +0.000 C 
BRANCH  18  19
ATOM     19  C   UNL     1       6.489   5.280  15.458  0.00  0.00    +0.000 C 
BRANCH  19  21
ATOM     20  C   UNL     1       6.380   3.977  13.495  0.00  0.00    +0.000 C 
ATOM     21  O   UNL     1       6.944   5.127  14.113  0.00  0.00    +0.000 OA
ENDBRANCH  19  21
ENDBRANCH  18  19
ENDBRANCH  17  18
ENDBRANCH   1  17
TORSDOF 6
ENDMDL
MODEL 5
REMARK VINA RESULT:      -6.6      2.553      4.164
REMARK  Name = 
REMARK  7 active torsions:
REMARK  status: ('A' for Active; 'I' for Inactive)
REMARK    1  A    between atoms: C_1  and  O_2
REMARK    2  A    between atoms: O_2  and  C_3
REMARK    3  A    between atoms: C_3  and  C_4
REMARK    4  A    between atoms: C_4  and  S_5
REMARK    5  A    between atoms: S_5  and  C_6
REMARK    6  A    between atoms: C_8  and  C_9
REMARK    7  A    between atoms: C_15  and  C_16
REMARK                            x       y       z     vdW  Elec       q    Type
REMARK                         _______ _______ _______ _____ _____    ______ ____
ROOT
ATOM      1  C   UNL     1       4.510   5.334  16.748  0.00  0.00    +0.000 A 
ATOM      2  N   UNL     1       3.968   4.570  17.633  0.00  0.00    +0.000 NA
ATOM      3  C   UNL     1       3.195   5.186  18.598  0.00  0.00    +0.000 A 
ATOM      4  C   UNL     1       2.999   6.517  18.689  0.00  0.00    +0.000 A 
ATOM      5  C   UNL     1       3.635   7.352  17.646  0.00  0.00    +0.000 A 
ATOM      6  O   UNL     1       3.513   8.571  17.605  0.00  0.00    +0.000 OA
ATOM      7  N   UNL     1       4.367   6.680  16.715  0.00  0.00    +0.000 N 
ATOM      8  H   UNL     1       4.811   7.207  15.978  0.00  0.00    +0.000 HD
ENDROOT
BRANCH   3   9
ATOM      9  C   UNL     1       2.534   4.278  19.559  0.00  0.00    +0.000 A 
ATOM     10  C   UNL     1       1.257   3.773  19.273  0.00  0.00    +0.000 A 
ATOM     11  C   UNL     1       0.599   2.957  20.196  0.00  0.00    +0.000 A 
ATOM     12  C   UNL     1       1.213   2.637  21.405  0.00  0.00    +0.000 A 
ATOM     13  C   UNL     1       2.489   3.122  21.691  0.00  0.00    +0.000 A 
ATOM     14  C   UNL     1       3.150   3.939  20.771  0.00  0.00    +0.000 A 
ENDBRANCH   3   9
BRANCH   4  15
ATOM     15  C   UNL     1       2.222   7.151  19.692  0.00  0.00    +0.000 C 
ATOM     16  N   UNL     1       1.607   7.674  20.528  0.00  0.00    +0.000 NA
ENDBRANCH   4  15
BRANCH   1  17
ATOM     17  S   UNL     1       5.524   4.756  15.472  0.00  0.00    +0.000 S 
BRANCH  17  18
ATOM     18  C   UNL     1       7.094   4.505  16.362  0.00  0.00    +0.000 C 
BRANCH  18  19
ATOM     19  C   UNL     1       7.406   5.592  17.391  0.00  0.00    +0.000 C 
BRANCH  19  21
ATOM     20  C   UNL     1       7.781   7.904  17.670  0.00  0.00    +0.000 C 
ATOM     21  O   UNL     1       7.646   6.840  16.738  0.00  0.00    +0.000 OA
ENDBRANCH  19  21
ENDBRANCH  18  19
ENDBRANCH  17  18
ENDBRANCH   1  17
TORSDOF 6
ENDMDL
MODEL 6
REMARK VINA RESULT:      -6.5      3.016      6.399
REMARK  Name = 
REMARK  7 active torsions:
REMARK  status: ('A' for Active; 'I' for Inactive)
REMARK    1  A    between atoms: C_1  and  O_2
REMARK    2  A    between atoms: O_2  and  C_3
REMARK    3  A    between atoms: C_3  and  C_4
REMARK    4  A    between atoms: C_4  and  S_5
REMARK    5  A    between atoms: S_5  and  C_6
REMARK    6  A    between atoms: C_8  and  C_9
REMARK    7  A    between atoms: C_15  and  C_16
REMARK                            x       y       z     vdW  Elec       q    Type
REMARK                         _______ _______ _______ _____ _____    ______ ____
ROOT
ATOM      1  C   UNL     1       2.504   6.699  19.583  0.00  0.00    +0.000 A 
ATOM      2  N   UNL     1       3.428   6.393  18.738  0.00  0.00    +0.000 NA
ATOM      3  C   UNL     1       3.978   5.131  18.848  0.00  0.00    +0.000 A 
ATOM      4  C   UNL     1       3.637   4.224  19.785  0.00  0.00    +0.000 A 
ATOM      5  C   UNL     1       2.566   4.618  20.727  0.00  0.00    +0.000 A 
ATOM      6  O   UNL     1       2.150   3.875  21.609  0.00  0.00    +0.000 OA
ATOM      7  N   UNL     1       2.054   5.868  20.553  0.00  0.00    +0.000 N 
ATOM      8  H   UNL     1       1.314   6.176  21.165  0.00  0.00    +0.000 HD
ENDROOT
BRANCH   3   9
ATOM      9  C   UNL     1       4.989   4.787  17.825  0.00  0.00    +0.000 A 
ATOM     10  C   UNL     1       6.352   4.956  18.110  0.00  0.00    +0.000 A 
ATOM     11  C   UNL     1       7.314   4.686  17.135  0.00  0.00    +0.000 A 
ATOM     12  C   UNL     1       6.923   4.240  15.874  0.00  0.00    +0.000 A 
ATOM     13  C   UNL     1       5.571   4.055  15.587  0.00  0.00    +0.000 A 
ATOM     14  C   UNL     1       4.605   4.325  16.559  0.00  0.00    +0.000 A 
ENDBRANCH   3   9
BRANCH   4  15
ATOM     15  C   UNL     1       4.217   2.936  19.910  0.00  0.00    +0.000 C 
ATOM     16  N   UNL     1       4.713   1.889  20.000  0.00  0.00    +0.000 NA
ENDBRANCH   4  15
BRANCH   1  17
ATOM     17  S   UNL     1       1.705   8.232  19.619  0.00  0.00    +0.000 S 
BRANCH  17  18
ATOM     18  C   UNL     1       1.117   8.277  21.344  0.00  0.00    +0.000 C 
BRANCH  18  19
ATOM     19  C   UNL     1      -0.205   9.025  21.529  0.00  0.00    +0.000 C 
BRANCH  19  21
ATOM     20  C   UNL     1      -0.645  11.172  20.660  0.00  0.00    +0.000 C 
ATOM     21  O   UNL     1      -0.511   9.789  20.362  0.00  0.00    +0.000 OA
ENDBRANCH  19  21
ENDBRANCH  18  19
ENDBRANCH  17  18
ENDBRANCH   1  17
TORSDOF 6
ENDMDL
MODEL 7
REMARK VINA RESULT:      -6.5      2.958      5.925
REMARK  Name = 
REMARK  7 active torsions:
REMARK  status: ('A' for Active; 'I' for Inactive)
REMARK    1  A    between atoms: C_1  and  O_2
REMARK    2  A    between atoms: O_2  and  C_3
REMARK    3  A    between atoms: C_3  and  C_4
REMARK    4  A    between atoms: C_4  and  S_5
REMARK    5  A    between atoms: S_5  and  C_6
REMARK    6  A    between atoms: C_8  and  C_9
REMARK    7  A    between atoms: C_15  and  C_16
REMARK                            x       y       z     vdW  Elec       q    Type
REMARK                         _______ _______ _______ _____ _____    ______ ____
ROOT
ATOM      1  C   UNL     1       2.482   6.451  19.887  0.00  0.00    +0.000 A 
ATOM      2  N   UNL     1       3.400   6.214  19.015  0.00  0.00    +0.000 NA
ATOM      3  C   UNL     1       3.976   4.959  19.044  0.00  0.00    +0.000 A 
ATOM      4  C   UNL     1       3.664   3.992  19.931  0.00  0.00    +0.000 A 
ATOM      5  C   UNL     1       2.598   4.309  20.906  0.00  0.00    +0.000 A 
ATOM      6  O   UNL     1       2.208   3.508  21.748  0.00  0.00    +0.000 OA
ATOM      7  N   UNL     1       2.060   5.556  20.811  0.00  0.00    +0.000 N 
ATOM      8  H   UNL     1       1.322   5.814  21.450  0.00  0.00    +0.000 HD
ENDROOT
BRANCH   3   9
ATOM      9  C   UNL     1       4.980   4.695  17.991  0.00  0.00    +0.000 A 
ATOM     10  C   UNL     1       6.342   4.893  18.264  0.00  0.00    +0.000 A 
ATOM     11  C   UNL     1       7.296   4.699  17.263  0.00  0.00    +0.000 A 
ATOM     12  C   UNL     1       6.898   4.302  15.988  0.00  0.00    +0.000 A 
ATOM     13  C   UNL     1       5.547   4.088  15.713  0.00  0.00    +0.000 A 
ATOM     14  C   UNL     1       4.590   4.281  16.711  0.00  0.00    +0.000 A 
ENDBRANCH   3   9
BRANCH   4  15
ATOM     15  C   UNL     1       4.271   2.710  19.974  0.00  0.00    +0.000 C 
ATOM     16  N   UNL     1       4.786   1.671  20.024  0.00  0.00    +0.000 NA
ENDBRANCH   4  15
BRANCH   1  17
ATOM     17  S   UNL     1       1.654   7.964  20.022  0.00  0.00    +0.000 S 
BRANCH  17  18
ATOM     18  C   UNL     1       1.946   8.669  18.366  0.00  0.00    +0.000 C 
BRANCH  18  19
ATOM     19  C   UNL     1       1.334  10.056  18.165  0.00  0.00    +0.000 C 
BRANCH  19  21
ATOM     20  C   UNL     1      -0.479  11.356  18.929  0.00  0.00    +0.000 C 
ATOM     21  O   UNL     1      -0.037  10.055  18.565  0.00  0.00    +0.000 OA
ENDBRANCH  19  21
ENDBRANCH  18  19
ENDBRANCH  17  18
ENDBRANCH   1  17
TORSDOF 6
ENDMDL
MODEL 8
REMARK VINA RESULT:      -6.5      3.419      4.822
REMARK  Name = 
REMARK  7 active torsions:
REMARK  status: ('A' for Active; 'I' for Inactive)
REMARK    1  A    between atoms: C_1  and  O_2
REMARK    2  A    between atoms: O_2  and  C_3
REMARK    3  A    between atoms: C_3  and  C_4
REMARK    4  A    between atoms: C_4  and  S_5
REMARK    5  A    between atoms: S_5  and  C_6
REMARK    6  A    between atoms: C_8  and  C_9
REMARK    7  A    between atoms: C_15  and  C_16
REMARK                            x       y       z     vdW  Elec       q    Type
REMARK                         _______ _______ _______ _____ _____    ______ ____
ROOT
ATOM      1  C   UNL     1       6.050   4.101  14.666  0.00  0.00    +0.000 A 
ATOM      2  N   UNL     1       5.029   3.674  15.326  0.00  0.00    +0.000 NA
ATOM      3  C   UNL     1       4.953   4.035  16.658  0.00  0.00    +0.000 A 
ATOM      4  C   UNL     1       5.879   4.769  17.307  0.00  0.00    +0.000 A 
ATOM      5  C   UNL     1       7.028   5.244  16.505  0.00  0.00    +0.000 A 
ATOM      6  O   UNL     1       7.923   5.938  16.973  0.00  0.00    +0.000 OA
ATOM      7  N   UNL     1       7.032   4.868  15.196  0.00  0.00    +0.000 N 
ATOM      8  H   UNL     1       7.791   5.177  14.607  0.00  0.00    +0.000 HD
ENDROOT
BRANCH   3   9
ATOM      9  C   UNL     1       3.739   3.584  17.371  0.00  0.00    +0.000 A 
ATOM     10  C   UNL     1       3.691   2.291  17.912  0.00  0.00    +0.000 A 
ATOM     11  C   UNL     1       2.531   1.834  18.542  0.00  0.00    +0.000 A 
ATOM     12  C   UNL     1       1.417   2.665  18.639  0.00  0.00    +0.000 A 
ATOM     13  C   UNL     1       1.462   3.957  18.116  0.00  0.00    +0.000 A 
ATOM     14  C   UNL     1       2.619   4.418  17.486  0.00  0.00    +0.000 A 
ENDBRANCH   3   9
BRANCH   4  15
ATOM     15  C   UNL     1       5.811   5.123  18.679  0.00  0.00    +0.000 C 
ATOM     16  N   UNL     1       5.777   5.398  19.807  0.00  0.00    +0.000 NA
ENDBRANCH   4  15
BRANCH   1  17
ATOM     17  S   UNL     1       6.332   3.744  12.998  0.00  0.00    +0.000 S 
BRANCH  17  18
ATOM     18  C   UNL     1       4.624   3.562  12.388  0.00  0.00    +0.000 C 
BRANCH  18  19
ATOM     19  C   UNL     1       4.524   2.914  11.006  0.00  0.00    +0.000 C 
BRANCH  19  21
ATOM     20  C   UNL     1       3.017   4.144   9.673  0.00  0.00    +0.000 C 
ATOM     21  O   UNL     1       3.188   3.008  10.509  0.00  0.00    +0.000 OA
ENDBRANCH  19  21
ENDBRANCH  18  19
ENDBRANCH  17  18
ENDBRANCH   1  17
TORSDOF 6
ENDMDL
MODEL 9
REMARK VINA RESULT:      -6.5      2.968      5.891
REMARK  Name = 
REMARK  7 active torsions:
REMARK  status: ('A' for Active; 'I' for Inactive)
REMARK    1  A    between atoms: C_1  and  O_2
REMARK    2  A    between atoms: O_2  and  C_3
REMARK    3  A    between atoms: C_3  and  C_4
REMARK    4  A    between atoms: C_4  and  S_5
REMARK    5  A    between atoms: S_5  and  C_6
REMARK    6  A    between atoms: C_8  and  C_9
REMARK    7  A    between atoms: C_15  and  C_16
REMARK                            x       y       z     vdW  Elec       q    Type
REMARK                         _______ _______ _______ _____ _____    ______ ____
ROOT
ATOM      1  C   UNL     1       2.447   6.554  19.941  0.00  0.00    +0.000 A 
ATOM      2  N   UNL     1       3.377   6.339  19.074  0.00  0.00    +0.000 NA
ATOM      3  C   UNL     1       3.946   5.080  19.071  0.00  0.00    +0.000 A 
ATOM      4  C   UNL     1       3.616   4.088  19.922  0.00  0.00    +0.000 A 
ATOM      5  C   UNL     1       2.539   4.379  20.893  0.00  0.00    +0.000 A 
ATOM      6  O   UNL     1       2.133   3.554  21.704  0.00  0.00    +0.000 OA
ATOM      7  N   UNL     1       2.008   5.632  20.830  0.00  0.00    +0.000 N 
ATOM      8  H   UNL     1       1.263   5.874  21.466  0.00  0.00    +0.000 HD
ENDROOT
BRANCH   3   9
ATOM      9  C   UNL     1       4.963   4.844  18.024  0.00  0.00    +0.000 A 
ATOM     10  C   UNL     1       4.561   4.423  16.748  0.00  0.00    +0.000 A 
ATOM     11  C   UNL     1       5.514   4.145  15.766  0.00  0.00    +0.000 A 
ATOM     12  C   UNL     1       6.870   4.291  16.050  0.00  0.00    +0.000 A 
ATOM     13  C   UNL     1       7.277   4.724  17.311  0.00  0.00    +0.000 A 
ATOM     14  C   UNL     1       6.328   5.003  18.297  0.00  0.00    +0.000 A 
ENDBRANCH   3   9
BRANCH   4  15
ATOM     15  C   UNL     1       4.216   2.802  19.933  0.00  0.00    +0.000 C 
ATOM     16  N   UNL     1       4.730   1.760  19.937  0.00  0.00    +0.000 NA
ENDBRANCH   4  15
BRANCH   1  17
ATOM     17  S   UNL     1       1.626   8.066  20.112  0.00  0.00    +0.000 S 
BRANCH  17  18
ATOM     18  C   UNL     1       1.858   8.778  18.450  0.00  0.00    +0.000 C 
BRANCH  18  19
ATOM     19  C   UNL     1       0.884   9.909  18.118  0.00  0.00    +0.000 C 
BRANCH  19  21
ATOM     20  C   UNL     1      -1.361  10.487  18.550  0.00  0.00    +0.000 C 
ATOM     21  O   UNL     1      -0.154   9.974  19.097  0.00  0.00    +0.000 OA
ENDBRANCH  19  21
ENDBRANCH  18  19
ENDBRANCH  17  18
ENDBRANCH   1  17
TORSDOF 6
ENDMDL
