MODEL 1
REMARK VINA RESULT:      -7.3      0.000      0.000
REMARK  Name = 
REMARK  4 active torsions:
REMARK  status: ('A' for Active; 'I' for Inactive)
REMARK    1  A    between atoms: C_1  and  C_2
REMARK    2  A    between atoms: C_4  and  C_5
REMARK    3  A    between atoms: C_13  and  O_14
REMARK    4  A    between atoms: N_19  and  C_20
REMARK                            x       y       z     vdW  Elec       q    Type
REMARK                         _______ _______ _______ _____ _____    ______ ____
ROOT
ATOM      1  C   UNL     1       1.160   8.056  20.820  0.00  0.00    +0.000 C 
ATOM      2  C   UNL     1       1.834   6.762  20.454  0.00  0.00    +0.000 A 
ATOM      3  C   UNL     1       1.234   5.538  20.755  0.00  0.00    +0.000 A 
ATOM      4  C   UNL     1       1.836   4.319  20.392  0.00  0.00    +0.000 A 
ATOM      5  C   UNL     1       1.071   3.052  20.663  0.00  0.00    +0.000 C 
ATOM      6  C   UNL     1       3.089   4.336  19.739  0.00  0.00    +0.000 A 
ATOM      7  C   UNL     1       3.673   5.565  19.424  0.00  0.00    +0.000 A 
ATOM      8  C   UNL     1       3.071   6.770  19.794  0.00  0.00    +0.000 A 
ATOM      9  O   UNL     1       4.925   5.633  18.862  0.00  0.00    +0.000 OA
ATOM     10  C   UNL     1       5.015   5.171  17.574  0.00  0.00    +0.000 A 
ATOM     11  C   UNL     1       5.743   5.997  16.702  0.00  0.00    +0.000 A 
ATOM     12  C   UNL     1       5.957   5.620  15.375  0.00  0.00    +0.000 A 
ATOM     13  C   UNL     1       5.423   4.424  14.918  0.00  0.00    +0.000 A 
ATOM     14  C   UNL     1       4.713   3.588  15.772  0.00  0.00    +0.000 A 
ATOM     15  C   UNL     1       4.533   3.939  17.123  0.00  0.00    +0.000 A 
ATOM     16  C   UNL     1       4.086   2.857  18.038  0.00  0.00    +0.000 C 
ATOM     17  O   UNL     1       4.127   1.695  17.625  0.00  0.00    +0.000 OA
ATOM     18  N   UNL     1       3.721   3.134  19.349  0.00  0.00    +0.000 N 
ATOM     19  C   UNL     1       4.174   2.208  20.373  0.00  0.00    +0.000 C 
ENDROOT
BRANCH  13  20
ATOM     20  O   UNL     1       5.615   4.001  13.636  0.00  0.00    +0.000 OA
ATOM     21  H   UNL     1       6.456   4.357  13.307  0.00  0.00    +0.000 HD
ENDBRANCH  13  20
TORSDOF 1
ENDMDL
MODEL 2
REMARK VINA RESULT:      -7.1      2.676      5.435
REMARK  Name = 
REMARK  4 active torsions:
REMARK  status: ('A' for Active; 'I' for Inactive)
REMARK    1  A    between atoms: C_1  and  C_2
REMARK    2  A    between atoms: C_4  and  C_5
REMARK    3  A    between atoms: C_13  and  O_14
REMARK    4  A    between atoms: N_19  and  C_20
REMARK                            x       y       z     vdW  Elec       q    Type
REMARK                         _______ _______ _______ _____ _____    ______ ____
ROOT
ATOM      1  C   UNL     1       1.083   2.447  21.251  0.00  0.00    +0.000 C 
ATOM      2  C   UNL     1       1.780   3.486  20.415  0.00  0.00    +0.000 A 
ATOM      3  C   UNL     1       2.395   3.135  19.213  0.00  0.00    +0.000 A 
ATOM      4  C   UNL     1       3.025   4.098  18.404  0.00  0.00    +0.000 A 
ATOM      5  C   UNL     1       3.572   3.650  17.075  0.00  0.00    +0.000 C 
ATOM      6  C   UNL     1       3.064   5.443  18.837  0.00  0.00    +0.000 A 
ATOM      7  C   UNL     1       2.430   5.789  20.031  0.00  0.00    +0.000 A 
ATOM      8  C   UNL     1       1.812   4.824  20.831  0.00  0.00    +0.000 A 
ATOM      9  O   UNL     1       2.508   7.066  20.534  0.00  0.00    +0.000 OA
ATOM     10  C   UNL     1       1.841   8.022  19.811  0.00  0.00    +0.000 A 
ATOM     11  C   UNL     1       1.069   8.909  20.579  0.00  0.00    +0.000 A 
ATOM     12  C   UNL     1       0.381   9.962  19.975  0.00  0.00    +0.000 A 
ATOM     13  C   UNL     1       0.450  10.113  18.598  0.00  0.00    +0.000 A 
ATOM     14  C   UNL     1       1.221   9.252  17.825  0.00  0.00    +0.000 A 
ATOM     15  C   UNL     1       1.955   8.217  18.431  0.00  0.00    +0.000 A 
ATOM     16  C   UNL     1       3.013   7.578  17.606  0.00  0.00    +0.000 C 
ATOM     17  O   UNL     1       3.339   8.131  16.552  0.00  0.00    +0.000 OA
ATOM     18  N   UNL     1       3.678   6.443  18.048  0.00  0.00    +0.000 N 
ATOM     19  C   UNL     1       5.113   6.385  17.826  0.00  0.00    +0.000 C 
ENDROOT
BRANCH  13  20
ATOM     20  O   UNL     1      -0.190  11.133  17.959  0.00  0.00    +0.000 OA
ATOM     21  H   UNL     1      -0.816  11.548  18.573  0.00  0.00    +0.000 HD
ENDBRANCH  13  20
TORSDOF 1
ENDMDL
MODEL 3
REMARK VINA RESULT:      -6.8      1.875      3.548
REMARK  Name = 
REMARK  4 active torsions:
REMARK  status: ('A' for Active; 'I' for Inactive)
REMARK    1  A    between atoms: C_1  and  C_2
REMARK    2  A    between atoms: C_4  and  C_5
REMARK    3  A    between atoms: C_13  and  O_14
REMARK    4  A    between atoms: N_19  and  C_20
REMARK                            x       y       z     vdW  Elec       q    Type
REMARK                         _______ _______ _______ _____ _____    ______ ____
ROOT
ATOM      1  C   UNL     1       1.468   2.514  21.616  0.00  0.00    +0.000 C 
ATOM      2  C   UNL     1       1.757   3.678  20.708  0.00  0.00    +0.000 A 
ATOM      3  C   UNL     1       1.646   4.988  21.175  0.00  0.00    +0.000 A 
ATOM      4  C   UNL     1       1.942   6.088  20.349  0.00  0.00    +0.000 A 
ATOM      5  C   UNL     1       1.895   7.461  20.964  0.00  0.00    +0.000 C 
ATOM      6  C   UNL     1       2.327   5.859  19.009  0.00  0.00    +0.000 A 
ATOM      7  C   UNL     1       2.456   4.545  18.555  0.00  0.00    +0.000 A 
ATOM      8  C   UNL     1       2.154   3.459  19.381  0.00  0.00    +0.000 A 
ATOM      9  O   UNL     1       2.750   4.273  17.240  0.00  0.00    +0.000 OA
ATOM     10  C   UNL     1       4.015   4.618  16.840  0.00  0.00    +0.000 A 
ATOM     11  C   UNL     1       4.680   3.640  16.083  0.00  0.00    +0.000 A 
ATOM     12  C   UNL     1       5.954   3.881  15.566  0.00  0.00    +0.000 A 
ATOM     13  C   UNL     1       6.570   5.097  15.828  0.00  0.00    +0.000 A 
ATOM     14  C   UNL     1       5.919   6.081  16.563  0.00  0.00    +0.000 A 
ATOM     15  C   UNL     1       4.617   5.863  17.047  0.00  0.00    +0.000 A 
ATOM     16  C   UNL     1       3.866   7.061  17.504  0.00  0.00    +0.000 C 
ATOM     17  O   UNL     1       4.321   8.172  17.221  0.00  0.00    +0.000 OA
ATOM     18  N   UNL     1       2.643   6.937  18.150  0.00  0.00    +0.000 N 
ATOM     19  C   UNL     1       1.597   7.873  17.776  0.00  0.00    +0.000 C 
ENDROOT
BRANCH  13  20
ATOM     20  O   UNL     1       7.806   5.391  15.335  0.00  0.00    +0.000 OA
ATOM     21  H   UNL     1       8.144   4.623  14.847  0.00  0.00    +0.000 HD
ENDBRANCH  13  20
TORSDOF 1
ENDMDL
MODEL 4
REMARK VINA RESULT:      -6.8      2.016      5.806
REMARK  Name = 
REMARK  4 active torsions:
REMARK  status: ('A' for Active; 'I' for Inactive)
REMARK    1  A    between atoms: C_1  and  C_2
REMARK    2  A    between atoms: C_4  and  C_5
REMARK    3  A    between atoms: C_13  and  O_14
REMARK    4  A    between atoms: N_19  and  C_20
REMARK                            x       y       z     vdW  Elec       q    Type
REMARK                         _______ _______ _______ _____ _____    ______ ____
ROOT
ATOM      1  C   UNL     1       6.335   3.894  13.007  0.00  0.00    +0.000 C 
ATOM      2  C   UNL     1       6.118   4.234  14.455  0.00  0.00    +0.000 A 
ATOM      3  C   UNL     1       6.481   5.486  14.954  0.00  0.00    +0.000 A 
ATOM      4  C   UNL     1       6.257   5.832  16.298  0.00  0.00    +0.000 A 
ATOM      5  C   UNL     1       6.584   7.238  16.725  0.00  0.00    +0.000 C 
ATOM      6  C   UNL     1       5.684   4.879  17.170  0.00  0.00    +0.000 A 
ATOM      7  C   UNL     1       5.306   3.636  16.659  0.00  0.00    +0.000 A 
ATOM      8  C   UNL     1       5.537   3.299  15.323  0.00  0.00    +0.000 A 
ATOM      9  O   UNL     1       4.818   2.648  17.482  0.00  0.00    +0.000 OA
ATOM     10  C   UNL     1       3.580   2.892  18.020  0.00  0.00    +0.000 A 
ATOM     11  C   UNL     1       2.689   1.808  17.963  0.00  0.00    +0.000 A 
ATOM     12  C   UNL     1       1.414   1.902  18.522  0.00  0.00    +0.000 A 
ATOM     13  C   UNL     1       1.024   3.093  19.119  0.00  0.00    +0.000 A 
ATOM     14  C   UNL     1       1.900   4.170  19.197  0.00  0.00    +0.000 A 
ATOM     15  C   UNL     1       3.203   4.067  18.678  0.00  0.00    +0.000 A 
ATOM     16  C   UNL     1       4.175   5.106  19.106  0.00  0.00    +0.000 C 
ATOM     17  O   UNL     1       3.862   5.839  20.047  0.00  0.00    +0.000 OA
ATOM     18  N   UNL     1       5.433   5.191  18.526  0.00  0.00    +0.000 N 
ATOM     19  C   UNL     1       6.557   5.447  19.411  0.00  0.00    +0.000 C 
ENDROOT
BRANCH  13  20
ATOM     20  O   UNL     1      -0.203   3.234  19.693  0.00  0.00    +0.000 OA
ATOM     21  H   UNL     1      -0.708   2.414  19.569  0.00  0.00    +0.000 HD
ENDBRANCH  13  20
TORSDOF 1
ENDMDL
MODEL 5
REMARK VINA RESULT:      -6.7      5.061      8.003
REMARK  Name = 
REMARK  4 active torsions:
REMARK  status: ('A' for Active; 'I' for Inactive)
REMARK    1  A    between atoms: C_1  and  C_2
REMARK    2  A    between atoms: C_4  and  C_5
REMARK    3  A    between atoms: C_13  and  O_14
REMARK    4  A    between atoms: N_19  and  C_20
REMARK                            x       y       z     vdW  Elec       q    Type
REMARK                         _______ _______ _______ _____ _____    ______ ____
ROOT
ATOM      1  C   UNL     1      -4.173  11.383  16.684  0.00  0.00    +0.000 C 
ATOM      2  C   UNL     1      -3.108  11.466  17.743  0.00  0.00    +0.000 A 
ATOM      3  C   UNL     1      -3.407  11.957  19.014  0.00  0.00    +0.000 A 
ATOM      4  C   UNL     1      -2.431  12.014  20.025  0.00  0.00    +0.000 A 
ATOM      5  C   UNL     1      -2.865  12.460  21.396  0.00  0.00    +0.000 C 
ATOM      6  C   UNL     1      -1.112  11.596  19.736  0.00  0.00    +0.000 A 
ATOM      7  C   UNL     1      -0.826  11.088  18.467  0.00  0.00    +0.000 A 
ATOM      8  C   UNL     1      -1.801  11.041  17.467  0.00  0.00    +0.000 A 
ATOM      9  O   UNL     1       0.457  10.743  18.112  0.00  0.00    +0.000 OA
ATOM     10  C   UNL     1       0.967   9.644  18.754  0.00  0.00    +0.000 A 
ATOM     11  C   UNL     1       1.626   8.728  17.919  0.00  0.00    +0.000 A 
ATOM     12  C   UNL     1       2.238   7.591  18.449  0.00  0.00    +0.000 A 
ATOM     13  C   UNL     1       2.170   7.362  19.816  0.00  0.00    +0.000 A 
ATOM     14  C   UNL     1       1.533   8.267  20.659  0.00  0.00    +0.000 A 
ATOM     15  C   UNL     1       0.955   9.439  20.137  0.00  0.00    +0.000 A 
ATOM     16  C   UNL     1       0.617  10.506  21.114  0.00  0.00    +0.000 C 
ATOM     17  O   UNL     1       1.065  10.407  22.259  0.00  0.00    +0.000 OA
ATOM     18  N   UNL     1      -0.105  11.627  20.727  0.00  0.00    +0.000 N 
ATOM     19  C   UNL     1       0.328  12.910  21.253  0.00  0.00    +0.000 C 
ENDROOT
BRANCH  13  20
ATOM     20  O   UNL     1       2.763   6.277  20.388  0.00  0.00    +0.000 OA
ATOM     21  H   UNL     1       2.134   5.537  20.390  0.00  0.00    +0.000 HD
ENDBRANCH  13  20
TORSDOF 1
ENDMDL
MODEL 6
REMARK VINA RESULT:      -6.6      2.488      5.584
REMARK  Name = 
REMARK  4 active torsions:
REMARK  status: ('A' for Active; 'I' for Inactive)
REMARK    1  A    between atoms: C_1  and  C_2
REMARK    2  A    between atoms: C_4  and  C_5
REMARK    3  A    between atoms: C_13  and  O_14
REMARK    4  A    between atoms: N_19  and  C_20
REMARK                            x       y       z     vdW  Elec       q    Type
REMARK                         _______ _______ _______ _____ _____    ______ ____
ROOT
ATOM      1  C   UNL     1       7.458   6.530  17.047  0.00  0.00    +0.000 C 
ATOM      2  C   UNL     1       6.143   6.014  17.563  0.00  0.00    +0.000 A 
ATOM      3  C   UNL     1       6.051   4.740  18.127  0.00  0.00    +0.000 A 
ATOM      4  C   UNL     1       4.836   4.254  18.642  0.00  0.00    +0.000 A 
ATOM      5  C   UNL     1       4.851   2.913  19.325  0.00  0.00    +0.000 C 
ATOM      6  C   UNL     1       3.678   5.059  18.554  0.00  0.00    +0.000 A 
ATOM      7  C   UNL     1       3.783   6.339  18.007  0.00  0.00    +0.000 A 
ATOM      8  C   UNL     1       4.993   6.812  17.492  0.00  0.00    +0.000 A 
ATOM      9  O   UNL     1       2.672   7.128  17.828  0.00  0.00    +0.000 OA
ATOM     10  C   UNL     1       2.085   7.583  18.980  0.00  0.00    +0.000 A 
ATOM     11  C   UNL     1       1.742   8.945  18.967  0.00  0.00    +0.000 A 
ATOM     12  C   UNL     1       1.089   9.527  20.055  0.00  0.00    +0.000 A 
ATOM     13  C   UNL     1       0.801   8.747  21.166  0.00  0.00    +0.000 A 
ATOM     14  C   UNL     1       1.120   7.394  21.188  0.00  0.00    +0.000 A 
ATOM     15  C   UNL     1       1.735   6.790  20.077  0.00  0.00    +0.000 A 
ATOM     16  C   UNL     1       1.721   5.305  20.032  0.00  0.00    +0.000 C 
ATOM     17  O   UNL     1       0.987   4.709  20.824  0.00  0.00    +0.000 OA
ATOM     18  N   UNL     1       2.440   4.610  19.069  0.00  0.00    +0.000 N 
ATOM     19  C   UNL     1       1.792   3.466  18.453  0.00  0.00    +0.000 C 
ENDROOT
BRANCH  13  20
ATOM     20  O   UNL     1       0.152   9.260  22.249  0.00  0.00    +0.000 OA
ATOM     21  H   UNL     1      -0.329   8.546  22.699  0.00  0.00    +0.000 HD
ENDBRANCH  13  20
TORSDOF 1
ENDMDL
MODEL 7
REMARK VINA RESULT:      -6.6      2.228      4.942
REMARK  Name = 
REMARK  4 active torsions:
REMARK  status: ('A' for Active; 'I' for Inactive)
REMARK    1  A    between atoms: C_1  and  C_2
REMARK    2  A    between atoms: C_4  and  C_5
REMARK    3  A    between atoms: C_13  and  O_14
REMARK    4  A    between atoms: N_19  and  C_20
REMARK                            x       y       z     vdW  Elec       q    Type
REMARK                         _______ _______ _______ _____ _____    ______ ____
ROOT
ATOM      1  C   UNL     1       1.898   9.700  17.826  0.00  0.00    +0.000 C 
ATOM      2  C   UNL     1       2.562   8.353  17.742  0.00  0.00    +0.000 A 
ATOM      3  C   UNL     1       3.916   8.247  17.419  0.00  0.00    +0.000 A 
ATOM      4  C   UNL     1       4.560   6.998  17.366  0.00  0.00    +0.000 A 
ATOM      5  C   UNL     1       6.043   6.983  17.112  0.00  0.00    +0.000 C 
ATOM      6  C   UNL     1       3.812   5.825  17.612  0.00  0.00    +0.000 A 
ATOM      7  C   UNL     1       2.463   5.941  17.954  0.00  0.00    +0.000 A 
ATOM      8  C   UNL     1       1.830   7.186  17.998  0.00  0.00    +0.000 A 
ATOM      9  O   UNL     1       1.674   4.828  18.125  0.00  0.00    +0.000 OA
ATOM     10  C   UNL     1       1.969   4.065  19.225  0.00  0.00    +0.000 A 
ATOM     11  C   UNL     1       0.853   3.660  19.976  0.00  0.00    +0.000 A 
ATOM     12  C   UNL     1       1.005   2.835  21.092  0.00  0.00    +0.000 A 
ATOM     13  C   UNL     1       2.280   2.434  21.467  0.00  0.00    +0.000 A 
ATOM     14  C   UNL     1       3.393   2.814  20.725  0.00  0.00    +0.000 A 
ATOM     15  C   UNL     1       3.243   3.606  19.573  0.00  0.00    +0.000 A 
ATOM     16  C   UNL     1       4.408   3.671  18.653  0.00  0.00    +0.000 C 
ATOM     17  O   UNL     1       5.326   2.865  18.823  0.00  0.00    +0.000 OA
ATOM     18  N   UNL     1       4.424   4.551  17.579  0.00  0.00    +0.000 N 
ATOM     19  C   UNL     1       4.948   4.052  16.319  0.00  0.00    +0.000 C 
ENDROOT
BRANCH  13  20
ATOM     20  O   UNL     1       2.484   1.617  22.538  0.00  0.00    +0.000 OA
ATOM     21  H   UNL     1       3.286   1.090  22.387  0.00  0.00    +0.000 HD
ENDBRANCH  13  20
TORSDOF 1
ENDMDL
MODEL 8
REMARK VINA RESULT:      -6.6      2.435      5.230
REMARK  Name = 
REMARK  4 active torsions:
REMARK  status: ('A' for Active; 'I' for Inactive)
REMARK    1  A    between atoms: C_1  and  C_2
REMARK    2  A    between atoms: C_4  and  C_5
REMARK    3  A    between atoms: C_13  and  O_14
REMARK    4  A    between atoms: N_19  and  C_20
REMARK                            x       y       z     vdW  Elec       q    Type
REMARK                         _______ _______ _______ _____ _____    ______ ____
ROOT
ATOM      1  C   UNL     1       0.698   1.713  19.200  0.00  0.00    +0.000 C 
ATOM      2  C   UNL     1       1.682   2.801  18.868  0.00  0.00    +0.000 A 
ATOM      3  C   UNL     1       2.588   2.645  17.818  0.00  0.00    +0.000 A 
ATOM      4  C   UNL     1       3.493   3.665  17.474  0.00  0.00    +0.000 A 
ATOM      5  C   UNL     1       4.363   3.452  16.265  0.00  0.00    +0.000 C 
ATOM      6  C   UNL     1       3.507   4.858  18.231  0.00  0.00    +0.000 A 
ATOM      7  C   UNL     1       2.584   5.015  19.266  0.00  0.00    +0.000 A 
ATOM      8  C   UNL     1       1.692   3.994  19.604  0.00  0.00    +0.000 A 
ATOM      9  O   UNL     1       2.610   6.123  20.080  0.00  0.00    +0.000 OA
ATOM     10  C   UNL     1       2.252   7.301  19.477  0.00  0.00    +0.000 A 
ATOM     11  C   UNL     1       1.361   8.094  20.218  0.00  0.00    +0.000 A 
ATOM     12  C   UNL     1       0.956   9.343  19.746  0.00  0.00    +0.000 A 
ATOM     13  C   UNL     1       1.428   9.788  18.519  0.00  0.00    +0.000 A 
ATOM     14  C   UNL     1       2.323   9.021  17.780  0.00  0.00    +0.000 A 
ATOM     15  C   UNL     1       2.772   7.782  18.271  0.00  0.00    +0.000 A 
ATOM     16  C   UNL     1       3.971   7.200  17.615  0.00  0.00    +0.000 C 
ATOM     17  O   UNL     1       4.626   7.923  16.860  0.00  0.00    +0.000 OA
ATOM     18  N   UNL     1       4.395   5.911  17.911  0.00  0.00    +0.000 N 
ATOM     19  C   UNL     1       5.824   5.701  18.062  0.00  0.00    +0.000 C 
ENDROOT
BRANCH  13  20
ATOM     20  O   UNL     1       1.077  11.005  18.017  0.00  0.00    +0.000 OA
ATOM     21  H   UNL     1       0.687  11.540  18.728  0.00  0.00    +0.000 HD
ENDBRANCH  13  20
TORSDOF 1
ENDMDL
MODEL 9
REMARK VINA RESULT:      -6.5      2.359      3.855
REMARK  Name = 
REMARK  4 active torsions:
REMARK  status: ('A' for Active; 'I' for Inactive)
REMARK    1  A    between atoms: C_1  and  C_2
REMARK    2  A    between atoms: C_4  and  C_5
REMARK    3  A    between atoms: C_13  and  O_14
REMARK    4  A    between atoms: N_19  and  C_20
REMARK                            x       y       z     vdW  Elec       q    Type
REMARK                         _______ _______ _______ _____ _____    ______ ____
ROOT
ATOM      1  C   UNL     1       2.193   3.157  21.859  0.00  0.00    +0.000 C 
ATOM      2  C   UNL     1       2.738   3.514  20.503  0.00  0.00    +0.000 A 
ATOM      3  C   UNL     1       1.879   3.721  19.423  0.00  0.00    +0.000 A 
ATOM      4  C   UNL     1       2.369   4.086  18.156  0.00  0.00    +0.000 A 
ATOM      5  C   UNL     1       1.366   4.390  17.076  0.00  0.00    +0.000 C 
ATOM      6  C   UNL     1       3.764   4.211  17.967  0.00  0.00    +0.000 A 
ATOM      7  C   UNL     1       4.615   4.022  19.056  0.00  0.00    +0.000 A 
ATOM      8  C   UNL     1       4.120   3.654  20.310  0.00  0.00    +0.000 A 
ATOM      9  O   UNL     1       5.981   4.055  18.905  0.00  0.00    +0.000 OA
ATOM     10  C   UNL     1       6.508   5.285  18.607  0.00  0.00    +0.000 A 
ATOM     11  C   UNL     1       7.649   5.632  19.348  0.00  0.00    +0.000 A 
ATOM     12  C   UNL     1       8.318   6.834  19.108  0.00  0.00    +0.000 A 
ATOM     13  C   UNL     1       7.828   7.697  18.139  0.00  0.00    +0.000 A 
ATOM     14  C   UNL     1       6.708   7.362  17.386  0.00  0.00    +0.000 A 
ATOM     15  C   UNL     1       6.057   6.132  17.590  0.00  0.00    +0.000 A 
ATOM     16  C   UNL     1       5.109   5.696  16.531  0.00  0.00    +0.000 C 
ATOM     17  O   UNL     1       5.125   6.300  15.456  0.00  0.00    +0.000 OA
ATOM     18  N   UNL     1       4.296   4.586  16.712  0.00  0.00    +0.000 N 
ATOM     19  C   UNL     1       4.139   3.687  15.581  0.00  0.00    +0.000 C 
ENDROOT
BRANCH  13  20
ATOM     20  O   UNL     1       8.450   8.876  17.854  0.00  0.00    +0.000 OA
ATOM     21  H   UNL     1       8.340   9.072  16.909  0.00  0.00    +0.000 HD
ENDBRANCH  13  20
TORSDOF 1
ENDMDL
