MODEL 1
REMARK VINA RESULT:      -6.7      0.000      0.000
REMARK  Name = 
REMARK  8 active torsions:
REMARK  status: ('A' for Active; 'I' for Inactive)
REMARK    1  A    between atoms: C_1  and  C_2
REMARK    2  A    between atoms: C_3  and  N_4
REMARK    3  A    between atoms: C_5  and  O_6
REMARK    4  A    between atoms: O_6  and  C_7
REMARK    5  A    between atoms: C_12  and  C_13
REMARK    6  A    between atoms: C_13  and  C_14
REMARK    7  A    between atoms: C_14  and  O_16
REMARK    8  A    between atoms: C_19  and  C_20
REMARK                            x       y       z     vdW  Elec       q    Type
REMARK                         _______ _______ _______ _____ _____    ______ ____
ROOT
ATOM      1  C   UNL     1       1.592   2.615  20.170  0.00  0.00    +0.000 C 
ATOM      2  C   UNL     1       2.248   3.758  19.427  0.00  0.00    +0.000 A 
ATOM      3  C   UNL     1       2.168   5.093  19.882  0.00  0.00    +0.000 A 
ATOM      4  C   UNL     1       2.984   6.078  19.275  0.00  0.00    +0.000 A 
ATOM      5  C   UNL     1       3.846   5.734  18.216  0.00  0.00    +0.000 A 
ATOM      6 CL   UNL     1       5.090   6.840  17.699  0.00  0.00    +0.000 Cl
ATOM      7  C   UNL     1       3.751   4.473  17.606  0.00  0.00    +0.000 A 
ATOM      8  C   UNL     1       4.453   4.173  16.303  0.00  0.00    +0.000 C 
ATOM      9  C   UNL     1       2.990   3.480  18.255  0.00  0.00    +0.000 A 
ATOM     10 CL   UNL     1       3.003   1.856  17.619  0.00  0.00    +0.000 Cl
ENDROOT
BRANCH   3  11
ATOM     11  N   UNL     1       1.465   5.415  21.062  0.00  0.00    +0.000 N 
ATOM     12  H   UNL     1       1.624   4.787  21.843  0.00  0.00    +0.000 HD
ATOM     13  H   UNL     1       0.474   5.583  20.906  0.00  0.00    +0.000 HD
ENDBRANCH   3  11
BRANCH   4  14
ATOM     14  O   UNL     1       2.893   7.360  19.807  0.00  0.00    +0.000 OA
BRANCH  14  15
ATOM     15  C   UNL     1       1.926   8.230  19.327  0.00  0.00    +0.000 A 
ATOM     16  C   UNL     1       1.661   8.419  17.962  0.00  0.00    +0.000 A 
ATOM     17  C   UNL     1       0.759   9.397  17.539  0.00  0.00    +0.000 A 
ATOM     18  C   UNL     1       0.054  10.147  18.473  0.00  0.00    +0.000 A 
ATOM     19  C   UNL     1       0.244   9.912  19.833  0.00  0.00    +0.000 A 
ATOM     20  C   UNL     1       1.182   8.959  20.278  0.00  0.00    +0.000 A 
BRANCH  20  21
ATOM     21  C   UNL     1       1.319   8.729  21.768  0.00  0.00    +0.000 C 
BRANCH  21  22
ATOM     22  C   UNL     1       0.158   9.184  22.629  0.00  0.00    +0.000 C 
ATOM     23  O   UNL     1       0.201  10.218  23.288  0.00  0.00    +0.000 OA
BRANCH  22  24
ATOM     24  O   UNL     1      -0.948   8.410  22.632  0.00  0.00    +0.000 OA
ATOM     25  H   UNL     1      -0.818   7.499  22.306  0.00  0.00    +0.000 HD
ENDBRANCH  22  24
ENDBRANCH  21  22
ENDBRANCH  20  21
ENDBRANCH  14  15
ENDBRANCH   4  14
TORSDOF 6
ENDMDL
MODEL 2
REMARK VINA RESULT:      -6.7      4.048      6.694
REMARK  Name = 
REMARK  8 active torsions:
REMARK  status: ('A' for Active; 'I' for Inactive)
REMARK    1  A    between atoms: C_1  and  C_2
REMARK    2  A    between atoms: C_3  and  N_4
REMARK    3  A    between atoms: C_5  and  O_6
REMARK    4  A    between atoms: O_6  and  C_7
REMARK    5  A    between atoms: C_12  and  C_13
REMARK    6  A    between atoms: C_13  and  C_14
REMARK    7  A    between atoms: C_14  and  O_16
REMARK    8  A    between atoms: C_19  and  C_20
REMARK                            x       y       z     vdW  Elec       q    Type
REMARK                         _______ _______ _______ _____ _____    ______ ____
ROOT
ATOM      1  C   UNL     1       1.629   1.437  19.128  0.00  0.00    +0.000 C 
ATOM      2  C   UNL     1       2.360   2.756  19.006  0.00  0.00    +0.000 A 
ATOM      3  C   UNL     1       3.592   2.870  18.324  0.00  0.00    +0.000 A 
ATOM      4  C   UNL     1       4.110   4.159  18.050  0.00  0.00    +0.000 A 
ATOM      5  C   UNL     1       3.418   5.310  18.472  0.00  0.00    +0.000 A 
ATOM      6 CL   UNL     1       3.854   6.878  17.849  0.00  0.00    +0.000 Cl
ATOM      7  C   UNL     1       2.329   5.199  19.352  0.00  0.00    +0.000 A 
ATOM      8  C   UNL     1       1.746   6.409  20.041  0.00  0.00    +0.000 C 
ATOM      9  C   UNL     1       1.779   3.919  19.565  0.00  0.00    +0.000 A 
ATOM     10 CL   UNL     1       0.317   3.773  20.506  0.00  0.00    +0.000 Cl
ENDROOT
BRANCH   3  11
ATOM     11  N   UNL     1       4.195   1.745  17.725  0.00  0.00    +0.000 N 
ATOM     12  H   UNL     1       5.170   1.598  17.967  0.00  0.00    +0.000 HD
ATOM     13  H   UNL     1       4.042   1.694  16.721  0.00  0.00    +0.000 HD
ENDBRANCH   3  11
BRANCH   4  14
ATOM     14  O   UNL     1       5.300   4.199  17.330  0.00  0.00    +0.000 OA
BRANCH  14  15
ATOM     15  C   UNL     1       6.286   5.105  17.691  0.00  0.00    +0.000 A 
ATOM     16  C   UNL     1       6.873   5.145  18.965  0.00  0.00    +0.000 A 
ATOM     17  C   UNL     1       7.772   6.157  19.306  0.00  0.00    +0.000 A 
ATOM     18  C   UNL     1       8.156   7.096  18.356  0.00  0.00    +0.000 A 
ATOM     19  C   UNL     1       7.646   7.020  17.063  0.00  0.00    +0.000 A 
ATOM     20  C   UNL     1       6.704   6.031  16.714  0.00  0.00    +0.000 A 
BRANCH  20  21
ATOM     21  C   UNL     1       6.212   5.981  15.283  0.00  0.00    +0.000 C 
BRANCH  21  22
ATOM     22  C   UNL     1       6.903   4.992  14.368  0.00  0.00    +0.000 C 
ATOM     23  O   UNL     1       7.873   5.303  13.683  0.00  0.00    +0.000 OA
BRANCH  22  24
ATOM     24  O   UNL     1       6.420   3.732  14.344  0.00  0.00    +0.000 OA
ATOM     25  H   UNL     1       7.032   3.046  14.672  0.00  0.00    +0.000 HD
ENDBRANCH  22  24
ENDBRANCH  21  22
ENDBRANCH  20  21
ENDBRANCH  14  15
ENDBRANCH   4  14
TORSDOF 6
ENDMDL
MODEL 3
REMARK VINA RESULT:      -6.5      3.834      6.237
REMARK  Name = 
REMARK  8 active torsions:
REMARK  status: ('A' for Active; 'I' for Inactive)
REMARK    1  A    between atoms: C_1  and  C_2
REMARK    2  A    between atoms: C_3  and  N_4
REMARK    3  A    between atoms: C_5  and  O_6
REMARK    4  A    between atoms: O_6  and  C_7
REMARK    5  A    between atoms: C_12  and  C_13
REMARK    6  A    between atoms: C_13  and  C_14
REMARK    7  A    between atoms: C_14  and  O_16
REMARK    8  A    between atoms: C_19  and  C_20
REMARK                            x       y       z     vdW  Elec       q    Type
REMARK                         _______ _______ _______ _____ _____    ______ ____
ROOT
ATOM      1  C   UNL     1       1.166   2.160  19.956  0.00  0.00    +0.000 C 
ATOM      2  C   UNL     1       2.179   3.248  19.670  0.00  0.00    +0.000 A 
ATOM      3  C   UNL     1       3.466   2.959  19.165  0.00  0.00    +0.000 A 
ATOM      4  C   UNL     1       4.280   4.024  18.708  0.00  0.00    +0.000 A 
ATOM      5  C   UNL     1       3.821   5.352  18.778  0.00  0.00    +0.000 A 
ATOM      6 CL   UNL     1       4.652   6.618  17.914  0.00  0.00    +0.000 Cl
ATOM      7  C   UNL     1       2.655   5.662  19.496  0.00  0.00    +0.000 A 
ATOM      8  C   UNL     1       2.289   7.089  19.828  0.00  0.00    +0.000 C 
ATOM      9  C   UNL     1       1.817   4.598  19.887  0.00  0.00    +0.000 A 
ATOM     10 CL   UNL     1       0.275   4.962  20.617  0.00  0.00    +0.000 Cl
ENDROOT
BRANCH   3  11
ATOM     11  N   UNL     1       3.861   1.631  18.905  0.00  0.00    +0.000 N 
ATOM     12  H   UNL     1       3.120   0.940  18.972  0.00  0.00    +0.000 HD
ATOM     13  H   UNL     1       4.691   1.349  19.422  0.00  0.00    +0.000 HD
ENDBRANCH   3  11
BRANCH   4  14
ATOM     14  O   UNL     1       5.514   3.664  18.175  0.00  0.00    +0.000 OA
BRANCH  14  15
ATOM     15  C   UNL     1       5.858   4.091  16.901  0.00  0.00    +0.000 A 
ATOM     16  C   UNL     1       4.976   4.063  15.810  0.00  0.00    +0.000 A 
ATOM     17  C   UNL     1       5.417   4.392  14.527  0.00  0.00    +0.000 A 
ATOM     18  C   UNL     1       6.723   4.825  14.329  0.00  0.00    +0.000 A 
ATOM     19  C   UNL     1       7.586   4.938  15.415  0.00  0.00    +0.000 A 
ATOM     20  C   UNL     1       7.171   4.569  16.710  0.00  0.00    +0.000 A 
BRANCH  20  21
ATOM     21  C   UNL     1       8.147   4.745  17.855  0.00  0.00    +0.000 C 
BRANCH  21  22
ATOM     22  C   UNL     1       7.804   5.812  18.873  0.00  0.00    +0.000 C 
ATOM     23  O   UNL     1       7.306   5.539  19.961  0.00  0.00    +0.000 OA
BRANCH  22  24
ATOM     24  O   UNL     1       8.087   7.091  18.547  0.00  0.00    +0.000 OA
ATOM     25  H   UNL     1       8.951   7.227  18.114  0.00  0.00    +0.000 HD
ENDBRANCH  22  24
ENDBRANCH  21  22
ENDBRANCH  20  21
ENDBRANCH  14  15
ENDBRANCH   4  14
TORSDOF 6
ENDMDL
MODEL 4
REMARK VINA RESULT:      -6.5      3.972      6.191
REMARK  Name = 
REMARK  8 active torsions:
REMARK  status: ('A' for Active; 'I' for Inactive)
REMARK    1  A    between atoms: C_1  and  C_2
REMARK    2  A    between atoms: C_3  and  N_4
REMARK    3  A    between atoms: C_5  and  O_6
REMARK    4  A    between atoms: O_6  and  C_7
REMARK    5  A    between atoms: C_12  and  C_13
REMARK    6  A    between atoms: C_13  and  C_14
REMARK    7  A    between atoms: C_14  and  O_16
REMARK    8  A    between atoms: C_19  and  C_20
REMARK                            x       y       z     vdW  Elec       q    Type
REMARK                         _______ _______ _______ _____ _____    ______ ____
ROOT
ATOM      1  C   UNL     1       4.352   1.767  20.518  0.00  0.00    +0.000 C 
ATOM      2  C   UNL     1       3.872   3.142  20.108  0.00  0.00    +0.000 A 
ATOM      3  C   UNL     1       4.672   4.018  19.340  0.00  0.00    +0.000 A 
ATOM      4  C   UNL     1       4.088   5.189  18.801  0.00  0.00    +0.000 A 
ATOM      5  C   UNL     1       2.735   5.488  19.047  0.00  0.00    +0.000 A 
ATOM      6 CL   UNL     1       1.923   6.720  18.120  0.00  0.00    +0.000 Cl
ATOM      7  C   UNL     1       2.009   4.756  20.000  0.00  0.00    +0.000 A 
ATOM      8  C   UNL     1       0.658   5.220  20.490  0.00  0.00    +0.000 C 
ATOM      9  C   UNL     1       2.571   3.556  20.479  0.00  0.00    +0.000 A 
ATOM     10 CL   UNL     1       1.616   2.533  21.522  0.00  0.00    +0.000 Cl
ENDROOT
BRANCH   3  11
ATOM     11  N   UNL     1       5.964   3.638  18.921  0.00  0.00    +0.000 N 
ATOM     12  H   UNL     1       6.391   4.249  18.232  0.00  0.00    +0.000 HD
ATOM     13  H   UNL     1       6.028   2.659  18.653  0.00  0.00    +0.000 HD
ENDBRANCH   3  11
BRANCH   4  14
ATOM     14  O   UNL     1       4.918   5.979  18.012  0.00  0.00    +0.000 OA
BRANCH  14  15
ATOM     15  C   UNL     1       5.423   5.466  16.826  0.00  0.00    +0.000 A 
ATOM     16  C   UNL     1       4.739   4.531  16.034  0.00  0.00    +0.000 A 
ATOM     17  C   UNL     1       5.350   3.962  14.915  0.00  0.00    +0.000 A 
ATOM     18  C   UNL     1       6.620   4.374  14.529  0.00  0.00    +0.000 A 
ATOM     19  C   UNL     1       7.277   5.363  15.258  0.00  0.00    +0.000 A 
ATOM     20  C   UNL     1       6.693   5.916  16.414  0.00  0.00    +0.000 A 
BRANCH  20  21
ATOM     21  C   UNL     1       7.445   7.011  17.144  0.00  0.00    +0.000 C 
BRANCH  21  22
ATOM     22  C   UNL     1       8.081   6.626  18.463  0.00  0.00    +0.000 C 
ATOM     23  O   UNL     1       8.078   5.470  18.877  0.00  0.00    +0.000 OA
BRANCH  22  24
ATOM     24  O   UNL     1       8.677   7.609  19.170  0.00  0.00    +0.000 OA
ATOM     25  H   UNL     1       8.538   7.569  20.136  0.00  0.00    +0.000 HD
ENDBRANCH  22  24
ENDBRANCH  21  22
ENDBRANCH  20  21
ENDBRANCH  14  15
ENDBRANCH   4  14
TORSDOF 6
ENDMDL
MODEL 5
REMARK VINA RESULT:      -6.4      1.542      2.425
REMARK  Name = 
REMARK  8 active torsions:
REMARK  status: ('A' for Active; 'I' for Inactive)
REMARK    1  A    between atoms: C_1  and  C_2
REMARK    2  A    between atoms: C_3  and  N_4
REMARK    3  A    between atoms: C_5  and  O_6
REMARK    4  A    between atoms: O_6  and  C_7
REMARK    5  A    between atoms: C_12  and  C_13
REMARK    6  A    between atoms: C_13  and  C_14
REMARK    7  A    between atoms: C_14  and  O_16
REMARK    8  A    between atoms: C_19  and  C_20
REMARK                            x       y       z     vdW  Elec       q    Type
REMARK                         _______ _______ _______ _____ _____    ______ ____
ROOT
ATOM      1  C   UNL     1       4.644   4.202  16.351  0.00  0.00    +0.000 C 
ATOM      2  C   UNL     1       3.858   4.505  17.609  0.00  0.00    +0.000 A 
ATOM      3  C   UNL     1       3.826   5.797  18.179  0.00  0.00    +0.000 A 
ATOM      4  C   UNL     1       2.900   6.067  19.216  0.00  0.00    +0.000 A 
ATOM      5  C   UNL     1       2.042   5.056  19.687  0.00  0.00    +0.000 A 
ATOM      6 CL   UNL     1       0.682   5.456  20.701  0.00  0.00    +0.000 Cl
ATOM      7  C   UNL     1       2.238   3.721  19.295  0.00  0.00    +0.000 A 
ATOM      8  C   UNL     1       1.527   2.584  19.988  0.00  0.00    +0.000 C 
ATOM      9  C   UNL     1       3.110   3.470  18.217  0.00  0.00    +0.000 A 
ATOM     10 CL   UNL     1       3.232   1.847  17.590  0.00  0.00    +0.000 Cl
ENDROOT
BRANCH   3  11
ATOM     11  N   UNL     1       4.532   6.867  17.591  0.00  0.00    +0.000 N 
ATOM     12  H   UNL     1       4.100   7.779  17.699  0.00  0.00    +0.000 HD
ATOM     13  H   UNL     1       4.805   6.687  16.628  0.00  0.00    +0.000 HD
ENDBRANCH   3  11
BRANCH   4  14
ATOM     14  O   UNL     1       2.885   7.373  19.696  0.00  0.00    +0.000 OA
BRANCH  14  15
ATOM     15  C   UNL     1       1.899   8.248  19.264  0.00  0.00    +0.000 A 
ATOM     16  C   UNL     1       1.602   8.473  17.911  0.00  0.00    +0.000 A 
ATOM     17  C   UNL     1       0.683   9.455  17.536  0.00  0.00    +0.000 A 
ATOM     18  C   UNL     1      -0.007  10.170  18.507  0.00  0.00    +0.000 A 
ATOM     19  C   UNL     1       0.215   9.899  19.854  0.00  0.00    +0.000 A 
ATOM     20  C   UNL     1       1.171   8.943  20.251  0.00  0.00    +0.000 A 
BRANCH  20  21
ATOM     21  C   UNL     1       1.343   8.671  21.731  0.00  0.00    +0.000 C 
BRANCH  21  22
ATOM     22  C   UNL     1       0.231   9.155  22.638  0.00  0.00    +0.000 C 
ATOM     23  O   UNL     1       0.326  10.187  23.294  0.00  0.00    +0.000 OA
BRANCH  22  24
ATOM     24  O   UNL     1      -0.894   8.410  22.687  0.00  0.00    +0.000 OA
ATOM     25  H   UNL     1      -0.826   7.529  22.273  0.00  0.00    +0.000 HD
ENDBRANCH  22  24
ENDBRANCH  21  22
ENDBRANCH  20  21
ENDBRANCH  14  15
ENDBRANCH   4  14
TORSDOF 6
ENDMDL
MODEL 6
REMARK VINA RESULT:      -6.4      4.023      6.342
REMARK  Name = 
REMARK  8 active torsions:
REMARK  status: ('A' for Active; 'I' for Inactive)
REMARK    1  A    between atoms: C_1  and  C_2
REMARK    2  A    between atoms: C_3  and  N_4
REMARK    3  A    between atoms: C_5  and  O_6
REMARK    4  A    between atoms: O_6  and  C_7
REMARK    5  A    between atoms: C_12  and  C_13
REMARK    6  A    between atoms: C_13  and  C_14
REMARK    7  A    between atoms: C_14  and  O_16
REMARK    8  A    between atoms: C_19  and  C_20
REMARK                            x       y       z     vdW  Elec       q    Type
REMARK                         _______ _______ _______ _____ _____    ______ ____
ROOT
ATOM      1  C   UNL     1       2.098   6.439  20.719  0.00  0.00    +0.000 C 
ATOM      2  C   UNL     1       2.513   5.216  19.930  0.00  0.00    +0.000 A 
ATOM      3  C   UNL     1       3.818   5.068  19.410  0.00  0.00    +0.000 A 
ATOM      4  C   UNL     1       4.208   3.813  18.881  0.00  0.00    +0.000 A 
ATOM      5  C   UNL     1       3.300   2.738  18.854  0.00  0.00    +0.000 A 
ATOM      6 CL   UNL     1       3.862   1.120  18.535  0.00  0.00    +0.000 Cl
ATOM      7  C   UNL     1       1.943   2.949  19.143  0.00  0.00    +0.000 A 
ATOM      8  C   UNL     1       0.901   1.895  18.854  0.00  0.00    +0.000 C 
ATOM      9  C   UNL     1       1.576   4.176  19.732  0.00  0.00    +0.000 A 
ATOM     10 CL   UNL     1      -0.070   4.396  20.269  0.00  0.00    +0.000 Cl
ENDROOT
BRANCH   3  11
ATOM     11  N   UNL     1       4.795   6.065  19.608  0.00  0.00    +0.000 N 
ATOM     12  H   UNL     1       4.501   7.008  19.377  0.00  0.00    +0.000 HD
ATOM     13  H   UNL     1       5.694   5.834  19.193  0.00  0.00    +0.000 HD
ENDBRANCH   3  11
BRANCH   4  14
ATOM     14  O   UNL     1       5.523   3.721  18.434  0.00  0.00    +0.000 OA
BRANCH  14  15
ATOM     15  C   UNL     1       5.837   4.140  17.150  0.00  0.00    +0.000 A 
ATOM     16  C   UNL     1       4.912   4.165  16.095  0.00  0.00    +0.000 A 
ATOM     17  C   UNL     1       5.318   4.481  14.797  0.00  0.00    +0.000 A 
ATOM     18  C   UNL     1       6.635   4.850  14.549  0.00  0.00    +0.000 A 
ATOM     19  C   UNL     1       7.545   4.911  15.601  0.00  0.00    +0.000 A 
ATOM     20  C   UNL     1       7.163   4.553  16.909  0.00  0.00    +0.000 A 
BRANCH  20  21
ATOM     21  C   UNL     1       8.191   4.672  18.015  0.00  0.00    +0.000 C 
BRANCH  21  22
ATOM     22  C   UNL     1       7.997   5.811  18.995  0.00  0.00    +0.000 C 
ATOM     23  O   UNL     1       8.143   6.985  18.668  0.00  0.00    +0.000 OA
BRANCH  22  24
ATOM     24  O   UNL     1       7.635   5.487  20.254  0.00  0.00    +0.000 OA
ATOM     25  H   UNL     1       6.879   5.990  20.611  0.00  0.00    +0.000 HD
ENDBRANCH  22  24
ENDBRANCH  21  22
ENDBRANCH  20  21
ENDBRANCH  14  15
ENDBRANCH   4  14
TORSDOF 6
ENDMDL
MODEL 7
REMARK VINA RESULT:      -6.3      3.631      5.304
REMARK  Name = 
REMARK  8 active torsions:
REMARK  status: ('A' for Active; 'I' for Inactive)
REMARK    1  A    between atoms: C_1  and  C_2
REMARK    2  A    between atoms: C_3  and  N_4
REMARK    3  A    between atoms: C_5  and  O_6
REMARK    4  A    between atoms: O_6  and  C_7
REMARK    5  A    between atoms: C_12  and  C_13
REMARK    6  A    between atoms: C_13  and  C_14
REMARK    7  A    between atoms: C_14  and  O_16
REMARK    8  A    between atoms: C_19  and  C_20
REMARK                            x       y       z     vdW  Elec       q    Type
REMARK                         _______ _______ _______ _____ _____    ______ ____
ROOT
ATOM      1  C   UNL     1       5.255   3.667  14.116  0.00  0.00    +0.000 C 
ATOM      2  C   UNL     1       5.435   4.315  15.472  0.00  0.00    +0.000 A 
ATOM      3  C   UNL     1       4.611   3.992  16.573  0.00  0.00    +0.000 A 
ATOM      4  C   UNL     1       4.969   4.458  17.861  0.00  0.00    +0.000 A 
ATOM      5  C   UNL     1       6.117   5.253  18.037  0.00  0.00    +0.000 A 
ATOM      6 CL   UNL     1       6.754   5.538  19.634  0.00  0.00    +0.000 Cl
ATOM      7  C   UNL     1       6.797   5.773  16.923  0.00  0.00    +0.000 A 
ATOM      8  C   UNL     1       7.850   6.845  17.072  0.00  0.00    +0.000 C 
ATOM      9  C   UNL     1       6.479   5.252  15.653  0.00  0.00    +0.000 A 
ATOM     10 CL   UNL     1       7.431   5.745  14.276  0.00  0.00    +0.000 Cl
ENDROOT
BRANCH   3  11
ATOM     11  N   UNL     1       3.576   3.041  16.449  0.00  0.00    +0.000 N 
ATOM     12  H   UNL     1       3.883   2.075  16.400  0.00  0.00    +0.000 HD
ATOM     13  H   UNL     1       2.910   3.266  15.714  0.00  0.00    +0.000 HD
ENDBRANCH   3  11
BRANCH   4  14
ATOM     14  O   UNL     1       4.142   4.060  18.907  0.00  0.00    +0.000 OA
BRANCH  14  15
ATOM     15  C   UNL     1       3.199   4.945  19.406  0.00  0.00    +0.000 A 
ATOM     16  C   UNL     1       3.235   6.328  19.174  0.00  0.00    +0.000 A 
ATOM     17  C   UNL     1       2.327   7.182  19.803  0.00  0.00    +0.000 A 
ATOM     18  C   UNL     1       1.325   6.659  20.612  0.00  0.00    +0.000 A 
ATOM     19  C   UNL     1       1.225   5.281  20.785  0.00  0.00    +0.000 A 
ATOM     20  C   UNL     1       2.159   4.409  20.192  0.00  0.00    +0.000 A 
BRANCH  20  21
ATOM     21  C   UNL     1       1.977   2.918  20.393  0.00  0.00    +0.000 C 
BRANCH  21  22
ATOM     22  C   UNL     1       1.488   2.133  19.194  0.00  0.00    +0.000 C 
ATOM     23  O   UNL     1       0.317   2.164  18.826  0.00  0.00    +0.000 OA
BRANCH  22  24
ATOM     24  O   UNL     1       2.401   1.401  18.521  0.00  0.00    +0.000 OA
ATOM     25  H   UNL     1       2.099   0.517  18.239  0.00  0.00    +0.000 HD
ENDBRANCH  22  24
ENDBRANCH  21  22
ENDBRANCH  20  21
ENDBRANCH  14  15
ENDBRANCH   4  14
TORSDOF 6
ENDMDL
MODEL 8
REMARK VINA RESULT:      -6.3      2.570      6.194
REMARK  Name = 
REMARK  8 active torsions:
REMARK  status: ('A' for Active; 'I' for Inactive)
REMARK    1  A    between atoms: C_1  and  C_2
REMARK    2  A    between atoms: C_3  and  N_4
REMARK    3  A    between atoms: C_5  and  O_6
REMARK    4  A    between atoms: O_6  and  C_7
REMARK    5  A    between atoms: C_12  and  C_13
REMARK    6  A    between atoms: C_13  and  C_14
REMARK    7  A    between atoms: C_14  and  O_16
REMARK    8  A    between atoms: C_19  and  C_20
REMARK                            x       y       z     vdW  Elec       q    Type
REMARK                         _______ _______ _______ _____ _____    ______ ____
ROOT
ATOM      1  C   UNL     1      -0.359   8.463  21.897  0.00  0.00    +0.000 C 
ATOM      2  C   UNL     1       0.699   8.460  20.815  0.00  0.00    +0.000 A 
ATOM      3  C   UNL     1       1.661   7.430  20.711  0.00  0.00    +0.000 A 
ATOM      4  C   UNL     1       2.475   7.364  19.553  0.00  0.00    +0.000 A 
ATOM      5  C   UNL     1       2.343   8.325  18.534  0.00  0.00    +0.000 A 
ATOM      6 CL   UNL     1       3.077   8.062  16.976  0.00  0.00    +0.000 Cl
ATOM      7  C   UNL     1       1.566   9.477  18.741  0.00  0.00    +0.000 A 
ATOM      8  C   UNL     1       1.626  10.649  17.792  0.00  0.00    +0.000 C 
ATOM      9  C   UNL     1       0.710   9.503  19.860  0.00  0.00    +0.000 A 
ATOM     10 CL   UNL     1      -0.398  10.838  20.043  0.00  0.00    +0.000 Cl
ENDROOT
BRANCH   3  11
ATOM     11  N   UNL     1       1.672   6.354  21.622  0.00  0.00    +0.000 N 
ATOM     12  H   UNL     1       2.383   5.651  21.449  0.00  0.00    +0.000 HD
ATOM     13  H   UNL     1       0.755   5.939  21.765  0.00  0.00    +0.000 HD
ENDBRANCH   3  11
BRANCH   4  14
ATOM     14  O   UNL     1       3.364   6.296  19.492  0.00  0.00    +0.000 OA
BRANCH  14  15
ATOM     15  C   UNL     1       3.081   5.219  18.666  0.00  0.00    +0.000 A 
ATOM     16  C   UNL     1       1.838   4.568  18.639  0.00  0.00    +0.000 A 
ATOM     17  C   UNL     1       1.652   3.415  17.875  0.00  0.00    +0.000 A 
ATOM     18  C   UNL     1       2.680   2.940  17.069  0.00  0.00    +0.000 A 
ATOM     19  C   UNL     1       3.893   3.623  17.021  0.00  0.00    +0.000 A 
ATOM     20  C   UNL     1       4.112   4.763  17.819  0.00  0.00    +0.000 A 
BRANCH  20  21
ATOM     21  C   UNL     1       5.440   5.480  17.697  0.00  0.00    +0.000 C 
BRANCH  21  22
ATOM     22  C   UNL     1       6.562   4.974  18.580  0.00  0.00    +0.000 C 
ATOM     23  O   UNL     1       6.593   5.196  19.786  0.00  0.00    +0.000 OA
BRANCH  22  24
ATOM     24  O   UNL     1       7.531   4.244  17.988  0.00  0.00    +0.000 OA
ATOM     25  H   UNL     1       8.215   4.762  17.522  0.00  0.00    +0.000 HD
ENDBRANCH  22  24
ENDBRANCH  21  22
ENDBRANCH  20  21
ENDBRANCH  14  15
ENDBRANCH   4  14
TORSDOF 6
ENDMDL
MODEL 9
REMARK VINA RESULT:      -6.0      3.714      6.038
REMARK  Name = 
REMARK  8 active torsions:
REMARK  status: ('A' for Active; 'I' for Inactive)
REMARK    1  A    between atoms: C_1  and  C_2
REMARK    2  A    between atoms: C_3  and  N_4
REMARK    3  A    between atoms: C_5  and  O_6
REMARK    4  A    between atoms: O_6  and  C_7
REMARK    5  A    between atoms: C_12  and  C_13
REMARK    6  A    between atoms: C_13  and  C_14
REMARK    7  A    between atoms: C_14  and  O_16
REMARK    8  A    between atoms: C_19  and  C_20
REMARK                            x       y       z     vdW  Elec       q    Type
REMARK                         _______ _______ _______ _____ _____    ______ ____
ROOT
ATOM      1  C   UNL     1       2.937   1.708  19.657  0.00  0.00    +0.000 C 
ATOM      2  C   UNL     1       3.071   3.216  19.661  0.00  0.00    +0.000 A 
ATOM      3  C   UNL     1       4.243   3.865  19.213  0.00  0.00    +0.000 A 
ATOM      4  C   UNL     1       4.223   5.269  19.029  0.00  0.00    +0.000 A 
ATOM      5  C   UNL     1       3.059   6.008  19.311  0.00  0.00    +0.000 A 
ATOM      6 CL   UNL     1       2.911   7.657  18.768  0.00  0.00    +0.000 Cl
ATOM      7  C   UNL     1       1.982   5.406  19.980  0.00  0.00    +0.000 A 
ATOM      8  C   UNL     1       0.846   6.225  20.544  0.00  0.00    +0.000 C 
ATOM      9  C   UNL     1       1.979   4.001  20.098  0.00  0.00    +0.000 A 
ATOM     10 CL   UNL     1       0.570   3.212  20.759  0.00  0.00    +0.000 Cl
ENDROOT
BRANCH   3  11
ATOM     11  N   UNL     1       5.346   3.125  18.741  0.00  0.00    +0.000 N 
ATOM     12  H   UNL     1       6.233   3.343  19.183  0.00  0.00    +0.000 HD
ATOM     13  H   UNL     1       5.419   3.116  17.726  0.00  0.00    +0.000 HD
ENDBRANCH   3  11
BRANCH   4  14
ATOM     14  O   UNL     1       5.394   5.837  18.537  0.00  0.00    +0.000 OA
BRANCH  14  15
ATOM     15  C   UNL     1       5.753   5.624  17.215  0.00  0.00    +0.000 A 
ATOM     16  C   UNL     1       4.933   5.958  16.126  0.00  0.00    +0.000 A 
ATOM     17  C   UNL     1       5.297   5.608  14.824  0.00  0.00    +0.000 A 
ATOM     18  C   UNL     1       6.518   4.989  14.585  0.00  0.00    +0.000 A 
ATOM     19  C   UNL     1       7.380   4.728  15.647  0.00  0.00    +0.000 A 
ATOM     20  C   UNL     1       7.010   5.034  16.971  0.00  0.00    +0.000 A 
BRANCH  20  21
ATOM     21  C   UNL     1       8.005   4.755  18.078  0.00  0.00    +0.000 C 
BRANCH  21  22
ATOM     22  C   UNL     1       8.030   5.741  19.226  0.00  0.00    +0.000 C 
ATOM     23  O   UNL     1       7.806   5.401  20.384  0.00  0.00    +0.000 OA
BRANCH  22  24
ATOM     24  O   UNL     1       8.329   7.024  18.932  0.00  0.00    +0.000 OA
ATOM     25  H   UNL     1       9.036   7.421  19.475  0.00  0.00    +0.000 HD
ENDBRANCH  22  24
ENDBRANCH  21  22
ENDBRANCH  20  21
ENDBRANCH  14  15
ENDBRANCH   4  14
TORSDOF 6
ENDMDL
