MODEL 1
REMARK VINA RESULT:      -7.3      0.000      0.000
REMARK  Name = 
REMARK  2 active torsions:
REMARK  status: ('A' for Active; 'I' for Inactive)
REMARK    1  A    between atoms: C_1  and  N_2
REMARK    2  A    between atoms: C_15  and  N_16
REMARK                            x       y       z     vdW  Elec       q    Type
REMARK                         _______ _______ _______ _____ _____    ______ ____
ROOT
ATOM      1  C   UNL     1       2.345   9.316  17.837  0.00  0.00    +0.000 C 
ATOM      2  N   UNL     1       1.878   8.654  19.072  0.00  0.00    +0.000 N 
ATOM      3  C   UNL     1       1.050   9.313  19.966  0.00  0.00    +0.000 A 
ATOM      4  C   UNL     1       0.599  10.638  19.778  0.00  0.00    +0.000 A 
ATOM      5  C   UNL     1      -0.236  11.281  20.699  0.00  0.00    +0.000 A 
ATOM      6  C   UNL     1      -0.653  10.620  21.842  0.00  0.00    +0.000 A 
ATOM      7  C   UNL     1      -0.235   9.313  22.068  0.00  0.00    +0.000 A 
ATOM      8  C   UNL     1       0.604   8.654  21.155  0.00  0.00    +0.000 A 
ATOM      9  C   UNL     1       0.983   7.355  21.445  0.00  0.00    +0.000 A 
ATOM     10  C   UNL     1       1.810   6.725  20.533  0.00  0.00    +0.000 A 
ATOM     11  N   UNL     1       2.346   5.459  20.540  0.00  0.00    +0.000 NA
ATOM     12  C   UNL     1       3.092   5.342  19.398  0.00  0.00    +0.000 A 
ATOM     13  C   UNL     1       3.830   4.227  18.964  0.00  0.00    +0.000 A 
ATOM     14  C   UNL     1       4.535   4.287  17.764  0.00  0.00    +0.000 A 
ATOM     15  C   UNL     1       4.512   5.450  16.990  0.00  0.00    +0.000 A 
ATOM     16  C   UNL     1       3.782   6.574  17.410  0.00  0.00    +0.000 A 
ATOM     17  C   UNL     1       3.083   6.505  18.603  0.00  0.00    +0.000 A 
ATOM     18  C   UNL     1       2.265   7.386  19.327  0.00  0.00    +0.000 A 
ENDROOT
BRANCH  15  19
ATOM     19  N   UNL     1       5.262   5.489  15.724  0.00  0.00    +0.000 N 
ATOM     20  O   UNL     1       5.366   6.586  15.161  0.00  0.00    +0.000 OA
ATOM     21  O   UNL     1       5.736   4.424  15.310  0.00  0.00    +0.000 OA
ENDBRANCH  15  19
TORSDOF 1
ENDMDL
MODEL 2
REMARK VINA RESULT:      -7.3      2.093      3.242
REMARK  Name = 
REMARK  2 active torsions:
REMARK  status: ('A' for Active; 'I' for Inactive)
REMARK    1  A    between atoms: C_1  and  N_2
REMARK    2  A    between atoms: C_15  and  N_16
REMARK                            x       y       z     vdW  Elec       q    Type
REMARK                         _______ _______ _______ _____ _____    ______ ____
ROOT
ATOM      1  C   UNL     1       1.492   6.317  21.035  0.00  0.00    +0.000 C 
ATOM      2  N   UNL     1       1.765   7.316  19.982  0.00  0.00    +0.000 N 
ATOM      3  C   UNL     1       1.217   8.587  20.043  0.00  0.00    +0.000 A 
ATOM      4  C   UNL     1       0.372   9.021  21.088  0.00  0.00    +0.000 A 
ATOM      5  C   UNL     1      -0.169  10.311  21.126  0.00  0.00    +0.000 A 
ATOM      6  C   UNL     1       0.118  11.216  20.117  0.00  0.00    +0.000 A 
ATOM      7  C   UNL     1       0.947  10.833  19.069  0.00  0.00    +0.000 A 
ATOM      8  C   UNL     1       1.496   9.543  19.016  0.00  0.00    +0.000 A 
ATOM      9  C   UNL     1       2.311   9.230  17.942  0.00  0.00    +0.000 A 
ATOM     10  C   UNL     1       2.842   7.953  17.908  0.00  0.00    +0.000 A 
ATOM     11  N   UNL     1       3.671   7.355  16.990  0.00  0.00    +0.000 NA
ATOM     12  C   UNL     1       3.896   6.079  17.436  0.00  0.00    +0.000 A 
ATOM     13  C   UNL     1       4.684   5.084  16.832  0.00  0.00    +0.000 A 
ATOM     14  C   UNL     1       4.801   3.833  17.433  0.00  0.00    +0.000 A 
ATOM     15  C   UNL     1       4.137   3.562  18.633  0.00  0.00    +0.000 A 
ATOM     16  C   UNL     1       3.344   4.544  19.248  0.00  0.00    +0.000 A 
ATOM     17  C   UNL     1       3.235   5.785  18.645  0.00  0.00    +0.000 A 
ATOM     18  C   UNL     1       2.563   6.981  18.946  0.00  0.00    +0.000 A 
ENDROOT
BRANCH  15  19
ATOM     19  N   UNL     1       4.278   2.234  19.251  0.00  0.00    +0.000 N 
ATOM     20  O   UNL     1       3.719   1.284  18.687  0.00  0.00    +0.000 OA
ATOM     21  O   UNL     1       4.943   2.157  20.291  0.00  0.00    +0.000 OA
ENDBRANCH  15  19
TORSDOF 1
ENDMDL
MODEL 3
REMARK VINA RESULT:      -7.2      4.174      5.280
REMARK  Name = 
REMARK  2 active torsions:
REMARK  status: ('A' for Active; 'I' for Inactive)
REMARK    1  A    between atoms: C_1  and  N_2
REMARK    2  A    between atoms: C_15  and  N_16
REMARK                            x       y       z     vdW  Elec       q    Type
REMARK                         _______ _______ _______ _____ _____    ______ ____
ROOT
ATOM      1  C   UNL     1       2.812   2.709  16.419  0.00  0.00    +0.000 C 
ATOM      2  N   UNL     1       3.320   3.555  17.519  0.00  0.00    +0.000 N 
ATOM      3  C   UNL     1       2.671   3.602  18.742  0.00  0.00    +0.000 A 
ATOM      4  C   UNL     1       1.499   2.868  19.030  0.00  0.00    +0.000 A 
ATOM      5  C   UNL     1       0.863   2.935  20.275  0.00  0.00    +0.000 A 
ATOM      6  C   UNL     1       1.377   3.739  21.278  0.00  0.00    +0.000 A 
ATOM      7  C   UNL     1       2.530   4.479  21.040  0.00  0.00    +0.000 A 
ATOM      8  C   UNL     1       3.180   4.424  19.796  0.00  0.00    +0.000 A 
ATOM      9  C   UNL     1       4.321   5.189  19.628  0.00  0.00    +0.000 A 
ATOM     10  C   UNL     1       4.945   5.121  18.396  0.00  0.00    +0.000 A 
ATOM     11  N   UNL     1       6.075   5.750  17.932  0.00  0.00    +0.000 NA
ATOM     12  C   UNL     1       6.257   5.330  16.640  0.00  0.00    +0.000 A 
ATOM     13  C   UNL     1       7.282   5.700  15.753  0.00  0.00    +0.000 A 
ATOM     14  C   UNL     1       7.310   5.168  14.466  0.00  0.00    +0.000 A 
ATOM     15  C   UNL     1       6.322   4.270  14.053  0.00  0.00    +0.000 A 
ATOM     16  C   UNL     1       5.290   3.892  14.926  0.00  0.00    +0.000 A 
ATOM     17  C   UNL     1       5.271   4.424  16.204  0.00  0.00    +0.000 A 
ATOM     18  C   UNL     1       4.435   4.290  17.324  0.00  0.00    +0.000 A 
ENDROOT
BRANCH  15  19
ATOM     19  N   UNL     1       6.374   3.718  12.689  0.00  0.00    +0.000 N 
ATOM     20  O   UNL     1       5.521   2.873  12.387  0.00  0.00    +0.000 OA
ATOM     21  O   UNL     1       7.265   4.135  11.939  0.00  0.00    +0.000 OA
ENDBRANCH  15  19
TORSDOF 1
ENDMDL
MODEL 4
REMARK VINA RESULT:      -7.2      3.673      7.044
REMARK  Name = 
REMARK  2 active torsions:
REMARK  status: ('A' for Active; 'I' for Inactive)
REMARK    1  A    between atoms: C_1  and  N_2
REMARK    2  A    between atoms: C_15  and  N_16
REMARK                            x       y       z     vdW  Elec       q    Type
REMARK                         _______ _______ _______ _____ _____    ______ ____
ROOT
ATOM      1  C   UNL     1       2.027   5.691  21.086  0.00  0.00    +0.000 C 
ATOM      2  N   UNL     1       2.478   6.168  19.763  0.00  0.00    +0.000 N 
ATOM      3  C   UNL     1       3.158   5.330  18.895  0.00  0.00    +0.000 A 
ATOM      4  C   UNL     1       3.473   3.987  19.196  0.00  0.00    +0.000 A 
ATOM      5  C   UNL     1       4.163   3.161  18.301  0.00  0.00    +0.000 A 
ATOM      6  C   UNL     1       4.562   3.651  17.068  0.00  0.00    +0.000 A 
ATOM      7  C   UNL     1       4.273   4.968  16.728  0.00  0.00    +0.000 A 
ATOM      8  C   UNL     1       3.583   5.809  17.615  0.00  0.00    +0.000 A 
ATOM      9  C   UNL     1       3.331   7.108  17.211  0.00  0.00    +0.000 A 
ATOM     10  C   UNL     1       2.651   7.921  18.100  0.00  0.00    +0.000 A 
ATOM     11  N   UNL     1       2.259   9.233  17.990  0.00  0.00    +0.000 NA
ATOM     12  C   UNL     1       1.615   9.551  19.157  0.00  0.00    +0.000 A 
ATOM     13  C   UNL     1       1.036  10.781  19.511  0.00  0.00    +0.000 A 
ATOM     14  C   UNL     1       0.417  10.924  20.751  0.00  0.00    +0.000 A 
ATOM     15  C   UNL     1       0.371   9.851  21.644  0.00  0.00    +0.000 A 
ATOM     16  C   UNL     1       0.946   8.615  21.306  0.00  0.00    +0.000 A 
ATOM     17  C   UNL     1       1.558   8.481  20.072  0.00  0.00    +0.000 A 
ATOM     18  C   UNL     1       2.218   7.442  19.397  0.00  0.00    +0.000 A 
ENDROOT
BRANCH  15  19
ATOM     19  N   UNL     1      -0.292  10.024  22.947  0.00  0.00    +0.000 N 
ATOM     20  O   UNL     1       0.296   9.586  23.944  0.00  0.00    +0.000 OA
ATOM     21  O   UNL     1      -1.390  10.594  22.956  0.00  0.00    +0.000 OA
ENDBRANCH  15  19
TORSDOF 1
ENDMDL
MODEL 5
REMARK VINA RESULT:      -7.0      2.475      3.745
REMARK  Name = 
REMARK  2 active torsions:
REMARK  status: ('A' for Active; 'I' for Inactive)
REMARK    1  A    between atoms: C_1  and  N_2
REMARK    2  A    between atoms: C_15  and  N_16
REMARK                            x       y       z     vdW  Elec       q    Type
REMARK                         _______ _______ _______ _____ _____    ______ ____
ROOT
ATOM      1  C   UNL     1       0.713   8.079  21.644  0.00  0.00    +0.000 C 
ATOM      2  N   UNL     1       1.130   8.725  20.383  0.00  0.00    +0.000 N 
ATOM      3  C   UNL     1       0.783  10.036  20.104  0.00  0.00    +0.000 A 
ATOM      4  C   UNL     1       0.017  10.842  20.976  0.00  0.00    +0.000 A 
ATOM      5  C   UNL     1      -0.321  12.165  20.669  0.00  0.00    +0.000 A 
ATOM      6  C   UNL     1       0.096  12.731  19.475  0.00  0.00    +0.000 A 
ATOM      7  C   UNL     1       0.853  11.976  18.586  0.00  0.00    +0.000 A 
ATOM      8  C   UNL     1       1.199  10.647  18.879  0.00  0.00    +0.000 A 
ATOM      9  C   UNL     1       1.952   9.954  17.947  0.00  0.00    +0.000 A 
ATOM     10  C   UNL     1       2.282   8.647  18.255  0.00  0.00    +0.000 A 
ATOM     11  N   UNL     1       3.006   7.719  17.546  0.00  0.00    +0.000 NA
ATOM     12  C   UNL     1       3.037   6.580  18.307  0.00  0.00    +0.000 A 
ATOM     13  C   UNL     1       3.662   5.359  18.000  0.00  0.00    +0.000 A 
ATOM     14  C   UNL     1       3.590   4.299  18.901  0.00  0.00    +0.000 A 
ATOM     15  C   UNL     1       2.897   4.443  20.106  0.00  0.00    +0.000 A 
ATOM     16  C   UNL     1       2.266   5.655  20.427  0.00  0.00    +0.000 A 
ATOM     17  C   UNL     1       2.344   6.704  19.527  0.00  0.00    +0.000 A 
ATOM     18  C   UNL     1       1.863   8.023  19.493  0.00  0.00    +0.000 A 
ENDROOT
BRANCH  15  19
ATOM     19  N   UNL     1       2.837   3.310  21.043  0.00  0.00    +0.000 N 
ATOM     20  O   UNL     1       3.528   2.317  20.779  0.00  0.00    +0.000 OA
ATOM     21  O   UNL     1       2.100   3.426  22.031  0.00  0.00    +0.000 OA
ENDBRANCH  15  19
TORSDOF 1
ENDMDL
MODEL 6
REMARK VINA RESULT:      -6.9      3.831      7.090
REMARK  Name = 
REMARK  2 active torsions:
REMARK  status: ('A' for Active; 'I' for Inactive)
REMARK    1  A    between atoms: C_1  and  N_2
REMARK    2  A    between atoms: C_15  and  N_16
REMARK                            x       y       z     vdW  Elec       q    Type
REMARK                         _______ _______ _______ _____ _____    ______ ____
ROOT
ATOM      1  C   UNL     1       1.522   6.689  21.164  0.00  0.00    +0.000 C 
ATOM      2  N   UNL     1       2.103   7.013  19.845  0.00  0.00    +0.000 N 
ATOM      3  C   UNL     1       2.878   6.091  19.160  0.00  0.00    +0.000 A 
ATOM      4  C   UNL     1       3.173   4.801  19.655  0.00  0.00    +0.000 A 
ATOM      5  C   UNL     1       3.960   3.889  18.943  0.00  0.00    +0.000 A 
ATOM      6  C   UNL     1       4.481   4.235  17.707  0.00  0.00    +0.000 A 
ATOM      7  C   UNL     1       4.216   5.494  17.180  0.00  0.00    +0.000 A 
ATOM      8  C   UNL     1       3.429   6.421  17.882  0.00  0.00    +0.000 A 
ATOM      9  C   UNL     1       3.208   7.655  17.298  0.00  0.00    +0.000 A 
ATOM     10  C   UNL     1       2.431   8.554  18.006  0.00  0.00    +0.000 A 
ATOM     11  N   UNL     1       2.040   9.835  17.696  0.00  0.00    +0.000 NA
ATOM     12  C   UNL     1       1.275  10.277  18.743  0.00  0.00    +0.000 A 
ATOM     13  C   UNL     1       0.650  11.528  18.883  0.00  0.00    +0.000 A 
ATOM     14  C   UNL     1      -0.096  11.806  20.025  0.00  0.00    +0.000 A 
ATOM     15  C   UNL     1      -0.225  10.848  21.034  0.00  0.00    +0.000 A 
ATOM     16  C   UNL     1       0.395   9.594  20.912  0.00  0.00    +0.000 A 
ATOM     17  C   UNL     1       1.133   9.325  19.772  0.00  0.00    +0.000 A 
ATOM     18  C   UNL     1       1.870   8.226  19.301  0.00  0.00    +0.000 A 
ENDROOT
BRANCH  15  19
ATOM     19  N   UNL     1      -1.021  11.163  22.231  0.00  0.00    +0.000 N 
ATOM     20  O   UNL     1      -1.980  11.932  22.088  0.00  0.00    +0.000 OA
ATOM     21  O   UNL     1      -0.677  10.638  23.298  0.00  0.00    +0.000 OA
ENDBRANCH  15  19
TORSDOF 1
ENDMDL
MODEL 7
REMARK VINA RESULT:      -6.8      2.469      4.439
REMARK  Name = 
REMARK  2 active torsions:
REMARK  status: ('A' for Active; 'I' for Inactive)
REMARK    1  A    between atoms: C_1  and  N_2
REMARK    2  A    between atoms: C_15  and  N_16
REMARK                            x       y       z     vdW  Elec       q    Type
REMARK                         _______ _______ _______ _____ _____    ______ ____
ROOT
ATOM      1  C   UNL     1      -0.037   9.108  22.639  0.00  0.00    +0.000 C 
ATOM      2  N   UNL     1      -0.224  10.143  21.602  0.00  0.00    +0.000 N 
ATOM      3  C   UNL     1      -0.981  11.276  21.852  0.00  0.00    +0.000 A 
ATOM      4  C   UNL     1      -1.623  11.526  23.085  0.00  0.00    +0.000 A 
ATOM      5  C   UNL     1      -2.384  12.679  23.311  0.00  0.00    +0.000 A 
ATOM      6  C   UNL     1      -2.529  13.626  22.310  0.00  0.00    +0.000 A 
ATOM      7  C   UNL     1      -1.913  13.421  21.080  0.00  0.00    +0.000 A 
ATOM      8  C   UNL     1      -1.148  12.270  20.837  0.00  0.00    +0.000 A 
ATOM      9  C   UNL     1      -0.566  12.131  19.590  0.00  0.00    +0.000 A 
ATOM     10  C   UNL     1       0.183  10.989  19.370  0.00  0.00    +0.000 A 
ATOM     11  N   UNL     1       0.873  10.574  18.256  0.00  0.00    +0.000 NA
ATOM     12  C   UNL     1       1.445   9.371  18.574  0.00  0.00    +0.000 A 
ATOM     13  C   UNL     1       2.248   8.558  17.755  0.00  0.00    +0.000 A 
ATOM     14  C   UNL     1       2.749   7.356  18.250  0.00  0.00    +0.000 A 
ATOM     15  C   UNL     1       2.455   6.954  19.555  0.00  0.00    +0.000 A 
ATOM     16  C   UNL     1       1.652   7.752  20.386  0.00  0.00    +0.000 A 
ATOM     17  C   UNL     1       1.160   8.946  19.887  0.00  0.00    +0.000 A 
ATOM     18  C   UNL     1       0.356   9.979  20.394  0.00  0.00    +0.000 A 
ENDROOT
BRANCH  15  19
ATOM     19  N   UNL     1       2.998   5.681  20.057  0.00  0.00    +0.000 N 
ATOM     20  O   UNL     1       2.301   5.044  20.858  0.00  0.00    +0.000 OA
ATOM     21  O   UNL     1       4.112   5.335  19.645  0.00  0.00    +0.000 OA
ENDBRANCH  15  19
TORSDOF 1
ENDMDL
MODEL 8
REMARK VINA RESULT:      -6.6      5.529      8.898
REMARK  Name = 
REMARK  2 active torsions:
REMARK  status: ('A' for Active; 'I' for Inactive)
REMARK    1  A    between atoms: C_1  and  N_2
REMARK    2  A    between atoms: C_15  and  N_16
REMARK                            x       y       z     vdW  Elec       q    Type
REMARK                         _______ _______ _______ _____ _____    ______ ____
ROOT
ATOM      1  C   UNL     1      -0.365   9.363  22.577  0.00  0.00    +0.000 C 
ATOM      2  N   UNL     1      -0.116   9.863  21.209  0.00  0.00    +0.000 N 
ATOM      3  C   UNL     1       0.725   9.185  20.343  0.00  0.00    +0.000 A 
ATOM      4  C   UNL     1       1.400   7.993  20.687  0.00  0.00    +0.000 A 
ATOM      5  C   UNL     1       2.247   7.328  19.792  0.00  0.00    +0.000 A 
ATOM      6  C   UNL     1       2.447   7.831  18.518  0.00  0.00    +0.000 A 
ATOM      7  C   UNL     1       1.802   9.002  18.135  0.00  0.00    +0.000 A 
ATOM      8  C   UNL     1       0.951   9.682  19.021  0.00  0.00    +0.000 A 
ATOM      9  C   UNL     1       0.343  10.842  18.573  0.00  0.00    +0.000 A 
ATOM     10  C   UNL     1      -0.490  11.496  19.461  0.00  0.00    +0.000 A 
ATOM     11  N   UNL     1      -1.223  12.650  19.314  0.00  0.00    +0.000 NA
ATOM     12  C   UNL     1      -1.877  12.854  20.500  0.00  0.00    +0.000 A 
ATOM     13  C   UNL     1      -2.748  13.906  20.830  0.00  0.00    +0.000 A 
ATOM     14  C   UNL     1      -3.329  13.954  22.095  0.00  0.00    +0.000 A 
ATOM     15  C   UNL     1      -3.048  12.961  23.038  0.00  0.00    +0.000 A 
ATOM     16  C   UNL     1      -2.178  11.904  22.725  0.00  0.00    +0.000 A 
ATOM     17  C   UNL     1      -1.607  11.864  21.464  0.00  0.00    +0.000 A 
ATOM     18  C   UNL     1      -0.723  10.998  20.802  0.00  0.00    +0.000 A 
ENDROOT
BRANCH  15  19
ATOM     19  N   UNL     1      -3.676  13.030  24.367  0.00  0.00    +0.000 N 
ATOM     20  O   UNL     1      -4.401  12.085  24.702  0.00  0.00    +0.000 OA
ATOM     21  O   UNL     1      -3.437  14.028  25.059  0.00  0.00    +0.000 OA
ENDBRANCH  15  19
TORSDOF 1
ENDMDL
MODEL 9
REMARK VINA RESULT:      -6.6      3.499      6.780
REMARK  Name = 
REMARK  2 active torsions:
REMARK  status: ('A' for Active; 'I' for Inactive)
REMARK    1  A    between atoms: C_1  and  N_2
REMARK    2  A    between atoms: C_15  and  N_16
REMARK                            x       y       z     vdW  Elec       q    Type
REMARK                         _______ _______ _______ _____ _____    ______ ____
ROOT
ATOM      1  C   UNL     1       1.493   5.974  21.083  0.00  0.00    +0.000 C 
ATOM      2  N   UNL     1       2.251   5.924  19.816  0.00  0.00    +0.000 N 
ATOM      3  C   UNL     1       2.858   4.753  19.393  0.00  0.00    +0.000 A 
ATOM      4  C   UNL     1       2.806   3.543  20.120  0.00  0.00    +0.000 A 
ATOM      5  C   UNL     1       3.429   2.373  19.669  0.00  0.00    +0.000 A 
ATOM      6  C   UNL     1       4.127   2.372  18.473  0.00  0.00    +0.000 A 
ATOM      7  C   UNL     1       4.204   3.541  17.724  0.00  0.00    +0.000 A 
ATOM      8  C   UNL     1       3.586   4.722  18.162  0.00  0.00    +0.000 A 
ATOM      9  C   UNL     1       3.705   5.848  17.366  0.00  0.00    +0.000 A 
ATOM     10  C   UNL     1       3.089   7.002  17.817  0.00  0.00    +0.000 A 
ATOM     11  N   UNL     1       3.029   8.257  17.260  0.00  0.00    +0.000 NA
ATOM     12  C   UNL     1       2.290   9.031  18.115  0.00  0.00    +0.000 A 
ATOM     13  C   UNL     1       1.954  10.389  17.973  0.00  0.00    +0.000 A 
ATOM     14  C   UNL     1       1.187  11.019  18.950  0.00  0.00    +0.000 A 
ATOM     15  C   UNL     1       0.752  10.309  20.071  0.00  0.00    +0.000 A 
ATOM     16  C   UNL     1       1.080   8.953  20.230  0.00  0.00    +0.000 A 
ATOM     17  C   UNL     1       1.841   8.334  19.254  0.00  0.00    +0.000 A 
ATOM     18  C   UNL     1       2.351   7.040  19.062  0.00  0.00    +0.000 A 
ENDROOT
BRANCH  15  19
ATOM     19  N   UNL     1      -0.060  10.995  21.090  0.00  0.00    +0.000 N 
ATOM     20  O   UNL     1       0.273  10.849  22.273  0.00  0.00    +0.000 OA
ATOM     21  O   UNL     1      -1.018  11.670  20.694  0.00  0.00    +0.000 OA
ENDBRANCH  15  19
TORSDOF 1
ENDMDL
