MODEL 1
REMARK VINA RESULT:      -8.1      0.000      0.000
REMARK  Name = 
REMARK  6 active torsions:
REMARK  status: ('A' for Active; 'I' for Inactive)
REMARK    1  A    between atoms: C_1  and  N_2
REMARK    2  A    between atoms: N_2  and  C_3
REMARK    3  A    between atoms: N_2  and  C_4
REMARK    4  A    between atoms: C_4  and  C_5
REMARK    5  A    between atoms: C_5  and  N_6
REMARK    6  A    between atoms: C_17  and  C_18
REMARK                            x       y       z     vdW  Elec       q    Type
REMARK                         _______ _______ _______ _____ _____    ______ ____
ROOT
ATOM      1  N   UNL     1       4.865   5.645  16.448  0.00  0.00    +0.000 N 
ATOM      2  C   UNL     1       5.659   5.182  15.386  0.00  0.00    +0.000 A 
ATOM      3  O   UNL     1       6.101   5.876  14.471  0.00  0.00    +0.000 OA
ATOM      4  C   UNL     1       5.990   3.751  15.332  0.00  0.00    +0.000 A 
ATOM      5  C   UNL     1       5.441   2.883  16.173  0.00  0.00    +0.000 A 
ATOM      6  C   UNL     1       4.503   3.353  17.180  0.00  0.00    +0.000 A 
ATOM      7  C   UNL     1       3.893   2.398  17.977  0.00  0.00    +0.000 A 
ATOM      8  N   UNL     1       3.011   2.678  18.941  0.00  0.00    +0.000 NA
ATOM      9  C   UNL     1       2.703   3.955  19.151  0.00  0.00    +0.000 A 
ATOM     10  C   UNL     1       1.770   4.147  20.155  0.00  0.00    +0.000 A 
ATOM     11  C   UNL     1       1.313   5.409  20.520  0.00  0.00    +0.000 A 
ATOM     12  C   UNL     1       1.797   6.538  19.871  0.00  0.00    +0.000 A 
ATOM     13  C   UNL     1       2.754   6.328  18.849  0.00  0.00    +0.000 A 
ATOM     14  C   UNL     1       3.252   5.050  18.428  0.00  0.00    +0.000 A 
ATOM     15  C   UNL     1       4.204   4.720  17.374  0.00  0.00    +0.000 A 
ENDROOT
BRANCH  12  16
ATOM     16  C   UNL     1       1.341   7.897  20.238  0.00  0.00    +0.000 A 
ATOM     17  C   UNL     1       1.601   9.019  19.452  0.00  0.00    +0.000 A 
ATOM     18  N   UNL     1       1.189  10.282  19.726  0.00  0.00    +0.000 NA
ATOM     19  C   UNL     1       0.480  10.484  20.848  0.00  0.00    +0.000 A 
ATOM     20  C   UNL     1       0.025  11.758  21.158  0.00  0.00    +0.000 A 
ATOM     21  C   UNL     1      -0.718  12.012  22.317  0.00  0.00    +0.000 A 
ATOM     22  C   UNL     1      -1.005  10.973  23.196  0.00  0.00    +0.000 A 
ATOM     23  C   UNL     1      -0.565   9.684  22.906  0.00  0.00    +0.000 A 
ATOM     24  C   UNL     1       0.169   9.435  21.732  0.00  0.00    +0.000 A 
ATOM     25  C   UNL     1       0.604   8.144  21.405  0.00  0.00    +0.000 A 
ENDBRANCH  12  16
BRANCH   1  26
ATOM     26  C   UNL     1       4.803   7.101  16.538  0.00  0.00    +0.000 C 
BRANCH  26  27
ATOM     27  C   UNL     1       5.736   7.713  17.622  0.00  0.00    +0.000 C 
BRANCH  27  29
ATOM     28  C   UNL     1       7.950   8.768  17.639  0.00  0.00    +0.000 C 
ATOM     29  N   UNL     1       7.189   7.538  17.396  0.00  0.00    +0.000 NA
ATOM     30  C   UNL     1       7.733   6.479  18.250  0.00  0.00    +0.000 C 
ENDBRANCH  27  29
ENDBRANCH  26  27
ENDBRANCH   1  26
TORSDOF 4
ENDMDL
MODEL 2
REMARK VINA RESULT:      -7.9      0.930      1.573
REMARK  Name = 
REMARK  6 active torsions:
REMARK  status: ('A' for Active; 'I' for Inactive)
REMARK    1  A    between atoms: C_1  and  N_2
REMARK    2  A    between atoms: N_2  and  C_3
REMARK    3  A    between atoms: N_2  and  C_4
REMARK    4  A    between atoms: C_4  and  C_5
REMARK    5  A    between atoms: C_5  and  N_6
REMARK    6  A    between atoms: C_17  and  C_18
REMARK                            x       y       z     vdW  Elec       q    Type
REMARK                         _______ _______ _______ _____ _____    ______ ____
ROOT
ATOM      1  N   UNL     1       4.792   5.707  16.606  0.00  0.00    +0.000 N 
ATOM      2  C   UNL     1       5.538   5.171  15.544  0.00  0.00    +0.000 A 
ATOM      3  O   UNL     1       5.983   5.810  14.591  0.00  0.00    +0.000 OA
ATOM      4  C   UNL     1       5.811   3.726  15.537  0.00  0.00    +0.000 A 
ATOM      5  C   UNL     1       5.250   2.914  16.426  0.00  0.00    +0.000 A 
ATOM      6  C   UNL     1       4.359   3.460  17.437  0.00  0.00    +0.000 A 
ATOM      7  C   UNL     1       3.733   2.563  18.286  0.00  0.00    +0.000 A 
ATOM      8  N   UNL     1       2.890   2.916  19.260  0.00  0.00    +0.000 NA
ATOM      9  C   UNL     1       2.638   4.211  19.428  0.00  0.00    +0.000 A 
ATOM     10  C   UNL     1       1.741   4.479  20.446  0.00  0.00    +0.000 A 
ATOM     11  C   UNL     1       1.344   5.772  20.772  0.00  0.00    +0.000 A 
ATOM     12  C   UNL     1       1.855   6.855  20.068  0.00  0.00    +0.000 A 
ATOM     13  C   UNL     1       2.775   6.566  19.030  0.00  0.00    +0.000 A 
ATOM     14  C   UNL     1       3.211   5.255  18.648  0.00  0.00    +0.000 A 
ATOM     15  C   UNL     1       4.120   4.846  17.584  0.00  0.00    +0.000 A 
ENDROOT
BRANCH  12  16
ATOM     16  C   UNL     1       1.464   8.244  20.392  0.00  0.00    +0.000 A 
ATOM     17  C   UNL     1       1.323   8.703  21.701  0.00  0.00    +0.000 A 
ATOM     18  N   UNL     1       0.989   9.969  22.058  0.00  0.00    +0.000 NA
ATOM     19  C   UNL     1       0.765  10.861  21.079  0.00  0.00    +0.000 A 
ATOM     20  C   UNL     1       0.437  12.171  21.400  0.00  0.00    +0.000 A 
ATOM     21  C   UNL     1       0.195  13.131  20.411  0.00  0.00    +0.000 A 
ATOM     22  C   UNL     1       0.270  12.776  19.069  0.00  0.00    +0.000 A 
ATOM     23  C   UNL     1       0.602  11.469  18.720  0.00  0.00    +0.000 A 
ATOM     24  C   UNL     1       0.857  10.514  19.719  0.00  0.00    +0.000 A 
ATOM     25  C   UNL     1       1.215   9.198  19.395  0.00  0.00    +0.000 A 
ENDBRANCH  12  16
BRANCH   1  26
ATOM     26  C   UNL     1       4.791   7.166  16.640  0.00  0.00    +0.000 C 
BRANCH  26  27
ATOM     27  C   UNL     1       5.771   7.780  17.680  0.00  0.00    +0.000 C 
BRANCH  27  29
ATOM     28  C   UNL     1       8.010   8.783  17.645  0.00  0.00    +0.000 C 
ATOM     29  N   UNL     1       7.212   7.575  17.407  0.00  0.00    +0.000 NA
ATOM     30  C   UNL     1       7.756   6.490  18.229  0.00  0.00    +0.000 C 
ENDBRANCH  27  29
ENDBRANCH  26  27
ENDBRANCH   1  26
TORSDOF 4
ENDMDL
MODEL 3
REMARK VINA RESULT:      -7.5      3.337      9.062
REMARK  Name = 
REMARK  6 active torsions:
REMARK  status: ('A' for Active; 'I' for Inactive)
REMARK    1  A    between atoms: C_1  and  N_2
REMARK    2  A    between atoms: N_2  and  C_3
REMARK    3  A    between atoms: N_2  and  C_4
REMARK    4  A    between atoms: C_4  and  C_5
REMARK    5  A    between atoms: C_5  and  N_6
REMARK    6  A    between atoms: C_17  and  C_18
REMARK                            x       y       z     vdW  Elec       q    Type
REMARK                         _______ _______ _______ _____ _____    ______ ____
ROOT
ATOM      1  N   UNL     1      -0.478  13.517  19.769  0.00  0.00    +0.000 N 
ATOM      2  C   UNL     1      -0.810  14.874  19.624  0.00  0.00    +0.000 A 
ATOM      3  O   UNL     1      -0.471  15.595  18.686  0.00  0.00    +0.000 OA
ATOM      4  C   UNL     1      -1.613  15.515  20.675  0.00  0.00    +0.000 A 
ATOM      5  C   UNL     1      -1.901  14.881  21.806  0.00  0.00    +0.000 A 
ATOM      6  C   UNL     1      -1.428  13.521  22.009  0.00  0.00    +0.000 A 
ATOM      7  C   UNL     1      -1.681  12.935  23.239  0.00  0.00    +0.000 A 
ATOM      8  N   UNL     1      -1.308  11.696  23.570  0.00  0.00    +0.000 NA
ATOM      9  C   UNL     1      -0.655  10.978  22.661  0.00  0.00    +0.000 A 
ATOM     10  C   UNL     1      -0.294   9.716  23.098  0.00  0.00    +0.000 A 
ATOM     11  C   UNL     1       0.402   8.817  22.297  0.00  0.00    +0.000 A 
ATOM     12  C   UNL     1       0.757   9.171  21.001  0.00  0.00    +0.000 A 
ATOM     13  C   UNL     1       0.378  10.464  20.565  0.00  0.00    +0.000 A 
ATOM     14  C   UNL     1      -0.331  11.432  21.351  0.00  0.00    +0.000 A 
ATOM     15  C   UNL     1      -0.739  12.790  21.015  0.00  0.00    +0.000 A 
ENDROOT
BRANCH  12  16
ATOM     16  C   UNL     1       1.489   8.238  20.117  0.00  0.00    +0.000 A 
ATOM     17  C   UNL     1       1.869   8.571  18.817  0.00  0.00    +0.000 A 
ATOM     18  N   UNL     1       2.560   7.767  17.970  0.00  0.00    +0.000 NA
ATOM     19  C   UNL     1       2.904   6.543  18.404  0.00  0.00    +0.000 A 
ATOM     20  C   UNL     1       3.625   5.694  17.577  0.00  0.00    +0.000 A 
ATOM     21  C   UNL     1       4.003   4.411  17.989  0.00  0.00    +0.000 A 
ATOM     22  C   UNL     1       3.644   3.957  19.254  0.00  0.00    +0.000 A 
ATOM     23  C   UNL     1       2.925   4.792  20.107  0.00  0.00    +0.000 A 
ATOM     24  C   UNL     1       2.561   6.083  19.689  0.00  0.00    +0.000 A 
ATOM     25  C   UNL     1       1.856   6.952  20.535  0.00  0.00    +0.000 A 
ENDBRANCH  12  16
BRANCH   1  26
ATOM     26  C   UNL     1       0.103  12.927  18.566  0.00  0.00    +0.000 C 
BRANCH  26  27
ATOM     27  C   UNL     1      -0.941  12.349  17.570  0.00  0.00    +0.000 C 
BRANCH  27  29
ATOM     28  C   UNL     1      -3.230  11.653  18.113  0.00  0.00    +0.000 C 
ATOM     29  N   UNL     1      -1.812  11.276  18.100  0.00  0.00    +0.000 NA
ATOM     30  C   UNL     1      -1.668  10.044  17.319  0.00  0.00    +0.000 C 
ENDBRANCH  27  29
ENDBRANCH  26  27
ENDBRANCH   1  26
TORSDOF 4
ENDMDL
MODEL 4
REMARK VINA RESULT:      -7.5      4.648      9.993
REMARK  Name = 
REMARK  6 active torsions:
REMARK  status: ('A' for Active; 'I' for Inactive)
REMARK    1  A    between atoms: C_1  and  N_2
REMARK    2  A    between atoms: N_2  and  C_3
REMARK    3  A    between atoms: N_2  and  C_4
REMARK    4  A    between atoms: C_4  and  C_5
REMARK    5  A    between atoms: C_5  and  N_6
REMARK    6  A    between atoms: C_17  and  C_18
REMARK                            x       y       z     vdW  Elec       q    Type
REMARK                         _______ _______ _______ _____ _____    ______ ____
ROOT
ATOM      1  N   UNL     1      -4.601  12.129  18.882  0.00  0.00    +0.000 N 
ATOM      2  C   UNL     1      -5.871  12.628  18.546  0.00  0.00    +0.000 A 
ATOM      3  O   UNL     1      -6.494  12.360  17.519  0.00  0.00    +0.000 OA
ATOM      4  C   UNL     1      -6.524  13.562  19.474  0.00  0.00    +0.000 A 
ATOM      5  C   UNL     1      -5.883  14.045  20.533  0.00  0.00    +0.000 A 
ATOM      6  C   UNL     1      -4.513  13.633  20.793  0.00  0.00    +0.000 A 
ATOM      7  C   UNL     1      -3.860  14.230  21.859  0.00  0.00    +0.000 A 
ATOM      8  N   UNL     1      -2.603  13.954  22.218  0.00  0.00    +0.000 NA
ATOM      9  C   UNL     1      -1.938  13.047  21.508  0.00  0.00    +0.000 A 
ATOM     10  C   UNL     1      -0.640  12.841  21.941  0.00  0.00    +0.000 A 
ATOM     11  C   UNL     1       0.220  11.937  21.325  0.00  0.00    +0.000 A 
ATOM     12  C   UNL     1      -0.216  11.197  20.234  0.00  0.00    +0.000 A 
ATOM     13  C   UNL     1      -1.548  11.415  19.803  0.00  0.00    +0.000 A 
ATOM     14  C   UNL     1      -2.471  12.339  20.395  0.00  0.00    +0.000 A 
ATOM     15  C   UNL     1      -3.841  12.663  20.016  0.00  0.00    +0.000 A 
ENDROOT
BRANCH  12  16
ATOM     16  C   UNL     1       0.667  10.220  19.558  0.00  0.00    +0.000 A 
ATOM     17  C   UNL     1       1.230  10.452  18.304  0.00  0.00    +0.000 A 
ATOM     18  N   UNL     1       2.063   9.605  17.648  0.00  0.00    +0.000 NA
ATOM     19  C   UNL     1       2.370   8.440  18.241  0.00  0.00    +0.000 A 
ATOM     20  C   UNL     1       3.231   7.551  17.612  0.00  0.00    +0.000 A 
ATOM     21  C   UNL     1       3.578   6.326  18.194  0.00  0.00    +0.000 A 
ATOM     22  C   UNL     1       3.045   5.972  19.429  0.00  0.00    +0.000 A 
ATOM     23  C   UNL     1       2.182   6.848  20.084  0.00  0.00    +0.000 A 
ATOM     24  C   UNL     1       1.850   8.082  19.498  0.00  0.00    +0.000 A 
ATOM     25  C   UNL     1       1.002   8.992  20.145  0.00  0.00    +0.000 A 
ENDBRANCH  12  16
BRANCH   1  26
ATOM     26  C   UNL     1      -4.159  11.035  18.023  0.00  0.00    +0.000 C 
BRANCH  26  27
ATOM     27  C   UNL     1      -3.822  11.463  16.566  0.00  0.00    +0.000 C 
BRANCH  27  29
ATOM     28  C   UNL     1      -2.101   9.731  16.805  0.00  0.00    +0.000 C 
ATOM     29  N   UNL     1      -2.670  10.773  15.942  0.00  0.00    +0.000 NA
ATOM     30  C   UNL     1      -3.048  10.161  14.665  0.00  0.00    +0.000 C 
ENDBRANCH  27  29
ENDBRANCH  26  27
ENDBRANCH   1  26
TORSDOF 4
ENDMDL
MODEL 5
REMARK VINA RESULT:      -7.5      3.367      8.813
REMARK  Name = 
REMARK  6 active torsions:
REMARK  status: ('A' for Active; 'I' for Inactive)
REMARK    1  A    between atoms: C_1  and  N_2
REMARK    2  A    between atoms: N_2  and  C_3
REMARK    3  A    between atoms: N_2  and  C_4
REMARK    4  A    between atoms: C_4  and  C_5
REMARK    5  A    between atoms: C_5  and  N_6
REMARK    6  A    between atoms: C_17  and  C_18
REMARK                            x       y       z     vdW  Elec       q    Type
REMARK                         _______ _______ _______ _____ _____    ______ ____
ROOT
ATOM      1  N   UNL     1      -0.382  13.671  19.701  0.00  0.00    +0.000 N 
ATOM      2  C   UNL     1      -0.683  15.035  19.557  0.00  0.00    +0.000 A 
ATOM      3  O   UNL     1      -0.294  15.757  18.639  0.00  0.00    +0.000 OA
ATOM      4  C   UNL     1      -1.513  15.683  20.582  0.00  0.00    +0.000 A 
ATOM      5  C   UNL     1      -1.857  15.045  21.695  0.00  0.00    +0.000 A 
ATOM      6  C   UNL     1      -1.418  13.675  21.904  0.00  0.00    +0.000 A 
ATOM      7  C   UNL     1      -1.729  13.085  23.118  0.00  0.00    +0.000 A 
ATOM      8  N   UNL     1      -1.393  11.836  23.452  0.00  0.00    +0.000 NA
ATOM      9  C   UNL     1      -0.719  11.113  22.562  0.00  0.00    +0.000 A 
ATOM     10  C   UNL     1      -0.398   9.840  23.002  0.00  0.00    +0.000 A 
ATOM     11  C   UNL     1       0.311   8.935  22.220  0.00  0.00    +0.000 A 
ATOM     12  C   UNL     1       0.722   9.292  20.942  0.00  0.00    +0.000 A 
ATOM     13  C   UNL     1       0.384  10.596  20.503  0.00  0.00    +0.000 A 
ATOM     14  C   UNL     1      -0.335  11.570  21.270  0.00  0.00    +0.000 A 
ATOM     15  C   UNL     1      -0.705  12.939  20.931  0.00  0.00    +0.000 A 
ENDROOT
BRANCH  12  16
ATOM     16  C   UNL     1       1.470   8.352  20.078  0.00  0.00    +0.000 A 
ATOM     17  C   UNL     1       1.877   8.677  18.785  0.00  0.00    +0.000 A 
ATOM     18  N   UNL     1       2.584   7.867  17.957  0.00  0.00    +0.000 NA
ATOM     19  C   UNL     1       2.915   6.644  18.405  0.00  0.00    +0.000 A 
ATOM     20  C   UNL     1       3.651   5.789  17.597  0.00  0.00    +0.000 A 
ATOM     21  C   UNL     1       4.017   4.507  18.024  0.00  0.00    +0.000 A 
ATOM     22  C   UNL     1       3.632   4.062  19.284  0.00  0.00    +0.000 A 
ATOM     23  C   UNL     1       2.897   4.903  20.117  0.00  0.00    +0.000 A 
ATOM     24  C   UNL     1       2.545   6.193  19.685  0.00  0.00    +0.000 A 
ATOM     25  C   UNL     1       1.825   7.068  20.511  0.00  0.00    +0.000 A 
ENDBRANCH  12  16
BRANCH   1  26
ATOM     26  C   UNL     1       0.234  13.080  18.517  0.00  0.00    +0.000 C 
BRANCH  26  27
ATOM     27  C   UNL     1       1.778  12.926  18.611  0.00  0.00    +0.000 C 
BRANCH  27  29
ATOM     28  C   UNL     1       2.979  13.740  20.590  0.00  0.00    +0.000 C 
ATOM     29  N   UNL     1       2.502  14.056  19.239  0.00  0.00    +0.000 NA
ATOM     30  C   UNL     1       3.650  14.465  18.426  0.00  0.00    +0.000 C 
ENDBRANCH  27  29
ENDBRANCH  26  27
ENDBRANCH   1  26
TORSDOF 4
ENDMDL
MODEL 6
REMARK VINA RESULT:      -7.2      2.219      4.540
REMARK  Name = 
REMARK  6 active torsions:
REMARK  status: ('A' for Active; 'I' for Inactive)
REMARK    1  A    between atoms: C_1  and  N_2
REMARK    2  A    between atoms: N_2  and  C_3
REMARK    3  A    between atoms: N_2  and  C_4
REMARK    4  A    between atoms: C_4  and  C_5
REMARK    5  A    between atoms: C_5  and  N_6
REMARK    6  A    between atoms: C_17  and  C_18
REMARK                            x       y       z     vdW  Elec       q    Type
REMARK                         _______ _______ _______ _____ _____    ______ ____
ROOT
ATOM      1  N   UNL     1       3.473   4.731  19.604  0.00  0.00    +0.000 N 
ATOM      2  C   UNL     1       4.225   3.545  19.562  0.00  0.00    +0.000 A 
ATOM      3  O   UNL     1       4.324   2.731  20.479  0.00  0.00    +0.000 OA
ATOM      4  C   UNL     1       4.978   3.237  18.338  0.00  0.00    +0.000 A 
ATOM      5  C   UNL     1       5.073   4.115  17.346  0.00  0.00    +0.000 A 
ATOM      6  C   UNL     1       4.409   5.404  17.461  0.00  0.00    +0.000 A 
ATOM      7  C   UNL     1       4.609   6.316  16.438  0.00  0.00    +0.000 A 
ATOM      8  N   UNL     1       4.066   7.537  16.406  0.00  0.00    +0.000 NA
ATOM      9  C   UNL     1       3.281   7.897  17.418  0.00  0.00    +0.000 A 
ATOM     10  C   UNL     1       2.780   9.182  17.307  0.00  0.00    +0.000 A 
ATOM     11  C   UNL     1       1.946   9.744  18.268  0.00  0.00    +0.000 A 
ATOM     12  C   UNL     1       1.582   9.010  19.389  0.00  0.00    +0.000 A 
ATOM     13  C   UNL     1       2.099   7.695  19.488  0.00  0.00    +0.000 A 
ATOM     14  C   UNL     1       2.969   7.070  18.534  0.00  0.00    +0.000 A 
ATOM     15  C   UNL     1       3.579   5.747  18.553  0.00  0.00    +0.000 A 
ENDROOT
BRANCH  12  16
ATOM     16  C   UNL     1       0.690   9.572  20.427  0.00  0.00    +0.000 A 
ATOM     17  C   UNL     1       0.645   9.081  21.731  0.00  0.00    +0.000 A 
ATOM     18  N   UNL     1      -0.134   9.569  22.728  0.00  0.00    +0.000 NA
ATOM     19  C   UNL     1      -0.941  10.606  22.446  0.00  0.00    +0.000 A 
ATOM     20  C   UNL     1      -1.743  11.147  23.441  0.00  0.00    +0.000 A 
ATOM     21  C   UNL     1      -2.598  12.227  23.190  0.00  0.00    +0.000 A 
ATOM     22  C   UNL     1      -2.665  12.774  21.913  0.00  0.00    +0.000 A 
ATOM     23  C   UNL     1      -1.866  12.253  20.898  0.00  0.00    +0.000 A 
ATOM     24  C   UNL     1      -1.000  11.177  21.163  0.00  0.00    +0.000 A 
ATOM     25  C   UNL     1      -0.169  10.648  20.165  0.00  0.00    +0.000 A 
ENDBRANCH  12  16
BRANCH   1  26
ATOM     26  C   UNL     1       2.581   4.815  20.757  0.00  0.00    +0.000 C 
BRANCH  26  27
ATOM     27  C   UNL     1       1.086   4.536  20.429  0.00  0.00    +0.000 C 
BRANCH  27  29
ATOM     28  C   UNL     1       0.872   2.361  19.316  0.00  0.00    +0.000 C 
ATOM     29  N   UNL     1       0.652   3.126  20.549  0.00  0.00    +0.000 NA
ATOM     30  C   UNL     1       1.351   2.449  21.645  0.00  0.00    +0.000 C 
ENDBRANCH  27  29
ENDBRANCH  26  27
ENDBRANCH   1  26
TORSDOF 4
ENDMDL
MODEL 7
REMARK VINA RESULT:      -7.0      3.399      9.167
REMARK  Name = 
REMARK  6 active torsions:
REMARK  status: ('A' for Active; 'I' for Inactive)
REMARK    1  A    between atoms: C_1  and  N_2
REMARK    2  A    between atoms: N_2  and  C_3
REMARK    3  A    between atoms: N_2  and  C_4
REMARK    4  A    between atoms: C_4  and  C_5
REMARK    5  A    between atoms: C_5  and  N_6
REMARK    6  A    between atoms: C_17  and  C_18
REMARK                            x       y       z     vdW  Elec       q    Type
REMARK                         _______ _______ _______ _____ _____    ______ ____
ROOT
ATOM      1  N   UNL     1      -0.479  13.604  19.760  0.00  0.00    +0.000 N 
ATOM      2  C   UNL     1      -0.727  14.958  19.479  0.00  0.00    +0.000 A 
ATOM      3  O   UNL     1      -0.285  15.577  18.512  0.00  0.00    +0.000 OA
ATOM      4  C   UNL     1      -1.565  15.725  20.412  0.00  0.00    +0.000 A 
ATOM      5  C   UNL     1      -1.965  15.206  21.567  0.00  0.00    +0.000 A 
ATOM      6  C   UNL     1      -1.581  13.848  21.917  0.00  0.00    +0.000 A 
ATOM      7  C   UNL     1      -1.950  13.384  23.169  0.00  0.00    +0.000 A 
ATOM      8  N   UNL     1      -1.668  12.162  23.628  0.00  0.00    +0.000 NA
ATOM      9  C   UNL     1      -0.993  11.337  22.832  0.00  0.00    +0.000 A 
ATOM     10  C   UNL     1      -0.731  10.102  23.399  0.00  0.00    +0.000 A 
ATOM     11  C   UNL     1      -0.031   9.105  22.728  0.00  0.00    +0.000 A 
ATOM     12  C   UNL     1       0.432   9.328  21.437  0.00  0.00    +0.000 A 
ATOM     13  C   UNL     1       0.154  10.594  20.868  0.00  0.00    +0.000 A 
ATOM     14  C   UNL     1      -0.554  11.659  21.517  0.00  0.00    +0.000 A 
ATOM     15  C   UNL     1      -0.865  13.001  21.040  0.00  0.00    +0.000 A 
ENDROOT
BRANCH  12  16
ATOM     16  C   UNL     1       1.172   8.287  20.690  0.00  0.00    +0.000 A 
ATOM     17  C   UNL     1       1.218   6.955  21.096  0.00  0.00    +0.000 A 
ATOM     18  N   UNL     1       1.860   5.955  20.440  0.00  0.00    +0.000 NA
ATOM     19  C   UNL     1       2.517   6.264  19.310  0.00  0.00    +0.000 A 
ATOM     20  C   UNL     1       3.173   5.270  18.598  0.00  0.00    +0.000 A 
ATOM     21  C   UNL     1       3.870   5.549  17.416  0.00  0.00    +0.000 A 
ATOM     22  C   UNL     1       3.923   6.853  16.936  0.00  0.00    +0.000 A 
ATOM     23  C   UNL     1       3.268   7.869  17.629  0.00  0.00    +0.000 A 
ATOM     24  C   UNL     1       2.560   7.577  18.807  0.00  0.00    +0.000 A 
ATOM     25  C   UNL     1       1.874   8.577  19.511  0.00  0.00    +0.000 A 
ENDBRANCH  12  16
BRANCH   1  26
ATOM     26  C   UNL     1       0.151  12.885  18.657  0.00  0.00    +0.000 C 
BRANCH  26  27
ATOM     27  C   UNL     1      -0.850  12.296  17.624  0.00  0.00    +0.000 C 
BRANCH  27  29
ATOM     28  C   UNL     1      -3.155  11.603  18.101  0.00  0.00    +0.000 C 
ATOM     29  N   UNL     1      -1.738  11.222  18.127  0.00  0.00    +0.000 NA
ATOM     30  C   UNL     1      -1.574   9.992  17.348  0.00  0.00    +0.000 C 
ENDBRANCH  27  29
ENDBRANCH  26  27
ENDBRANCH   1  26
TORSDOF 4
ENDMDL
MODEL 8
REMARK VINA RESULT:      -6.9      5.118     10.618
REMARK  Name = 
REMARK  6 active torsions:
REMARK  status: ('A' for Active; 'I' for Inactive)
REMARK    1  A    between atoms: C_1  and  N_2
REMARK    2  A    between atoms: N_2  and  C_3
REMARK    3  A    between atoms: N_2  and  C_4
REMARK    4  A    between atoms: C_4  and  C_5
REMARK    5  A    between atoms: C_5  and  N_6
REMARK    6  A    between atoms: C_17  and  C_18
REMARK                            x       y       z     vdW  Elec       q    Type
REMARK                         _______ _______ _______ _____ _____    ______ ____
ROOT
ATOM      1  N   UNL     1      -5.334  12.643  18.798  0.00  0.00    +0.000 N 
ATOM      2  C   UNL     1      -6.481  13.113  18.138  0.00  0.00    +0.000 A 
ATOM      3  O   UNL     1      -6.911  12.689  17.066  0.00  0.00    +0.000 OA
ATOM      4  C   UNL     1      -7.239  14.215  18.749  0.00  0.00    +0.000 A 
ATOM      5  C   UNL     1      -6.783  14.855  19.819  0.00  0.00    +0.000 A 
ATOM      6  C   UNL     1      -5.517  14.455  20.413  0.00  0.00    +0.000 A 
ATOM      7  C   UNL     1      -5.045  15.209  21.474  0.00  0.00    +0.000 A 
ATOM      8  N   UNL     1      -3.900  14.963  22.117  0.00  0.00    +0.000 NA
ATOM      9  C   UNL     1      -3.170  13.926  21.715  0.00  0.00    +0.000 A 
ATOM     10  C   UNL     1      -1.995  13.760  22.427  0.00  0.00    +0.000 A 
ATOM     11  C   UNL     1      -1.093  12.737  22.153  0.00  0.00    +0.000 A 
ATOM     12  C   UNL     1      -1.358  11.831  21.135  0.00  0.00    +0.000 A 
ATOM     13  C   UNL     1      -2.565  12.010  20.417  0.00  0.00    +0.000 A 
ATOM     14  C   UNL     1      -3.524  13.050  20.651  0.00  0.00    +0.000 A 
ATOM     15  C   UNL     1      -4.772  13.344  19.957  0.00  0.00    +0.000 A 
ENDROOT
BRANCH  12  16
ATOM     16  C   UNL     1      -0.426  10.725  20.821  0.00  0.00    +0.000 A 
ATOM     17  C   UNL     1      -0.081   9.743  21.748  0.00  0.00    +0.000 A 
ATOM     18  N   UNL     1       0.748   8.695  21.510  0.00  0.00    +0.000 NA
ATOM     19  C   UNL     1       1.294   8.589  20.288  0.00  0.00    +0.000 A 
ATOM     20  C   UNL     1       2.135   7.524  19.996  0.00  0.00    +0.000 A 
ATOM     21  C   UNL     1       2.726   7.376  18.736  0.00  0.00    +0.000 A 
ATOM     22  C   UNL     1       2.482   8.319  17.743  0.00  0.00    +0.000 A 
ATOM     23  C   UNL     1       1.637   9.395  18.008  0.00  0.00    +0.000 A 
ATOM     24  C   UNL     1       1.038   9.528  19.272  0.00  0.00    +0.000 A 
ATOM     25  C   UNL     1       0.167  10.589  19.558  0.00  0.00    +0.000 A 
ENDBRANCH  12  16
BRANCH   1  26
ATOM     26  C   UNL     1      -4.806  11.402  18.238  0.00  0.00    +0.000 C 
BRANCH  26  27
ATOM     27  C   UNL     1      -4.084  11.576  16.871  0.00  0.00    +0.000 C 
BRANCH  27  29
ATOM     28  C   UNL     1      -2.945   9.499  17.510  0.00  0.00    +0.000 C 
ATOM     29  N   UNL     1      -2.934  10.675  16.632  0.00  0.00    +0.000 NA
ATOM     30  C   UNL     1      -2.903  10.215  15.241  0.00  0.00    +0.000 C 
ENDBRANCH  27  29
ENDBRANCH  26  27
ENDBRANCH   1  26
TORSDOF 4
ENDMDL
MODEL 9
REMARK VINA RESULT:      -6.9      5.312     11.212
REMARK  Name = 
REMARK  6 active torsions:
REMARK  status: ('A' for Active; 'I' for Inactive)
REMARK    1  A    between atoms: C_1  and  N_2
REMARK    2  A    between atoms: N_2  and  C_3
REMARK    3  A    between atoms: N_2  and  C_4
REMARK    4  A    between atoms: C_4  and  C_5
REMARK    5  A    between atoms: C_5  and  N_6
REMARK    6  A    between atoms: C_17  and  C_18
REMARK                            x       y       z     vdW  Elec       q    Type
REMARK                         _______ _______ _______ _____ _____    ______ ____
ROOT
ATOM      1  N   UNL     1      -5.915  12.853  20.437  0.00  0.00    +0.000 N 
ATOM      2  C   UNL     1      -7.164  13.315  19.993  0.00  0.00    +0.000 A 
ATOM      3  O   UNL     1      -7.748  12.929  18.980  0.00  0.00    +0.000 OA
ATOM      4  C   UNL     1      -7.845  14.356  20.775  0.00  0.00    +0.000 A 
ATOM      5  C   UNL     1      -7.244  14.958  21.794  0.00  0.00    +0.000 A 
ATOM      6  C   UNL     1      -5.889  14.574  22.158  0.00  0.00    +0.000 A 
ATOM      7  C   UNL     1      -5.275  15.290  23.172  0.00  0.00    +0.000 A 
ATOM      8  N   UNL     1      -4.036  15.053  23.613  0.00  0.00    +0.000 NA
ATOM      9  C   UNL     1      -3.351  14.065  23.044  0.00  0.00    +0.000 A 
ATOM     10  C   UNL     1      -2.074  13.905  23.552  0.00  0.00    +0.000 A 
ATOM     11  C   UNL     1      -1.199  12.930  23.084  0.00  0.00    +0.000 A 
ATOM     12  C   UNL     1      -1.597  12.067  22.071  0.00  0.00    +0.000 A 
ATOM     13  C   UNL     1      -2.908  12.239  21.563  0.00  0.00    +0.000 A 
ATOM     14  C   UNL     1      -3.845  13.231  22.002  0.00  0.00    +0.000 A 
ATOM     15  C   UNL     1      -5.195  13.514  21.530  0.00  0.00    +0.000 A 
ENDROOT
BRANCH  12  16
ATOM     16  C   UNL     1      -0.697  11.012  21.554  0.00  0.00    +0.000 A 
ATOM     17  C   UNL     1      -0.209   9.978  22.351  0.00  0.00    +0.000 A 
ATOM     18  N   UNL     1       0.598   8.973  21.928  0.00  0.00    +0.000 NA
ATOM     19  C   UNL     1       0.973   8.969  20.638  0.00  0.00    +0.000 A 
ATOM     20  C   UNL     1       1.785   7.950  20.158  0.00  0.00    +0.000 A 
ATOM     21  C   UNL     1       2.199   7.908  18.822  0.00  0.00    +0.000 A 
ATOM     22  C   UNL     1       1.804   8.910  17.943  0.00  0.00    +0.000 A 
ATOM     23  C   UNL     1       0.984   9.941  18.397  0.00  0.00    +0.000 A 
ATOM     24  C   UNL     1       0.562   9.968  19.738  0.00  0.00    +0.000 A 
ATOM     25  C   UNL     1      -0.281  10.982  20.216  0.00  0.00    +0.000 A 
ENDBRANCH  12  16
BRANCH   1  26
ATOM     26  C   UNL     1      -5.449  11.662  19.733  0.00  0.00    +0.000 C 
BRANCH  26  27
ATOM     27  C   UNL     1      -4.625  11.961  18.448  0.00  0.00    +0.000 C 
BRANCH  27  29
ATOM     28  C   UNL     1      -4.255  11.117  16.175  0.00  0.00    +0.000 C 
ATOM     29  N   UNL     1      -4.299  10.789  17.605  0.00  0.00    +0.000 NA
ATOM     30  C   UNL     1      -3.010  10.205  17.986  0.00  0.00    +0.000 C 
ENDBRANCH  27  29
ENDBRANCH  26  27
ENDBRANCH   1  26
TORSDOF 4
ENDMDL
