MODEL 1
REMARK VINA RESULT:      -8.7      0.000      0.000
REMARK  Name = 
REMARK  7 active torsions:
REMARK  status: ('A' for Active; 'I' for Inactive)
REMARK    1  A    between atoms: C_1  and  C_2
REMARK    2  A    between atoms: C_6  and  C_7
REMARK    3  A    between atoms: C_7  and  S_8
REMARK    4  A    between atoms: S_8  and  C_9
REMARK    5  A    between atoms: N_15  and  C_16
REMARK    6  A    between atoms: C_21  and  C_22
REMARK    7  A    between atoms: C_26  and  O_27
REMARK                            x       y       z     vdW  Elec       q    Type
REMARK                         _______ _______ _______ _____ _____    ______ ____
ROOT
ATOM      1  C   UNL     1       1.359   8.438  20.473  0.00  0.00    +0.000 A 
ATOM      2  N   UNL     1       1.125   8.561  21.741  0.00  0.00    +0.000 NA
ATOM      3  C   UNL     1       0.538   9.725  22.212  0.00  0.00    +0.000 A 
ATOM      4  O   UNL     1       0.258   9.889  23.393  0.00  0.00    +0.000 OA
ATOM      5  C   UNL     1       0.315  10.855  21.254  0.00  0.00    +0.000 A 
ATOM      6  C   UNL     1       0.567  10.626  19.958  0.00  0.00    +0.000 A 
ATOM      7  N   UNL     1       1.027   9.395  19.515  0.00  0.00    +0.000 N 
ATOM      8  C   UNL     1       1.424   9.238  18.107  0.00  0.00    +0.000 C 
ATOM      9  N   UNL     1       0.353  11.661  19.060  0.00  0.00    +0.000 N 
ATOM     10  C   UNL     1       0.665  12.945  19.435  0.00  0.00    +0.000 C 
ATOM     11  O   UNL     1       1.237  13.715  18.674  0.00  0.00    +0.000 OA
ATOM     12  C   UNL     1       0.146  13.372  20.782  0.00  0.00    +0.000 C 
ATOM     13  C   UNL     1      -0.217  12.193  21.733  0.00  0.00    +0.000 C 
ATOM     14  H   UNL     1      -0.628  11.652  18.780  0.00  0.00    +0.000 HD
ENDROOT
BRANCH  13  15
ATOM     15  C   UNL     1      -1.746  12.240  21.864  0.00  0.00    +0.000 A 
ATOM     16  C   UNL     1      -2.344  12.153  23.134  0.00  0.00    +0.000 A 
ATOM     17  C   UNL     1      -3.677  12.538  23.313  0.00  0.00    +0.000 A 
ATOM     18  C   UNL     1      -4.414  13.044  22.241  0.00  0.00    +0.000 A 
ATOM     19  C   UNL     1      -3.835  13.081  20.979  0.00  0.00    +0.000 A 
ATOM     20  C   UNL     1      -2.542  12.632  20.779  0.00  0.00    +0.000 A 
BRANCH  19  21
ATOM     21  O   UNL     1      -4.469  13.626  19.904  0.00  0.00    +0.000 OA
ATOM     22  H   UNL     1      -4.822  12.904  19.359  0.00  0.00    +0.000 HD
ENDBRANCH  19  21
ENDBRANCH  13  15
BRANCH   1  23
ATOM     23  S   UNL     1       2.349   7.074  19.930  0.00  0.00    +0.000 S 
BRANCH  23  24
ATOM     24  C   UNL     1       1.651   5.553  20.620  0.00  0.00    +0.000 C 
BRANCH  24  30
ATOM     25  C   UNL     1       4.243   3.689  16.675  0.00  0.00    +0.000 C 
ATOM     26  C   UNL     1       3.183   3.515  17.724  0.00  0.00    +0.000 A 
ATOM     27  C   UNL     1       2.388   2.365  17.746  0.00  0.00    +0.000 A 
ATOM     28  C   UNL     1       1.389   2.227  18.710  0.00  0.00    +0.000 A 
ATOM     29  C   UNL     1       1.170   3.233  19.657  0.00  0.00    +0.000 A 
ATOM     30  C   UNL     1       1.949   4.400  19.660  0.00  0.00    +0.000 A 
ATOM     31  C   UNL     1       2.960   4.520  18.683  0.00  0.00    +0.000 A 
ENDBRANCH  24  30
ENDBRANCH  23  24
ENDBRANCH   1  23
TORSDOF 5
ENDMDL
MODEL 2
REMARK VINA RESULT:      -8.2      0.967      1.317
REMARK  Name = 
REMARK  7 active torsions:
REMARK  status: ('A' for Active; 'I' for Inactive)
REMARK    1  A    between atoms: C_1  and  C_2
REMARK    2  A    between atoms: C_6  and  C_7
REMARK    3  A    between atoms: C_7  and  S_8
REMARK    4  A    between atoms: S_8  and  C_9
REMARK    5  A    between atoms: N_15  and  C_16
REMARK    6  A    between atoms: C_21  and  C_22
REMARK    7  A    between atoms: C_26  and  O_27
REMARK                            x       y       z     vdW  Elec       q    Type
REMARK                         _______ _______ _______ _____ _____    ______ ____
ROOT
ATOM      1  C   UNL     1       1.379   8.679  20.217  0.00  0.00    +0.000 A 
ATOM      2  N   UNL     1       1.100   8.864  21.469  0.00  0.00    +0.000 NA
ATOM      3  C   UNL     1       0.617  10.096  21.882  0.00  0.00    +0.000 A 
ATOM      4  O   UNL     1       0.301  10.323  23.043  0.00  0.00    +0.000 OA
ATOM      5  C   UNL     1       0.557  11.214  20.886  0.00  0.00    +0.000 A 
ATOM      6  C   UNL     1       0.844  10.921  19.610  0.00  0.00    +0.000 A 
ATOM      7  N   UNL     1       1.193   9.636  19.222  0.00  0.00    +0.000 N 
ATOM      8  C   UNL     1       1.637   9.398  17.839  0.00  0.00    +0.000 C 
ATOM      9  N   UNL     1       0.781  11.946  18.678  0.00  0.00    +0.000 N 
ATOM     10  C   UNL     1       1.207  13.201  19.035  0.00  0.00    +0.000 C 
ATOM     11  O   UNL     1       1.891  13.885  18.284  0.00  0.00    +0.000 OA
ATOM     12  C   UNL     1       0.674  13.719  20.345  0.00  0.00    +0.000 C 
ATOM     13  C   UNL     1       0.147  12.613  21.305  0.00  0.00    +0.000 C 
ATOM     14  H   UNL     1      -0.182  12.029  18.350  0.00  0.00    +0.000 HD
ENDROOT
BRANCH  13  15
ATOM     15  C   UNL     1      -1.374  12.821  21.359  0.00  0.00    +0.000 A 
ATOM     16  C   UNL     1      -2.116  12.876  20.166  0.00  0.00    +0.000 A 
ATOM     17  C   UNL     1      -3.506  12.714  20.193  0.00  0.00    +0.000 A 
ATOM     18  C   UNL     1      -4.162  12.463  21.399  0.00  0.00    +0.000 A 
ATOM     19  C   UNL     1      -3.431  12.459  22.579  0.00  0.00    +0.000 A 
ATOM     20  C   UNL     1      -2.068  12.693  22.570  0.00  0.00    +0.000 A 
BRANCH  19  21
ATOM     21  O   UNL     1      -3.994  12.152  23.781  0.00  0.00    +0.000 OA
ATOM     22  H   UNL     1      -4.446  11.297  23.697  0.00  0.00    +0.000 HD
ENDBRANCH  19  21
ENDBRANCH  13  15
BRANCH   1  23
ATOM     23  S   UNL     1       2.246   7.205  19.758  0.00  0.00    +0.000 S 
BRANCH  23  24
ATOM     24  C   UNL     1       1.423   5.794  20.538  0.00  0.00    +0.000 C 
BRANCH  24  30
ATOM     25  C   UNL     1       4.102   3.466  16.910  0.00  0.00    +0.000 C 
ATOM     26  C   UNL     1       3.006   3.427  17.935  0.00  0.00    +0.000 A 
ATOM     27  C   UNL     1       2.188   2.299  18.055  0.00  0.00    +0.000 A 
ATOM     28  C   UNL     1       1.155   2.283  18.993  0.00  0.00    +0.000 A 
ATOM     29  C   UNL     1       0.926   3.391  19.817  0.00  0.00    +0.000 A 
ATOM     30  C   UNL     1       1.729   4.538  19.719  0.00  0.00    +0.000 A 
ATOM     31  C   UNL     1       2.773   4.533  18.771  0.00  0.00    +0.000 A 
ENDBRANCH  24  30
ENDBRANCH  23  24
ENDBRANCH   1  23
TORSDOF 5
ENDMDL
MODEL 3
REMARK VINA RESULT:      -8.2      2.401      3.445
REMARK  Name = 
REMARK  7 active torsions:
REMARK  status: ('A' for Active; 'I' for Inactive)
REMARK    1  A    between atoms: C_1  and  C_2
REMARK    2  A    between atoms: C_6  and  C_7
REMARK    3  A    between atoms: C_7  and  S_8
REMARK    4  A    between atoms: S_8  and  C_9
REMARK    5  A    between atoms: N_15  and  C_16
REMARK    6  A    between atoms: C_21  and  C_22
REMARK    7  A    between atoms: C_26  and  O_27
REMARK                            x       y       z     vdW  Elec       q    Type
REMARK                         _______ _______ _______ _____ _____    ______ ____
ROOT
ATOM      1  C   UNL     1       2.257   7.124  19.649  0.00  0.00    +0.000 A 
ATOM      2  N   UNL     1       1.454   7.258  20.658  0.00  0.00    +0.000 NA
ATOM      3  C   UNL     1       0.690   8.409  20.769  0.00  0.00    +0.000 A 
ATOM      4  O   UNL     1      -0.112   8.581  21.678  0.00  0.00    +0.000 OA
ATOM      5  C   UNL     1       0.916   9.518  19.787  0.00  0.00    +0.000 A 
ATOM      6  C   UNL     1       1.750   9.279  18.765  0.00  0.00    +0.000 A 
ATOM      7  N   UNL     1       2.390   8.057  18.622  0.00  0.00    +0.000 N 
ATOM      8  C   UNL     1       3.402   7.894  17.567  0.00  0.00    +0.000 C 
ATOM      9  N   UNL     1       1.957  10.295  17.844  0.00  0.00    +0.000 N 
ATOM     10  C   UNL     1       2.030  11.593  18.286  0.00  0.00    +0.000 C 
ATOM     11  O   UNL     1       2.875  12.370  17.859  0.00  0.00    +0.000 OA
ATOM     12  C   UNL     1       0.933  12.022  19.224  0.00  0.00    +0.000 C 
ATOM     13  C   UNL     1       0.194  10.845  19.927  0.00  0.00    +0.000 C 
ATOM     14  H   UNL     1       1.222  10.250  17.139  0.00  0.00    +0.000 HD
ENDROOT
BRANCH  13  15
ATOM     15  C   UNL     1      -1.220  10.845  19.327  0.00  0.00    +0.000 A 
ATOM     16  C   UNL     1      -2.156  11.810  19.741  0.00  0.00    +0.000 A 
ATOM     17  C   UNL     1      -3.304  12.050  18.977  0.00  0.00    +0.000 A 
ATOM     18  C   UNL     1      -3.513  11.360  17.783  0.00  0.00    +0.000 A 
ATOM     19  C   UNL     1      -2.611  10.373  17.405  0.00  0.00    +0.000 A 
ATOM     20  C   UNL     1      -1.513  10.077  18.192  0.00  0.00    +0.000 A 
BRANCH  19  21
ATOM     21  O   UNL     1      -2.714   9.710  16.219  0.00  0.00    +0.000 OA
ATOM     22  H   UNL     1      -3.451   9.081  16.285  0.00  0.00    +0.000 HD
ENDBRANCH  19  21
ENDBRANCH  13  15
BRANCH   1  23
ATOM     23  S   UNL     1       3.415   5.786  19.668  0.00  0.00    +0.000 S 
BRANCH  23  24
ATOM     24  C   UNL     1       3.242   4.861  18.121  0.00  0.00    +0.000 C 
BRANCH  24  30
ATOM     25  C   UNL     1       6.064   3.921  14.008  0.00  0.00    +0.000 C 
ATOM     26  C   UNL     1       5.978   4.276  15.465  0.00  0.00    +0.000 A 
ATOM     27  C   UNL     1       7.139   4.395  16.235  0.00  0.00    +0.000 A 
ATOM     28  C   UNL     1       7.047   4.700  17.593  0.00  0.00    +0.000 A 
ATOM     29  C   UNL     1       5.799   4.884  18.198  0.00  0.00    +0.000 A 
ATOM     30  C   UNL     1       4.615   4.768  17.452  0.00  0.00    +0.000 A 
ATOM     31  C   UNL     1       4.728   4.468  16.079  0.00  0.00    +0.000 A 
ENDBRANCH  24  30
ENDBRANCH  23  24
ENDBRANCH   1  23
TORSDOF 5
ENDMDL
MODEL 4
REMARK VINA RESULT:      -8.2      0.847      1.576
REMARK  Name = 
REMARK  7 active torsions:
REMARK  status: ('A' for Active; 'I' for Inactive)
REMARK    1  A    between atoms: C_1  and  C_2
REMARK    2  A    between atoms: C_6  and  C_7
REMARK    3  A    between atoms: C_7  and  S_8
REMARK    4  A    between atoms: S_8  and  C_9
REMARK    5  A    between atoms: N_15  and  C_16
REMARK    6  A    between atoms: C_21  and  C_22
REMARK    7  A    between atoms: C_26  and  O_27
REMARK                            x       y       z     vdW  Elec       q    Type
REMARK                         _______ _______ _______ _____ _____    ______ ____
ROOT
ATOM      1  C   UNL     1       1.749   8.323  19.928  0.00  0.00    +0.000 A 
ATOM      2  N   UNL     1       1.537   8.396  21.204  0.00  0.00    +0.000 NA
ATOM      3  C   UNL     1       0.945   9.534  21.731  0.00  0.00    +0.000 A 
ATOM      4  O   UNL     1       0.686   9.649  22.921  0.00  0.00    +0.000 OA
ATOM      5  C   UNL     1       0.689  10.696  20.820  0.00  0.00    +0.000 A 
ATOM      6  C   UNL     1       0.918  10.518  19.512  0.00  0.00    +0.000 A 
ATOM      7  N   UNL     1       1.386   9.311  19.014  0.00  0.00    +0.000 N 
ATOM      8  C   UNL     1       1.757   9.214  17.594  0.00  0.00    +0.000 C 
ATOM      9  N   UNL     1       0.674  11.584  18.658  0.00  0.00    +0.000 N 
ATOM     10  C   UNL     1       0.976  12.857  19.076  0.00  0.00    +0.000 C 
ATOM     11  O   UNL     1       1.524  13.663  18.333  0.00  0.00    +0.000 OA
ATOM     12  C   UNL     1       0.479  13.226  20.448  0.00  0.00    +0.000 C 
ATOM     13  C   UNL     1       0.150  12.007  21.360  0.00  0.00    +0.000 C 
ATOM     14  H   UNL     1      -0.312  11.572  18.397  0.00  0.00    +0.000 HD
ENDROOT
BRANCH  13  15
ATOM     15  C   UNL     1      -1.377  12.029  21.521  0.00  0.00    +0.000 A 
ATOM     16  C   UNL     1      -1.947  11.979  22.806  0.00  0.00    +0.000 A 
ATOM     17  C   UNL     1      -3.284  12.345  22.998  0.00  0.00    +0.000 A 
ATOM     18  C   UNL     1      -4.053  12.792  21.923  0.00  0.00    +0.000 A 
ATOM     19  C   UNL     1      -3.501  12.791  20.649  0.00  0.00    +0.000 A 
ATOM     20  C   UNL     1      -2.204  12.361  20.438  0.00  0.00    +0.000 A 
BRANCH  19  21
ATOM     21  O   UNL     1      -4.169  13.280  19.567  0.00  0.00    +0.000 OA
ATOM     22  H   UNL     1      -5.021  13.635  19.869  0.00  0.00    +0.000 HD
ENDBRANCH  19  21
ENDBRANCH  13  15
BRANCH   1  23
ATOM     23  S   UNL     1       2.745   6.995  19.315  0.00  0.00    +0.000 S 
BRANCH  23  24
ATOM     24  C   UNL     1       1.766   6.053  18.119  0.00  0.00    +0.000 C 
BRANCH  24  30
ATOM     25  C   UNL     1       1.447   2.511  21.740  0.00  0.00    +0.000 C 
ATOM     26  C   UNL     1       1.657   2.871  20.297  0.00  0.00    +0.000 A 
ATOM     27  C   UNL     1       1.985   1.885  19.361  0.00  0.00    +0.000 A 
ATOM     28  C   UNL     1       2.204   2.234  18.028  0.00  0.00    +0.000 A 
ATOM     29  C   UNL     1       2.101   3.568  17.616  0.00  0.00    +0.000 A 
ATOM     30  C   UNL     1       1.776   4.580  18.532  0.00  0.00    +0.000 A 
ATOM     31  C   UNL     1       1.551   4.208  19.874  0.00  0.00    +0.000 A 
ENDBRANCH  24  30
ENDBRANCH  23  24
ENDBRANCH   1  23
TORSDOF 5
ENDMDL
MODEL 5
REMARK VINA RESULT:      -8.0      2.333      3.270
REMARK  Name = 
REMARK  7 active torsions:
REMARK  status: ('A' for Active; 'I' for Inactive)
REMARK    1  A    between atoms: C_1  and  C_2
REMARK    2  A    between atoms: C_6  and  C_7
REMARK    3  A    between atoms: C_7  and  S_8
REMARK    4  A    between atoms: S_8  and  C_9
REMARK    5  A    between atoms: N_15  and  C_16
REMARK    6  A    between atoms: C_21  and  C_22
REMARK    7  A    between atoms: C_26  and  O_27
REMARK                            x       y       z     vdW  Elec       q    Type
REMARK                         _______ _______ _______ _____ _____    ______ ____
ROOT
ATOM      1  C   UNL     1       2.056   7.177  19.833  0.00  0.00    +0.000 A 
ATOM      2  N   UNL     1       1.260   7.350  20.840  0.00  0.00    +0.000 NA
ATOM      3  C   UNL     1       0.516   8.516  20.925  0.00  0.00    +0.000 A 
ATOM      4  O   UNL     1      -0.280   8.724  21.832  0.00  0.00    +0.000 OA
ATOM      5  C   UNL     1       0.756   9.596  19.914  0.00  0.00    +0.000 A 
ATOM      6  C   UNL     1       1.581   9.316  18.896  0.00  0.00    +0.000 A 
ATOM      7  N   UNL     1       2.201   8.081  18.782  0.00  0.00    +0.000 N 
ATOM      8  C   UNL     1       3.206   7.874  17.727  0.00  0.00    +0.000 C 
ATOM      9  N   UNL     1       1.803  10.305  17.948  0.00  0.00    +0.000 N 
ATOM     10  C   UNL     1       1.899  11.613  18.356  0.00  0.00    +0.000 C 
ATOM     11  O   UNL     1       2.755  12.364  17.906  0.00  0.00    +0.000 OA
ATOM     12  C   UNL     1       0.813  12.084  19.286  0.00  0.00    +0.000 C 
ATOM     13  C   UNL     1       0.057  10.938  20.022  0.00  0.00    +0.000 C 
ATOM     14  H   UNL     1       1.063  10.254  17.247  0.00  0.00    +0.000 HD
ENDROOT
BRANCH  13  15
ATOM     15  C   UNL     1      -1.359  10.946  19.428  0.00  0.00    +0.000 A 
ATOM     16  C   UNL     1      -2.274  11.943  19.812  0.00  0.00    +0.000 A 
ATOM     17  C   UNL     1      -3.420  12.180  19.045  0.00  0.00    +0.000 A 
ATOM     18  C   UNL     1      -3.648  11.455  17.875  0.00  0.00    +0.000 A 
ATOM     19  C   UNL     1      -2.767  10.439  17.527  0.00  0.00    +0.000 A 
ATOM     20  C   UNL     1      -1.672  10.147  18.320  0.00  0.00    +0.000 A 
BRANCH  19  21
ATOM     21  O   UNL     1      -2.888   9.739  16.365  0.00  0.00    +0.000 OA
ATOM     22  H   UNL     1      -2.054   9.269  16.203  0.00  0.00    +0.000 HD
ENDBRANCH  19  21
ENDBRANCH  13  15
BRANCH   1  23
ATOM     23  S   UNL     1       3.192   5.820  19.882  0.00  0.00    +0.000 S 
BRANCH  23  24
ATOM     24  C   UNL     1       2.943   4.814  18.397  0.00  0.00    +0.000 C 
BRANCH  24  30
ATOM     25  C   UNL     1       8.000   5.239  18.486  0.00  0.00    +0.000 C 
ATOM     26  C   UNL     1       6.749   4.819  17.768  0.00  0.00    +0.000 A 
ATOM     27  C   UNL     1       6.812   4.334  16.459  0.00  0.00    +0.000 A 
ATOM     28  C   UNL     1       5.641   3.971  15.792  0.00  0.00    +0.000 A 
ATOM     29  C   UNL     1       4.398   4.091  16.422  0.00  0.00    +0.000 A 
ATOM     30  C   UNL     1       4.302   4.577  17.735  0.00  0.00    +0.000 A 
ATOM     31  C   UNL     1       5.496   4.931  18.397  0.00  0.00    +0.000 A 
ENDBRANCH  24  30
ENDBRANCH  23  24
ENDBRANCH   1  23
TORSDOF 5
ENDMDL
MODEL 6
REMARK VINA RESULT:      -8.0      0.854      1.039
REMARK  Name = 
REMARK  7 active torsions:
REMARK  status: ('A' for Active; 'I' for Inactive)
REMARK    1  A    between atoms: C_1  and  C_2
REMARK    2  A    between atoms: C_6  and  C_7
REMARK    3  A    between atoms: C_7  and  S_8
REMARK    4  A    between atoms: S_8  and  C_9
REMARK    5  A    between atoms: N_15  and  C_16
REMARK    6  A    between atoms: C_21  and  C_22
REMARK    7  A    between atoms: C_26  and  O_27
REMARK                            x       y       z     vdW  Elec       q    Type
REMARK                         _______ _______ _______ _____ _____    ______ ____
ROOT
ATOM      1  C   UNL     1       1.262   8.509  20.540  0.00  0.00    +0.000 A 
ATOM      2  N   UNL     1       1.017   8.624  21.807  0.00  0.00    +0.000 NA
ATOM      3  C   UNL     1       0.425   9.786  22.281  0.00  0.00    +0.000 A 
ATOM      4  O   UNL     1       0.135   9.942  23.460  0.00  0.00    +0.000 OA
ATOM      5  C   UNL     1       0.211  10.922  21.328  0.00  0.00    +0.000 A 
ATOM      6  C   UNL     1       0.475  10.701  20.033  0.00  0.00    +0.000 A 
ATOM      7  N   UNL     1       0.939   9.472  19.586  0.00  0.00    +0.000 N 
ATOM      8  C   UNL     1       1.348   9.325  18.180  0.00  0.00    +0.000 C 
ATOM      9  N   UNL     1       0.269  11.742  19.140  0.00  0.00    +0.000 N 
ATOM     10  C   UNL     1       0.577  13.024  19.526  0.00  0.00    +0.000 C 
ATOM     11  O   UNL     1       1.157  13.798  18.775  0.00  0.00    +0.000 OA
ATOM     12  C   UNL     1       0.047  13.442  20.871  0.00  0.00    +0.000 C 
ATOM     13  C   UNL     1      -0.324  12.256  21.811  0.00  0.00    +0.000 C 
ATOM     14  H   UNL     1      -0.709  11.735  18.851  0.00  0.00    +0.000 HD
ENDROOT
BRANCH  13  15
ATOM     15  C   UNL     1      -1.855  12.303  21.928  0.00  0.00    +0.000 A 
ATOM     16  C   UNL     1      -2.462  12.250  23.195  0.00  0.00    +0.000 A 
ATOM     17  C   UNL     1      -3.798  12.636  23.353  0.00  0.00    +0.000 A 
ATOM     18  C   UNL     1      -4.528  13.109  22.262  0.00  0.00    +0.000 A 
ATOM     19  C   UNL     1      -3.939  13.113  21.004  0.00  0.00    +0.000 A 
ATOM     20  C   UNL     1      -2.643  12.662  20.826  0.00  0.00    +0.000 A 
BRANCH  19  21
ATOM     21  O   UNL     1      -4.566  13.625  19.909  0.00  0.00    +0.000 OA
ATOM     22  H   UNL     1      -3.906  13.743  19.206  0.00  0.00    +0.000 HD
ENDBRANCH  19  21
ENDBRANCH  13  15
BRANCH   1  23
ATOM     23  S   UNL     1       2.257   7.149  19.997  0.00  0.00    +0.000 S 
BRANCH  23  24
ATOM     24  C   UNL     1       1.414   5.611  20.446  0.00  0.00    +0.000 C 
BRANCH  24  30
ATOM     25  C   UNL     1       4.685   1.747  20.103  0.00  0.00    +0.000 C 
ATOM     26  C   UNL     1       3.640   2.616  19.467  0.00  0.00    +0.000 A 
ATOM     27  C   UNL     1       3.320   2.466  18.114  0.00  0.00    +0.000 A 
ATOM     28  C   UNL     1       2.366   3.298  17.527  0.00  0.00    +0.000 A 
ATOM     29  C   UNL     1       1.725   4.288  18.280  0.00  0.00    +0.000 A 
ATOM     30  C   UNL     1       2.026   4.465  19.639  0.00  0.00    +0.000 A 
ATOM     31  C   UNL     1       2.988   3.611  20.218  0.00  0.00    +0.000 A 
ENDBRANCH  24  30
ENDBRANCH  23  24
ENDBRANCH   1  23
TORSDOF 5
ENDMDL
MODEL 7
REMARK VINA RESULT:      -7.9      2.312      3.344
REMARK  Name = 
REMARK  7 active torsions:
REMARK  status: ('A' for Active; 'I' for Inactive)
REMARK    1  A    between atoms: C_1  and  C_2
REMARK    2  A    between atoms: C_6  and  C_7
REMARK    3  A    between atoms: C_7  and  S_8
REMARK    4  A    between atoms: S_8  and  C_9
REMARK    5  A    between atoms: N_15  and  C_16
REMARK    6  A    between atoms: C_21  and  C_22
REMARK    7  A    between atoms: C_26  and  O_27
REMARK                            x       y       z     vdW  Elec       q    Type
REMARK                         _______ _______ _______ _____ _____    ______ ____
ROOT
ATOM      1  C   UNL     1       2.136   7.302  19.565  0.00  0.00    +0.000 A 
ATOM      2  N   UNL     1       1.227   7.456  20.476  0.00  0.00    +0.000 NA
ATOM      3  C   UNL     1       0.475   8.620  20.495  0.00  0.00    +0.000 A 
ATOM      4  O   UNL     1      -0.421   8.811  21.307  0.00  0.00    +0.000 OA
ATOM      5  C   UNL     1       0.829   9.719  19.540  0.00  0.00    +0.000 A 
ATOM      6  C   UNL     1       1.768   9.458  18.619  0.00  0.00    +0.000 A 
ATOM      7  N   UNL     1       2.399   8.225  18.555  0.00  0.00    +0.000 N 
ATOM      8  C   UNL     1       3.521   8.038  17.621  0.00  0.00    +0.000 C 
ATOM      9  N   UNL     1       2.095  10.464  17.721  0.00  0.00    +0.000 N 
ATOM     10  C   UNL     1       2.140  11.764  18.162  0.00  0.00    +0.000 C 
ATOM     11  O   UNL     1       3.041  12.524  17.829  0.00  0.00    +0.000 OA
ATOM     12  C   UNL     1       0.952  12.218  18.968  0.00  0.00    +0.000 C 
ATOM     13  C   UNL     1       0.119  11.058  19.590  0.00  0.00    +0.000 C 
ATOM     14  H   UNL     1       1.443  10.427  16.938  0.00  0.00    +0.000 HD
ENDROOT
BRANCH  13  15
ATOM     15  C   UNL     1      -1.218  11.078  18.835  0.00  0.00    +0.000 A 
ATOM     16  C   UNL     1      -1.580   9.989  18.021  0.00  0.00    +0.000 A 
ATOM     17  C   UNL     1      -2.908   9.824  17.614  0.00  0.00    +0.000 A 
ATOM     18  C   UNL     1      -3.892  10.718  18.040  0.00  0.00    +0.000 A 
ATOM     19  C   UNL     1      -3.521  11.819  18.802  0.00  0.00    +0.000 A 
ATOM     20  C   UNL     1      -2.198  12.031  19.146  0.00  0.00    +0.000 A 
BRANCH  19  21
ATOM     21  O   UNL     1      -4.435  12.692  19.310  0.00  0.00    +0.000 OA
ATOM     22  H   UNL     1      -4.755  13.255  18.586  0.00  0.00    +0.000 HD
ENDBRANCH  19  21
ENDBRANCH  13  15
BRANCH   1  23
ATOM     23  S   UNL     1       3.261   5.945  19.721  0.00  0.00    +0.000 S 
BRANCH  23  24
ATOM     24  C   UNL     1       3.152   4.938  18.220  0.00  0.00    +0.000 C 
BRANCH  24  30
ATOM     25  C   UNL     1       6.115   3.945  14.221  0.00  0.00    +0.000 C 
ATOM     26  C   UNL     1       5.979   4.310  15.671  0.00  0.00    +0.000 A 
ATOM     27  C   UNL     1       7.111   4.423  16.483  0.00  0.00    +0.000 A 
ATOM     28  C   UNL     1       6.972   4.737  17.835  0.00  0.00    +0.000 A 
ATOM     29  C   UNL     1       5.703   4.937  18.392  0.00  0.00    +0.000 A 
ATOM     30  C   UNL     1       4.548   4.828  17.603  0.00  0.00    +0.000 A 
ATOM     31  C   UNL     1       4.708   4.518  16.237  0.00  0.00    +0.000 A 
ENDBRANCH  24  30
ENDBRANCH  23  24
ENDBRANCH   1  23
TORSDOF 5
ENDMDL
MODEL 8
REMARK VINA RESULT:      -7.8      1.219      1.727
REMARK  Name = 
REMARK  7 active torsions:
REMARK  status: ('A' for Active; 'I' for Inactive)
REMARK    1  A    between atoms: C_1  and  C_2
REMARK    2  A    between atoms: C_6  and  C_7
REMARK    3  A    between atoms: C_7  and  S_8
REMARK    4  A    between atoms: S_8  and  C_9
REMARK    5  A    between atoms: N_15  and  C_16
REMARK    6  A    between atoms: C_21  and  C_22
REMARK    7  A    between atoms: C_26  and  O_27
REMARK                            x       y       z     vdW  Elec       q    Type
REMARK                         _______ _______ _______ _____ _____    ______ ____
ROOT
ATOM      1  C   UNL     1       1.307   8.250  20.303  0.00  0.00    +0.000 A 
ATOM      2  N   UNL     1       0.591   8.600  21.325  0.00  0.00    +0.000 NA
ATOM      3  C   UNL     1       0.004   9.856  21.344  0.00  0.00    +0.000 A 
ATOM      4  O   UNL     1      -0.712  10.234  22.263  0.00  0.00    +0.000 OA
ATOM      5  C   UNL     1       0.327  10.816  20.240  0.00  0.00    +0.000 A 
ATOM      6  C   UNL     1       1.058  10.356  19.215  0.00  0.00    +0.000 A 
ATOM      7  N   UNL     1       1.510   9.045  19.177  0.00  0.00    +0.000 N 
ATOM      8  C   UNL     1       2.426   8.631  18.102  0.00  0.00    +0.000 C 
ATOM      9  N   UNL     1       1.353  11.233  18.181  0.00  0.00    +0.000 N 
ATOM     10  C   UNL     1       1.633  12.544  18.477  0.00  0.00    +0.000 C 
ATOM     11  O   UNL     1       2.553  13.142  17.933  0.00  0.00    +0.000 OA
ATOM     12  C   UNL     1       0.664  13.221  19.409  0.00  0.00    +0.000 C 
ATOM     13  C   UNL     1      -0.192  12.241  20.266  0.00  0.00    +0.000 C 
ATOM     14  H   UNL     1       0.578  11.226  17.517  0.00  0.00    +0.000 HD
ENDROOT
BRANCH  13  15
ATOM     15  C   UNL     1      -1.624  12.388  19.732  0.00  0.00    +0.000 A 
ATOM     16  C   UNL     1      -1.995  11.745  18.538  0.00  0.00    +0.000 A 
ATOM     17  C   UNL     1      -3.348  11.574  18.221  0.00  0.00    +0.000 A 
ATOM     18  C   UNL     1      -4.338  12.010  19.102  0.00  0.00    +0.000 A 
ATOM     19  C   UNL     1      -3.966  12.689  20.255  0.00  0.00    +0.000 A 
ATOM     20  C   UNL     1      -2.634  12.929  20.539  0.00  0.00    +0.000 A 
BRANCH  19  21
ATOM     21  O   UNL     1      -4.874  13.080  21.193  0.00  0.00    +0.000 OA
ATOM     22  H   UNL     1      -4.900  14.050  21.207  0.00  0.00    +0.000 HD
ENDBRANCH  19  21
ENDBRANCH  13  15
BRANCH   1  23
ATOM     23  S   UNL     1       2.263   6.765  20.416  0.00  0.00    +0.000 S 
BRANCH  23  24
ATOM     24  C   UNL     1       1.126   5.360  20.515  0.00  0.00    +0.000 C 
BRANCH  24  30
ATOM     25  C   UNL     1       4.187   3.851  16.760  0.00  0.00    +0.000 C 
ATOM     26  C   UNL     1       3.092   3.541  17.739  0.00  0.00    +0.000 A 
ATOM     27  C   UNL     1       2.450   2.299  17.716  0.00  0.00    +0.000 A 
ATOM     28  C   UNL     1       1.416   2.032  18.613  0.00  0.00    +0.000 A 
ATOM     29  C   UNL     1       1.009   3.000  19.538  0.00  0.00    +0.000 A 
ATOM     30  C   UNL     1       1.631   4.257  19.584  0.00  0.00    +0.000 A 
ATOM     31  C   UNL     1       2.680   4.507  18.675  0.00  0.00    +0.000 A 
ENDBRANCH  24  30
ENDBRANCH  23  24
ENDBRANCH   1  23
TORSDOF 5
ENDMDL
MODEL 9
REMARK VINA RESULT:      -7.8      2.184      3.182
REMARK  Name = 
REMARK  7 active torsions:
REMARK  status: ('A' for Active; 'I' for Inactive)
REMARK    1  A    between atoms: C_1  and  C_2
REMARK    2  A    between atoms: C_6  and  C_7
REMARK    3  A    between atoms: C_7  and  S_8
REMARK    4  A    between atoms: S_8  and  C_9
REMARK    5  A    between atoms: N_15  and  C_16
REMARK    6  A    between atoms: C_21  and  C_22
REMARK    7  A    between atoms: C_26  and  O_27
REMARK                            x       y       z     vdW  Elec       q    Type
REMARK                         _______ _______ _______ _____ _____    ______ ____
ROOT
ATOM      1  C   UNL     1       1.926   7.350  19.778  0.00  0.00    +0.000 A 
ATOM      2  N   UNL     1       1.028   7.570  20.687  0.00  0.00    +0.000 NA
ATOM      3  C   UNL     1       0.314   8.758  20.660  0.00  0.00    +0.000 A 
ATOM      4  O   UNL     1      -0.571   9.011  21.467  0.00  0.00    +0.000 OA
ATOM      5  C   UNL     1       0.696   9.804  19.658  0.00  0.00    +0.000 A 
ATOM      6  C   UNL     1       1.621   9.476  18.745  0.00  0.00    +0.000 A 
ATOM      7  N   UNL     1       2.213   8.221  18.729  0.00  0.00    +0.000 N 
ATOM      8  C   UNL     1       3.322   7.960  17.799  0.00  0.00    +0.000 C 
ATOM      9  N   UNL     1       1.975  10.432  17.804  0.00  0.00    +0.000 N 
ATOM     10  C   UNL     1       2.063  11.748  18.190  0.00  0.00    +0.000 C 
ATOM     11  O   UNL     1       2.985  12.464  17.821  0.00  0.00    +0.000 OA
ATOM     12  C   UNL     1       0.895  12.272  18.982  0.00  0.00    +0.000 C 
ATOM     13  C   UNL     1       0.029  11.166  19.655  0.00  0.00    +0.000 C 
ATOM     14  H   UNL     1       1.317  10.383  17.027  0.00  0.00    +0.000 HD
ENDROOT
BRANCH  13  15
ATOM     15  C   UNL     1      -1.311  11.197  18.907  0.00  0.00    +0.000 A 
ATOM     16  C   UNL     1      -1.678  10.119  18.081  0.00  0.00    +0.000 A 
ATOM     17  C   UNL     1      -3.008   9.961  17.678  0.00  0.00    +0.000 A 
ATOM     18  C   UNL     1      -3.988  10.851  18.118  0.00  0.00    +0.000 A 
ATOM     19  C   UNL     1      -3.613  11.941  18.892  0.00  0.00    +0.000 A 
ATOM     20  C   UNL     1      -2.289  12.147  19.233  0.00  0.00    +0.000 A 
BRANCH  19  21
ATOM     21  O   UNL     1      -4.524  12.809  19.415  0.00  0.00    +0.000 OA
ATOM     22  H   UNL     1      -4.570  12.663  20.374  0.00  0.00    +0.000 HD
ENDBRANCH  19  21
ENDBRANCH  13  15
BRANCH   1  23
ATOM     23  S   UNL     1       3.009   5.965  19.986  0.00  0.00    +0.000 S 
BRANCH  23  24
ATOM     24  C   UNL     1       2.817   4.872  18.555  0.00  0.00    +0.000 C 
BRANCH  24  30
ATOM     25  C   UNL     1       7.854   5.478  18.689  0.00  0.00    +0.000 C 
ATOM     26  C   UNL     1       6.630   4.971  17.981  0.00  0.00    +0.000 A 
ATOM     27  C   UNL     1       6.731   4.409  16.705  0.00  0.00    +0.000 A 
ATOM     28  C   UNL     1       5.584   3.965  16.046  0.00  0.00    +0.000 A 
ATOM     29  C   UNL     1       4.327   4.080  16.650  0.00  0.00    +0.000 A 
ATOM     30  C   UNL     1       4.193   4.642  17.928  0.00  0.00    +0.000 A 
ATOM     31  C   UNL     1       5.364   5.078  18.584  0.00  0.00    +0.000 A 
ENDBRANCH  24  30
ENDBRANCH  23  24
ENDBRANCH   1  23
TORSDOF 5
ENDMDL
