MODEL 1
REMARK VINA RESULT:      -9.1      0.000      0.000
REMARK  Name = 
REMARK  7 active torsions:
REMARK  status: ('A' for Active; 'I' for Inactive)
REMARK    1  A    between atoms: C_1  and  O_2
REMARK    2  A    between atoms: O_2  and  C_3
REMARK    3  A    between atoms: C_7  and  C_8
REMARK    4  A    between atoms: C_8  and  C_9
REMARK    5  A    between atoms: C_18  and  S_19
REMARK    6  A    between atoms: S_19  and  C_20
REMARK    7  A    between atoms: C_20  and  C_21
REMARK                            x       y       z     vdW  Elec       q    Type
REMARK                         _______ _______ _______ _____ _____    ______ ____
ROOT
ATOM      1  C   UNL     1       4.093   5.896  18.839  0.00  0.00    +0.000 A 
ATOM      2  N   UNL     1       4.060   4.811  19.663  0.00  0.00    +0.000 NA
ATOM      3  C   UNL     1       2.891   4.135  19.698  0.00  0.00    +0.000 A 
ATOM      4  C   UNL     1       2.431   3.477  20.830  0.00  0.00    +0.000 A 
ATOM      5  C   UNL     1       1.235   2.760  20.808  0.00  0.00    +0.000 A 
ATOM      6  C   UNL     1       0.701   2.441  19.571  0.00  0.00    +0.000 A 
ATOM      7  C   UNL     1       1.178   3.124  18.452  0.00  0.00    +0.000 A 
ATOM      8  C   UNL     1       2.006   4.249  18.645  0.00  0.00    +0.000 A 
ATOM      9  N   UNL     1       1.944   5.485  18.037  0.00  0.00    +0.000 NA
ATOM     10  C   UNL     1       2.907   6.412  18.370  0.00  0.00    +0.000 A 
ENDROOT
BRANCH   1  11
ATOM     11  C   UNL     1       5.375   6.238  18.115  0.00  0.00    +0.000 C 
BRANCH  11  16
ATOM     12  C   UNL     1       7.059   5.144  14.858  0.00  0.00    +0.000 A 
ATOM     13  C   UNL     1       6.258   4.075  14.462  0.00  0.00    +0.000 A 
ATOM     14  C   UNL     1       5.243   3.621  15.302  0.00  0.00    +0.000 A 
ATOM     15  C   UNL     1       5.005   4.260  16.525  0.00  0.00    +0.000 A 
ATOM     16  C   UNL     1       5.790   5.353  16.934  0.00  0.00    +0.000 A 
ATOM     17  C   UNL     1       6.869   5.730  16.119  0.00  0.00    +0.000 A 
BRANCH  12  19
ATOM     18  C   UNL     1       7.751   5.123  12.608  0.00  0.00    +0.000 C 
ATOM     19  O   UNL     1       8.010   5.531  13.947  0.00  0.00    +0.000 OA
ENDBRANCH  12  19
ENDBRANCH  11  16
ENDBRANCH   1  11
BRANCH  10  20
ATOM     20  S   UNL     1       2.616   8.194  17.970  0.00  0.00    +0.000 S 
BRANCH  20  21
ATOM     21  C   UNL     1       1.144   9.003  18.995  0.00  0.00    +0.000 C 
BRANCH  21  22
ATOM     22  C   UNL     1       1.274  10.531  19.135  0.00  0.00    +0.000 C 
ATOM     23  O   UNL     1       1.967  11.013  18.215  0.00  0.00    +0.000 OA
ATOM     24  N   UNL     1       0.934  11.353  20.289  0.00  0.00    +0.000 N 
ATOM     25  C   UNL     1       1.438  12.714  19.979  0.00  0.00    +0.000 C 
ATOM     26  C   UNL     1       0.511  13.309  18.900  0.00  0.00    +0.000 C 
ATOM     27  C   UNL     1      -0.788  13.657  19.567  0.00  0.00    +0.000 C 
ATOM     28  C   UNL     1      -1.300  12.469  20.374  0.00  0.00    +0.000 A 
ATOM     29  C   UNL     1      -2.548  12.765  20.954  0.00  0.00    +0.000 A 
ATOM     30  C   UNL     1      -2.791  12.419  22.286  0.00  0.00    +0.000 A 
ATOM     31  C   UNL     1      -1.758  11.824  22.987  0.00  0.00    +0.000 A 
ATOM     32  C   UNL     1      -0.581  11.369  22.319  0.00  0.00    +0.000 A 
ATOM     33  C   UNL     1      -0.395  11.525  20.927  0.00  0.00    +0.000 A 
ENDBRANCH  21  22
ENDBRANCH  20  21
ENDBRANCH  10  20
TORSDOF 6
ENDMDL
MODEL 2
REMARK VINA RESULT:      -9.0      2.756      9.852
REMARK  Name = 
REMARK  7 active torsions:
REMARK  status: ('A' for Active; 'I' for Inactive)
REMARK    1  A    between atoms: C_1  and  O_2
REMARK    2  A    between atoms: O_2  and  C_3
REMARK    3  A    between atoms: C_7  and  C_8
REMARK    4  A    between atoms: C_8  and  C_9
REMARK    5  A    between atoms: C_18  and  S_19
REMARK    6  A    between atoms: S_19  and  C_20
REMARK    7  A    between atoms: C_20  and  C_21
REMARK                            x       y       z     vdW  Elec       q    Type
REMARK                         _______ _______ _______ _____ _____    ______ ____
ROOT
ATOM      1  C   UNL     1       0.600  10.602  19.659  0.00  0.00    +0.000 A 
ATOM      2  N   UNL     1       0.758  11.773  20.337  0.00  0.00    +0.000 NA
ATOM      3  C   UNL     1       1.691  12.616  19.845  0.00  0.00    +0.000 A 
ATOM      4  C   UNL     1       2.436  13.472  20.644  0.00  0.00    +0.000 A 
ATOM      5  C   UNL     1       3.363  14.351  20.086  0.00  0.00    +0.000 A 
ATOM      6  C   UNL     1       3.282  14.591  18.725  0.00  0.00    +0.000 A 
ATOM      7  C   UNL     1       2.531  13.711  17.946  0.00  0.00    +0.000 A 
ATOM      8  C   UNL     1       2.080  12.506  18.525  0.00  0.00    +0.000 A 
ATOM      9  N   UNL     1       2.122  11.228  18.010  0.00  0.00    +0.000 NA
ATOM     10  C   UNL     1       1.569  10.215  18.763  0.00  0.00    +0.000 A 
ENDROOT
BRANCH   1  11
ATOM     11  C   UNL     1      -0.776   9.984  19.558  0.00  0.00    +0.000 C 
BRANCH  11  16
ATOM     12  C   UNL     1      -3.786  11.475  17.725  0.00  0.00    +0.000 A 
ATOM     13  C   UNL     1      -3.687  10.876  16.470  0.00  0.00    +0.000 A 
ATOM     14  C   UNL     1      -2.583  10.082  16.167  0.00  0.00    +0.000 A 
ATOM     15  C   UNL     1      -1.592   9.857  17.131  0.00  0.00    +0.000 A 
ATOM     16  C   UNL     1      -1.682  10.437  18.408  0.00  0.00    +0.000 A 
ATOM     17  C   UNL     1      -2.751  11.312  18.660  0.00  0.00    +0.000 A 
BRANCH  12  19
ATOM     18  C   UNL     1      -6.134  11.462  17.891  0.00  0.00    +0.000 C 
ATOM     19  O   UNL     1      -4.924  12.212  17.933  0.00  0.00    +0.000 OA
ENDBRANCH  12  19
ENDBRANCH  11  16
ENDBRANCH   1  11
BRANCH  10  20
ATOM     20  S   UNL     1       2.003   8.462  18.368  0.00  0.00    +0.000 S 
BRANCH  20  21
ATOM     21  C   UNL     1       2.229   7.326  19.960  0.00  0.00    +0.000 C 
BRANCH  21  22
ATOM     22  C   UNL     1       2.543   5.860  19.616  0.00  0.00    +0.000 C 
ATOM     23  O   UNL     1       1.555   5.124  19.817  0.00  0.00    +0.000 OA
ATOM     24  N   UNL     1       3.850   5.262  19.370  0.00  0.00    +0.000 N 
ATOM     25  C   UNL     1       3.616   3.799  19.288  0.00  0.00    +0.000 C 
ATOM     26  C   UNL     1       2.902   3.525  17.949  0.00  0.00    +0.000 C 
ATOM     27  C   UNL     1       3.918   3.689  16.857  0.00  0.00    +0.000 C 
ATOM     28  C   UNL     1       4.654   5.015  17.018  0.00  0.00    +0.000 A 
ATOM     29  C   UNL     1       5.567   5.206  15.964  0.00  0.00    +0.000 A 
ATOM     30  C   UNL     1       6.854   5.673  16.240  0.00  0.00    +0.000 A 
ATOM     31  C   UNL     1       7.181   5.893  17.566  0.00  0.00    +0.000 A 
ATOM     32  C   UNL     1       6.179   5.871  18.583  0.00  0.00    +0.000 A 
ATOM     33  C   UNL     1       4.821   5.600  18.300  0.00  0.00    +0.000 A 
ENDBRANCH  21  22
ENDBRANCH  20  21
ENDBRANCH  10  20
TORSDOF 6
ENDMDL
MODEL 3
REMARK VINA RESULT:      -8.9      1.268      1.984
REMARK  Name = 
REMARK  7 active torsions:
REMARK  status: ('A' for Active; 'I' for Inactive)
REMARK    1  A    between atoms: C_1  and  O_2
REMARK    2  A    between atoms: O_2  and  C_3
REMARK    3  A    between atoms: C_7  and  C_8
REMARK    4  A    between atoms: C_8  and  C_9
REMARK    5  A    between atoms: C_18  and  S_19
REMARK    6  A    between atoms: S_19  and  C_20
REMARK    7  A    between atoms: C_20  and  C_21
REMARK                            x       y       z     vdW  Elec       q    Type
REMARK                         _______ _______ _______ _____ _____    ______ ____
ROOT
ATOM      1  C   UNL     1       3.835   6.055  18.739  0.00  0.00    +0.000 A 
ATOM      2  N   UNL     1       3.896   5.064  19.673  0.00  0.00    +0.000 NA
ATOM      3  C   UNL     1       2.799   4.282  19.773  0.00  0.00    +0.000 A 
ATOM      4  C   UNL     1       2.389   3.702  20.965  0.00  0.00    +0.000 A 
ATOM      5  C   UNL     1       1.270   2.871  21.011  0.00  0.00    +0.000 A 
ATOM      6  C   UNL     1       0.790   2.373  19.812  0.00  0.00    +0.000 A 
ATOM      7  C   UNL     1       1.215   2.980  18.630  0.00  0.00    +0.000 A 
ATOM      8  C   UNL     1       1.924   4.196  18.709  0.00  0.00    +0.000 A 
ATOM      9  N   UNL     1       1.750   5.350  17.973  0.00  0.00    +0.000 NA
ATOM     10  C   UNL     1       2.611   6.398  18.212  0.00  0.00    +0.000 A 
ENDROOT
BRANCH   1  11
ATOM     11  C   UNL     1       5.088   6.447  17.991  0.00  0.00    +0.000 C 
BRANCH  11  16
ATOM     12  C   UNL     1       7.002   5.195  14.922  0.00  0.00    +0.000 A 
ATOM     13  C   UNL     1       6.242   4.092  14.537  0.00  0.00    +0.000 A 
ATOM     14  C   UNL     1       5.179   3.671  15.333  0.00  0.00    +0.000 A 
ATOM     15  C   UNL     1       4.850   4.375  16.497  0.00  0.00    +0.000 A 
ATOM     16  C   UNL     1       5.592   5.502  16.894  0.00  0.00    +0.000 A 
ATOM     17  C   UNL     1       6.720   5.849  16.133  0.00  0.00    +0.000 A 
BRANCH  12  19
ATOM     18  C   UNL     1       7.798   5.138  12.708  0.00  0.00    +0.000 C 
ATOM     19  O   UNL     1       8.007   5.544  14.057  0.00  0.00    +0.000 OA
ENDBRANCH  12  19
ENDBRANCH  11  16
ENDBRANCH   1  11
BRANCH  10  20
ATOM     20  S   UNL     1       2.152   8.090  17.624  0.00  0.00    +0.000 S 
BRANCH  20  21
ATOM     21  C   UNL     1       2.117   9.441  19.056  0.00  0.00    +0.000 C 
BRANCH  21  22
ATOM     22  C   UNL     1       1.158   9.079  20.204  0.00  0.00    +0.000 C 
ATOM     23  O   UNL     1       1.585   8.111  20.865  0.00  0.00    +0.000 OA
ATOM     24  N   UNL     1      -0.212   9.537  20.398  0.00  0.00    +0.000 N 
ATOM     25  C   UNL     1      -0.749   8.740  21.529  0.00  0.00    +0.000 C 
ATOM     26  C   UNL     1      -0.072   9.258  22.814  0.00  0.00    +0.000 C 
ATOM     27  C   UNL     1      -0.673  10.596  23.130  0.00  0.00    +0.000 C 
ATOM     28  C   UNL     1      -0.644  11.491  21.895  0.00  0.00    +0.000 A 
ATOM     29  C   UNL     1      -1.150  12.769  22.196  0.00  0.00    +0.000 A 
ATOM     30  C   UNL     1      -2.044  13.384  21.316  0.00  0.00    +0.000 A 
ATOM     31  C   UNL     1      -2.419  12.673  20.190  0.00  0.00    +0.000 A 
ATOM     32  C   UNL     1      -1.745  11.470  19.822  0.00  0.00    +0.000 A 
ATOM     33  C   UNL     1      -0.691  10.929  20.592  0.00  0.00    +0.000 A 
ENDBRANCH  21  22
ENDBRANCH  20  21
ENDBRANCH  10  20
TORSDOF 6
ENDMDL
MODEL 4
REMARK VINA RESULT:      -8.8      1.054      1.324
REMARK  Name = 
REMARK  7 active torsions:
REMARK  status: ('A' for Active; 'I' for Inactive)
REMARK    1  A    between atoms: C_1  and  O_2
REMARK    2  A    between atoms: O_2  and  C_3
REMARK    3  A    between atoms: C_7  and  C_8
REMARK    4  A    between atoms: C_8  and  C_9
REMARK    5  A    between atoms: C_18  and  S_19
REMARK    6  A    between atoms: S_19  and  C_20
REMARK    7  A    between atoms: C_20  and  C_21
REMARK                            x       y       z     vdW  Elec       q    Type
REMARK                         _______ _______ _______ _____ _____    ______ ____
ROOT
ATOM      1  C   UNL     1       3.981   6.201  18.581  0.00  0.00    +0.000 A 
ATOM      2  N   UNL     1       4.097   5.120  19.402  0.00  0.00    +0.000 NA
ATOM      3  C   UNL     1       2.978   4.380  19.561  0.00  0.00    +0.000 A 
ATOM      4  C   UNL     1       2.679   3.702  20.734  0.00  0.00    +0.000 A 
ATOM      5  C   UNL     1       1.529   2.920  20.838  0.00  0.00    +0.000 A 
ATOM      6  C   UNL     1       0.885   2.565  19.665  0.00  0.00    +0.000 A 
ATOM      7  C   UNL     1       1.202   3.268  18.503  0.00  0.00    +0.000 A 
ATOM      8  C   UNL     1       1.981   4.439  18.608  0.00  0.00    +0.000 A 
ATOM      9  N   UNL     1       1.786   5.667  18.011  0.00  0.00    +0.000 NA
ATOM     10  C   UNL     1       2.725   6.648  18.241  0.00  0.00    +0.000 A 
ENDROOT
BRANCH   1  11
ATOM     11  C   UNL     1       5.158   6.611  17.725  0.00  0.00    +0.000 C 
BRANCH  11  16
ATOM     12  C   UNL     1       7.193   5.156  14.829  0.00  0.00    +0.000 A 
ATOM     13  C   UNL     1       6.406   4.074  14.438  0.00  0.00    +0.000 A 
ATOM     14  C   UNL     1       5.278   3.733  15.180  0.00  0.00    +0.000 A 
ATOM     15  C   UNL     1       4.913   4.496  16.296  0.00  0.00    +0.000 A 
ATOM     16  C   UNL     1       5.683   5.602  16.697  0.00  0.00    +0.000 A 
ATOM     17  C   UNL     1       6.869   5.868  15.995  0.00  0.00    +0.000 A 
BRANCH  12  19
ATOM     18  C   UNL     1       7.973   5.398  12.622  0.00  0.00    +0.000 C 
ATOM     19  O   UNL     1       8.263   5.425  14.016  0.00  0.00    +0.000 OA
ENDBRANCH  12  19
ENDBRANCH  11  16
ENDBRANCH   1  11
BRANCH  10  20
ATOM     20  S   UNL     1       2.294   8.408  17.876  0.00  0.00    +0.000 S 
BRANCH  20  21
ATOM     21  C   UNL     1       1.281   9.288  19.317  0.00  0.00    +0.000 C 
BRANCH  21  22
ATOM     22  C   UNL     1       0.232  10.287  18.794  0.00  0.00    +0.000 C 
ATOM     23  O   UNL     1      -0.305   9.873  17.746  0.00  0.00    +0.000 OA
ATOM     24  N   UNL     1       0.031  11.668  19.213  0.00  0.00    +0.000 N 
ATOM     25  C   UNL     1      -0.958  12.238  18.263  0.00  0.00    +0.000 C 
ATOM     26  C   UNL     1      -2.328  11.616  18.603  0.00  0.00    +0.000 C 
ATOM     27  C   UNL     1      -2.801  12.244  19.881  0.00  0.00    +0.000 C 
ATOM     28  C   UNL     1      -1.703  12.178  20.938  0.00  0.00    +0.000 A 
ATOM     29  C   UNL     1      -2.158  12.710  22.159  0.00  0.00    +0.000 A 
ATOM     30  C   UNL     1      -1.336  13.577  22.884  0.00  0.00    +0.000 A 
ATOM     31  C   UNL     1      -0.110  13.901  22.334  0.00  0.00    +0.000 A 
ATOM     32  C   UNL     1       0.394  13.200  21.197  0.00  0.00    +0.000 A 
ATOM     33  C   UNL     1      -0.334  12.169  20.561  0.00  0.00    +0.000 A 
ENDBRANCH  21  22
ENDBRANCH  20  21
ENDBRANCH  10  20
TORSDOF 6
ENDMDL
MODEL 5
REMARK VINA RESULT:      -8.8      1.007      1.152
REMARK  Name = 
REMARK  7 active torsions:
REMARK  status: ('A' for Active; 'I' for Inactive)
REMARK    1  A    between atoms: C_1  and  O_2
REMARK    2  A    between atoms: O_2  and  C_3
REMARK    3  A    between atoms: C_7  and  C_8
REMARK    4  A    between atoms: C_8  and  C_9
REMARK    5  A    between atoms: C_18  and  S_19
REMARK    6  A    between atoms: S_19  and  C_20
REMARK    7  A    between atoms: C_20  and  C_21
REMARK                            x       y       z     vdW  Elec       q    Type
REMARK                         _______ _______ _______ _____ _____    ______ ____
ROOT
ATOM      1  C   UNL     1       3.818   6.453  18.616  0.00  0.00    +0.000 A 
ATOM      2  N   UNL     1       4.004   5.311  19.337  0.00  0.00    +0.000 NA
ATOM      3  C   UNL     1       2.958   4.457  19.364  0.00  0.00    +0.000 A 
ATOM      4  C   UNL     1       2.675   3.641  20.450  0.00  0.00    +0.000 A 
ATOM      5  C   UNL     1       1.605   2.747  20.417  0.00  0.00    +0.000 A 
ATOM      6  C   UNL     1       1.054   2.450  19.182  0.00  0.00    +0.000 A 
ATOM      7  C   UNL     1       1.351   3.292  18.110  0.00  0.00    +0.000 A 
ATOM      8  C   UNL     1       2.004   4.515  18.367  0.00  0.00    +0.000 A 
ATOM      9  N   UNL     1       1.715   5.772  17.878  0.00  0.00    +0.000 NA
ATOM     10  C   UNL     1       2.540   6.810  18.251  0.00  0.00    +0.000 A 
ENDROOT
BRANCH   1  11
ATOM     11  C   UNL     1       4.986   7.055  17.868  0.00  0.00    +0.000 C 
BRANCH  11  16
ATOM     12  C   UNL     1       5.741   4.747  14.911  0.00  0.00    +0.000 A 
ATOM     13  C   UNL     1       6.886   4.083  15.347  0.00  0.00    +0.000 A 
ATOM     14  C   UNL     1       7.493   4.460  16.543  0.00  0.00    +0.000 A 
ATOM     15  C   UNL     1       6.934   5.478  17.324  0.00  0.00    +0.000 A 
ATOM     16  C   UNL     1       5.769   6.148  16.911  0.00  0.00    +0.000 A 
ATOM     17  C   UNL     1       5.231   5.822  15.656  0.00  0.00    +0.000 A 
BRANCH  12  19
ATOM     18  C   UNL     1       6.099   3.506  12.943  0.00  0.00    +0.000 C 
ATOM     19  O   UNL     1       5.206   4.281  13.737  0.00  0.00    +0.000 OA
ENDBRANCH  12  19
ENDBRANCH  11  16
ENDBRANCH   1  11
BRANCH  10  20
ATOM     20  S   UNL     1       1.953   8.549  18.030  0.00  0.00    +0.000 S 
BRANCH  20  21
ATOM     21  C   UNL     1       1.004   9.267  19.598  0.00  0.00    +0.000 C 
BRANCH  21  22
ATOM     22  C   UNL     1       1.020  10.805  19.661  0.00  0.00    +0.000 C 
ATOM     23  O   UNL     1       1.723  11.290  18.751  0.00  0.00    +0.000 OA
ATOM     24  N   UNL     1       0.563  11.657  20.751  0.00  0.00    +0.000 N 
ATOM     25  C   UNL     1       0.987  13.034  20.394  0.00  0.00    +0.000 C 
ATOM     26  C   UNL     1       0.077  13.506  19.241  0.00  0.00    +0.000 C 
ATOM     27  C   UNL     1      -1.276  13.791  19.824  0.00  0.00    +0.000 C 
ATOM     28  C   UNL     1      -1.744  12.611  20.669  0.00  0.00    +0.000 A 
ATOM     29  C   UNL     1      -3.038  12.845  21.172  0.00  0.00    +0.000 A 
ATOM     30  C   UNL     1      -3.324  12.549  22.507  0.00  0.00    +0.000 A 
ATOM     31  C   UNL     1      -2.290  12.067  23.289  0.00  0.00    +0.000 A 
ATOM     32  C   UNL     1      -1.052  11.666  22.703  0.00  0.00    +0.000 A 
ATOM     33  C   UNL     1      -0.806  11.764  21.315  0.00  0.00    +0.000 A 
ENDBRANCH  21  22
ENDBRANCH  20  21
ENDBRANCH  10  20
TORSDOF 6
ENDMDL
MODEL 6
REMARK VINA RESULT:      -8.7      1.372      1.755
REMARK  Name = 
REMARK  7 active torsions:
REMARK  status: ('A' for Active; 'I' for Inactive)
REMARK    1  A    between atoms: C_1  and  O_2
REMARK    2  A    between atoms: O_2  and  C_3
REMARK    3  A    between atoms: C_7  and  C_8
REMARK    4  A    between atoms: C_8  and  C_9
REMARK    5  A    between atoms: C_18  and  S_19
REMARK    6  A    between atoms: S_19  and  C_20
REMARK    7  A    between atoms: C_20  and  C_21
REMARK                            x       y       z     vdW  Elec       q    Type
REMARK                         _______ _______ _______ _____ _____    ______ ____
ROOT
ATOM      1  C   UNL     1       3.784   6.518  18.791  0.00  0.00    +0.000 A 
ATOM      2  N   UNL     1       3.892   5.431  19.605  0.00  0.00    +0.000 NA
ATOM      3  C   UNL     1       2.856   4.565  19.571  0.00  0.00    +0.000 A 
ATOM      4  C   UNL     1       2.455   3.821  20.671  0.00  0.00    +0.000 A 
ATOM      5  C   UNL     1       1.401   2.911  20.577  0.00  0.00    +0.000 A 
ATOM      6  C   UNL     1       0.998   2.524  19.310  0.00  0.00    +0.000 A 
ATOM      7  C   UNL     1       1.412   3.296  18.224  0.00  0.00    +0.000 A 
ATOM      8  C   UNL     1       2.023   4.543  18.470  0.00  0.00    +0.000 A 
ATOM      9  N   UNL     1       1.784   5.759  17.866  0.00  0.00    +0.000 NA
ATOM     10  C   UNL     1       2.555   6.832  18.259  0.00  0.00    +0.000 A 
ENDROOT
BRANCH   1  11
ATOM     11  C   UNL     1       5.026   7.085  18.143  0.00  0.00    +0.000 C 
BRANCH  11  16
ATOM     12  C   UNL     1       5.763   4.810  15.155  0.00  0.00    +0.000 A 
ATOM     13  C   UNL     1       6.906   4.134  15.580  0.00  0.00    +0.000 A 
ATOM     14  C   UNL     1       7.517   4.493  16.780  0.00  0.00    +0.000 A 
ATOM     15  C   UNL     1       6.965   5.505  17.575  0.00  0.00    +0.000 A 
ATOM     16  C   UNL     1       5.803   6.186  17.173  0.00  0.00    +0.000 A 
ATOM     17  C   UNL     1       5.260   5.878  15.915  0.00  0.00    +0.000 A 
BRANCH  12  19
ATOM     18  C   UNL     1       6.120   3.619  13.156  0.00  0.00    +0.000 C 
ATOM     19  O   UNL     1       5.223   4.362  13.977  0.00  0.00    +0.000 OA
ENDBRANCH  12  19
ENDBRANCH  11  16
ENDBRANCH   1  11
BRANCH  10  20
ATOM     20  S   UNL     1       1.986   8.543  17.853  0.00  0.00    +0.000 S 
BRANCH  20  21
ATOM     21  C   UNL     1       1.040   9.433  19.332  0.00  0.00    +0.000 C 
BRANCH  21  22
ATOM     22  C   UNL     1      -0.013  10.448  18.852  0.00  0.00    +0.000 C 
ATOM     23  O   UNL     1      -0.608  10.038  17.834  0.00  0.00    +0.000 OA
ATOM     24  N   UNL     1      -0.167  11.836  19.268  0.00  0.00    +0.000 N 
ATOM     25  C   UNL     1      -1.188  12.419  18.362  0.00  0.00    +0.000 C 
ATOM     26  C   UNL     1      -2.552  11.828  18.772  0.00  0.00    +0.000 C 
ATOM     27  C   UNL     1      -2.951  12.474  20.066  0.00  0.00    +0.000 C 
ATOM     28  C   UNL     1      -1.806  12.394  21.070  0.00  0.00    +0.000 A 
ATOM     29  C   UNL     1      -2.191  12.944  22.306  0.00  0.00    +0.000 A 
ATOM     30  C   UNL     1      -1.319  13.799  22.984  0.00  0.00    +0.000 A 
ATOM     31  C   UNL     1      -0.114  14.094  22.374  0.00  0.00    +0.000 A 
ATOM     32  C   UNL     1       0.321  13.375  21.220  0.00  0.00    +0.000 A 
ATOM     33  C   UNL     1      -0.457  12.355  20.628  0.00  0.00    +0.000 A 
ENDBRANCH  21  22
ENDBRANCH  20  21
ENDBRANCH  10  20
TORSDOF 6
ENDMDL
MODEL 7
REMARK VINA RESULT:      -8.7      1.304      2.477
REMARK  Name = 
REMARK  7 active torsions:
REMARK  status: ('A' for Active; 'I' for Inactive)
REMARK    1  A    between atoms: C_1  and  O_2
REMARK    2  A    between atoms: O_2  and  C_3
REMARK    3  A    between atoms: C_7  and  C_8
REMARK    4  A    between atoms: C_8  and  C_9
REMARK    5  A    between atoms: C_18  and  S_19
REMARK    6  A    between atoms: S_19  and  C_20
REMARK    7  A    between atoms: C_20  and  C_21
REMARK                            x       y       z     vdW  Elec       q    Type
REMARK                         _______ _______ _______ _____ _____    ______ ____
ROOT
ATOM      1  C   UNL     1       3.910   6.032  18.628  0.00  0.00    +0.000 A 
ATOM      2  N   UNL     1       4.070   4.889  19.352  0.00  0.00    +0.000 NA
ATOM      3  C   UNL     1       2.960   4.138  19.518  0.00  0.00    +0.000 A 
ATOM      4  C   UNL     1       2.728   3.369  20.650  0.00  0.00    +0.000 A 
ATOM      5  C   UNL     1       1.583   2.580  20.760  0.00  0.00    +0.000 A 
ATOM      6  C   UNL     1       0.869   2.319  19.602  0.00  0.00    +0.000 A 
ATOM      7  C   UNL     1       1.119   3.113  18.483  0.00  0.00    +0.000 A 
ATOM      8  C   UNL     1       1.908   4.272  18.634  0.00  0.00    +0.000 A 
ATOM      9  N   UNL     1       1.682   5.543  18.149  0.00  0.00    +0.000 NA
ATOM     10  C   UNL     1       2.637   6.504  18.400  0.00  0.00    +0.000 A 
ENDROOT
BRANCH   1  11
ATOM     11  C   UNL     1       5.035   6.510  17.739  0.00  0.00    +0.000 C 
BRANCH  11  16
ATOM     12  C   UNL     1       7.142   5.147  14.850  0.00  0.00    +0.000 A 
ATOM     13  C   UNL     1       6.369   4.074  14.409  0.00  0.00    +0.000 A 
ATOM     14  C   UNL     1       5.225   3.708  15.115  0.00  0.00    +0.000 A 
ATOM     15  C   UNL     1       4.832   4.437  16.243  0.00  0.00    +0.000 A 
ATOM     16  C   UNL     1       5.587   5.533  16.694  0.00  0.00    +0.000 A 
ATOM     17  C   UNL     1       6.788   5.823  16.028  0.00  0.00    +0.000 A 
BRANCH  12  19
ATOM     18  C   UNL     1       7.983   5.411  12.668  0.00  0.00    +0.000 C 
ATOM     19  O   UNL     1       8.230   5.443  14.070  0.00  0.00    +0.000 OA
ENDBRANCH  12  19
ENDBRANCH  11  16
ENDBRANCH   1  11
BRANCH  10  20
ATOM     20  S   UNL     1       2.192   8.287  18.203  0.00  0.00    +0.000 S 
BRANCH  20  21
ATOM     21  C   UNL     1       1.294   9.056  19.776  0.00  0.00    +0.000 C 
BRANCH  21  22
ATOM     22  C   UNL     1       0.342  10.213  19.423  0.00  0.00    +0.000 C 
ATOM     23  O   UNL     1      -0.849   9.897  19.618  0.00  0.00    +0.000 OA
ATOM     24  N   UNL     1       0.655  11.429  18.682  0.00  0.00    +0.000 N 
ATOM     25  C   UNL     1      -0.646  12.103  18.444  0.00  0.00    +0.000 C 
ATOM     26  C   UNL     1      -1.114  12.683  19.794  0.00  0.00    +0.000 C 
ATOM     27  C   UNL     1      -0.252  13.875  20.093  0.00  0.00    +0.000 C 
ATOM     28  C   UNL     1       1.221  13.512  19.941  0.00  0.00    +0.000 A 
ATOM     29  C   UNL     1       2.039  14.606  20.278  0.00  0.00    +0.000 A 
ATOM     30  C   UNL     1       3.129  14.930  19.466  0.00  0.00    +0.000 A 
ATOM     31  C   UNL     1       3.328  14.164  18.332  0.00  0.00    +0.000 A 
ATOM     32  C   UNL     1       2.600  12.954  18.126  0.00  0.00    +0.000 A 
ATOM     33  C   UNL     1       1.627  12.492  19.041  0.00  0.00    +0.000 A 
ENDBRANCH  21  22
ENDBRANCH  20  21
ENDBRANCH  10  20
TORSDOF 6
ENDMDL
MODEL 8
REMARK VINA RESULT:      -8.7      1.633      2.757
REMARK  Name = 
REMARK  7 active torsions:
REMARK  status: ('A' for Active; 'I' for Inactive)
REMARK    1  A    between atoms: C_1  and  O_2
REMARK    2  A    between atoms: O_2  and  C_3
REMARK    3  A    between atoms: C_7  and  C_8
REMARK    4  A    between atoms: C_8  and  C_9
REMARK    5  A    between atoms: C_18  and  S_19
REMARK    6  A    between atoms: S_19  and  C_20
REMARK    7  A    between atoms: C_20  and  C_21
REMARK                            x       y       z     vdW  Elec       q    Type
REMARK                         _______ _______ _______ _____ _____    ______ ____
ROOT
ATOM      1  C   UNL     1       3.847   6.538  18.547  0.00  0.00    +0.000 A 
ATOM      2  N   UNL     1       4.063   5.393  19.253  0.00  0.00    +0.000 NA
ATOM      3  C   UNL     1       3.008   4.556  19.353  0.00  0.00    +0.000 A 
ATOM      4  C   UNL     1       2.787   3.744  20.456  0.00  0.00    +0.000 A 
ATOM      5  C   UNL     1       1.702   2.868  20.498  0.00  0.00    +0.000 A 
ATOM      6  C   UNL     1       1.061   2.583  19.304  0.00  0.00    +0.000 A 
ATOM      7  C   UNL     1       1.298   3.420  18.214  0.00  0.00    +0.000 A 
ATOM      8  C   UNL     1       1.988   4.632  18.426  0.00  0.00    +0.000 A 
ATOM      9  N   UNL     1       1.686   5.894  17.958  0.00  0.00    +0.000 NA
ATOM     10  C   UNL     1       2.553   6.918  18.272  0.00  0.00    +0.000 A 
ENDROOT
BRANCH   1  11
ATOM     11  C   UNL     1       4.970   7.121  17.720  0.00  0.00    +0.000 C 
BRANCH  11  16
ATOM     12  C   UNL     1       5.760   4.681  14.880  0.00  0.00    +0.000 A 
ATOM     13  C   UNL     1       6.896   4.033  15.362  0.00  0.00    +0.000 A 
ATOM     14  C   UNL     1       7.485   4.460  16.550  0.00  0.00    +0.000 A 
ATOM     15  C   UNL     1       6.919   5.515  17.276  0.00  0.00    +0.000 A 
ATOM     16  C   UNL     1       5.764   6.170  16.816  0.00  0.00    +0.000 A 
ATOM     17  C   UNL     1       5.244   5.790  15.569  0.00  0.00    +0.000 A 
BRANCH  12  19
ATOM     18  C   UNL     1       6.206   3.610  12.832  0.00  0.00    +0.000 C 
ATOM     19  O   UNL     1       5.241   4.166  13.719  0.00  0.00    +0.000 OA
ENDBRANCH  12  19
ENDBRANCH  11  16
ENDBRANCH   1  11
BRANCH  10  20
ATOM     20  S   UNL     1       1.982   8.666  18.092  0.00  0.00    +0.000 S 
BRANCH  20  21
ATOM     21  C   UNL     1       0.992   9.338  19.656  0.00  0.00    +0.000 C 
BRANCH  21  22
ATOM     22  C   UNL     1       0.136  10.578  19.341  0.00  0.00    +0.000 C 
ATOM     23  O   UNL     1      -1.075  10.358  19.547  0.00  0.00    +0.000 OA
ATOM     24  N   UNL     1       0.539  11.780  18.621  0.00  0.00    +0.000 N 
ATOM     25  C   UNL     1      -0.704  12.564  18.416  0.00  0.00    +0.000 C 
ATOM     26  C   UNL     1      -1.104  13.152  19.785  0.00  0.00    +0.000 C 
ATOM     27  C   UNL     1      -0.142  14.261  20.096  0.00  0.00    +0.000 C 
ATOM     28  C   UNL     1       1.294  13.780  19.915  0.00  0.00    +0.000 A 
ATOM     29  C   UNL     1       2.205  14.795  20.261  0.00  0.00    +0.000 A 
ATOM     30  C   UNL     1       3.307  15.045  19.440  0.00  0.00    +0.000 A 
ATOM     31  C   UNL     1       3.427  14.290  18.288  0.00  0.00    +0.000 A 
ATOM     32  C   UNL     1       2.597  13.149  18.067  0.00  0.00    +0.000 A 
ATOM     33  C   UNL     1       1.601  12.750  18.987  0.00  0.00    +0.000 A 
ENDBRANCH  21  22
ENDBRANCH  20  21
ENDBRANCH  10  20
TORSDOF 6
ENDMDL
MODEL 9
REMARK VINA RESULT:      -8.6      2.688      9.763
REMARK  Name = 
REMARK  7 active torsions:
REMARK  status: ('A' for Active; 'I' for Inactive)
REMARK    1  A    between atoms: C_1  and  O_2
REMARK    2  A    between atoms: O_2  and  C_3
REMARK    3  A    between atoms: C_7  and  C_8
REMARK    4  A    between atoms: C_8  and  C_9
REMARK    5  A    between atoms: C_18  and  S_19
REMARK    6  A    between atoms: S_19  and  C_20
REMARK    7  A    between atoms: C_20  and  C_21
REMARK                            x       y       z     vdW  Elec       q    Type
REMARK                         _______ _______ _______ _____ _____    ______ ____
ROOT
ATOM      1  C   UNL     1       0.374  11.018  19.663  0.00  0.00    +0.000 A 
ATOM      2  N   UNL     1       0.310  12.021  20.583  0.00  0.00    +0.000 NA
ATOM      3  C   UNL     1       0.996  13.144  20.277  0.00  0.00    +0.000 A 
ATOM      4  C   UNL     1       1.581  13.958  21.236  0.00  0.00    +0.000 A 
ATOM      5  C   UNL     1       2.248  15.129  20.875  0.00  0.00    +0.000 A 
ATOM      6  C   UNL     1       2.024  15.628  19.603  0.00  0.00    +0.000 A 
ATOM      7  C   UNL     1       1.441  14.784  18.658  0.00  0.00    +0.000 A 
ATOM      8  C   UNL     1       1.311  13.413  18.961  0.00  0.00    +0.000 A 
ATOM      9  N   UNL     1       1.605  12.320  18.172  0.00  0.00    +0.000 NA
ATOM     10  C   UNL     1       1.345  11.069  18.688  0.00  0.00    +0.000 A 
ENDROOT
BRANCH   1  11
ATOM     11  C   UNL     1      -0.831  10.132  19.446  0.00  0.00    +0.000 C 
BRANCH  11  16
ATOM     12  C   UNL     1      -3.953  11.424  17.651  0.00  0.00    +0.000 A 
ATOM     13  C   UNL     1      -3.876  10.765  16.425  0.00  0.00    +0.000 A 
ATOM     14  C   UNL     1      -2.755   9.995  16.122  0.00  0.00    +0.000 A 
ATOM     15  C   UNL     1      -1.725   9.853  17.059  0.00  0.00    +0.000 A 
ATOM     16  C   UNL     1      -1.792  10.494  18.308  0.00  0.00    +0.000 A 
ATOM     17  C   UNL     1      -2.882  11.345  18.554  0.00  0.00    +0.000 A 
BRANCH  12  19
ATOM     18  C   UNL     1      -5.317  12.541  19.210  0.00  0.00    +0.000 C 
ATOM     19  O   UNL     1      -5.109  12.132  17.862  0.00  0.00    +0.000 OA
ENDBRANCH  12  19
ENDBRANCH  11  16
ENDBRANCH   1  11
BRANCH  10  20
ATOM     20  S   UNL     1       2.134   9.592  17.905  0.00  0.00    +0.000 S 
BRANCH  20  21
ATOM     21  C   UNL     1       2.222   8.023  19.090  0.00  0.00    +0.000 C 
BRANCH  21  22
ATOM     22  C   UNL     1       2.796   6.774  18.396  0.00  0.00    +0.000 C 
ATOM     23  O   UNL     1       3.646   7.083  17.536  0.00  0.00    +0.000 OA
ATOM     24  N   UNL     1       2.280   5.412  18.446  0.00  0.00    +0.000 N 
ATOM     25  C   UNL     1       3.070   4.644  17.451  0.00  0.00    +0.000 C 
ATOM     26  C   UNL     1       4.483   4.455  18.039  0.00  0.00    +0.000 C 
ATOM     27  C   UNL     1       4.380   3.434  19.135  0.00  0.00    +0.000 C 
ATOM     28  C   UNL     1       3.250   3.801  20.091  0.00  0.00    +0.000 A 
ATOM     29  C   UNL     1       3.184   2.883  21.156  0.00  0.00    +0.000 A 
ATOM     30  C   UNL     1       1.944   2.387  21.565  0.00  0.00    +0.000 A 
ATOM     31  C   UNL     1       0.828   2.805  20.864  0.00  0.00    +0.000 A 
ATOM     32  C   UNL     1       0.910   3.874  19.921  0.00  0.00    +0.000 A 
ATOM     33  C   UNL     1       2.125   4.537  19.635  0.00  0.00    +0.000 A 
ENDBRANCH  21  22
ENDBRANCH  20  21
ENDBRANCH  10  20
TORSDOF 6
ENDMDL
