MODEL 1
REMARK VINA RESULT:      -8.4      0.000      0.000
REMARK  Name = 
REMARK  7 active torsions:
REMARK  status: ('A' for Active; 'I' for Inactive)
REMARK    1  A    between atoms: C_1  and  C_2
REMARK    2  A    between atoms: C_3  and  C_4
REMARK    3  A    between atoms: N_6  and  C_7
REMARK    4  A    between atoms: C_7  and  C_8
REMARK    5  A    between atoms: C_8  and  C_9
REMARK    6  A    between atoms: C_12  and  C_13
REMARK    7  A    between atoms: C_19  and  C_20
REMARK                            x       y       z     vdW  Elec       q    Type
REMARK                         _______ _______ _______ _____ _____    ______ ____
ROOT
ATOM      1  C   UNL     1       7.598   5.351  14.851  0.00  0.00    +0.000 C 
ATOM      2  C   UNL     1       6.505   5.212  15.848  0.00  0.00    +0.000 C 
ATOM      3  C   UNL     1       6.299   5.668  17.089  0.00  0.00    +0.000 C 
ATOM      4  C   UNL     1       4.982   5.195  17.617  0.00  0.00    +0.000 C 
ATOM      5  C   UNL     1       3.971   6.329  17.872  0.00  0.00    +0.000 C 
ATOM      6  C   UNL     1       2.627   5.811  18.389  0.00  0.00    +0.000 C 
ATOM      7  C   UNL     1       2.807   4.920  19.624  0.00  0.00    +0.000 C 
ATOM      8  C   UNL     1       1.456   4.426  20.135  0.00  0.00    +0.000 C 
ATOM      9  C   UNL     1       3.733   3.741  19.303  0.00  0.00    +0.000 C 
ATOM     10  C   UNL     1       5.100   4.222  18.807  0.00  0.00    +0.000 C 
ATOM     11  O   UNL     1       4.450   4.423  16.521  0.00  0.00    +0.000 OA
ATOM     12  C   UNL     1       5.327   4.416  15.482  0.00  0.00    +0.000 C 
ATOM     13  O   UNL     1       5.151   3.851  14.427  0.00  0.00    +0.000 OA
ENDROOT
BRANCH   3  14
ATOM     14  C   UNL     1       7.277   6.536  17.794  0.00  0.00    +0.000 C 
ATOM     15  O   UNL     1       7.968   6.109  18.718  0.00  0.00    +0.000 OA
ATOM     16  N   UNL     1       7.393   7.830  17.367  0.00  0.00    +0.000 N 
ATOM     17  H   UNL     1       6.873   8.192  16.585  0.00  0.00    +0.000 HD
BRANCH  16  18
ATOM     18  C   UNL     1       8.340   8.737  17.994  0.00  0.00    +0.000 C 
BRANCH  18  19
ATOM     19  C   UNL     1       8.012  10.216  17.755  0.00  0.00    +0.000 C 
BRANCH  19  20
ATOM     20  C   UNL     1       9.072  11.191  18.226  0.00  0.00    +0.000 A 
ATOM     21  C   UNL     1       9.967  10.808  19.237  0.00  0.00    +0.000 A 
ATOM     22  C   UNL     1      10.935  11.695  19.709  0.00  0.00    +0.000 A 
ATOM     23  C   UNL     1      11.033  12.987  19.179  0.00  0.00    +0.000 A 
ATOM     24  C   UNL     1      12.043  13.965  19.699  0.00  0.00    +0.000 C 
ATOM     25  C   UNL     1      10.159  13.363  18.155  0.00  0.00    +0.000 A 
ATOM     26  C   UNL     1       9.191  12.474  17.677  0.00  0.00    +0.000 A 
ENDBRANCH  19  20
ENDBRANCH  18  19
ENDBRANCH  16  18
ENDBRANCH   3  14
TORSDOF 4
ENDMDL
MODEL 2
REMARK VINA RESULT:      -8.3      4.984      7.801
REMARK  Name = 
REMARK  7 active torsions:
REMARK  status: ('A' for Active; 'I' for Inactive)
REMARK    1  A    between atoms: C_1  and  C_2
REMARK    2  A    between atoms: C_3  and  C_4
REMARK    3  A    between atoms: N_6  and  C_7
REMARK    4  A    between atoms: C_7  and  C_8
REMARK    5  A    between atoms: C_8  and  C_9
REMARK    6  A    between atoms: C_12  and  C_13
REMARK    7  A    between atoms: C_19  and  C_20
REMARK                            x       y       z     vdW  Elec       q    Type
REMARK                         _______ _______ _______ _____ _____    ______ ____
ROOT
ATOM      1  C   UNL     1       2.618   2.373  21.743  0.00  0.00    +0.000 C 
ATOM      2  C   UNL     1       3.365   2.961  20.601  0.00  0.00    +0.000 C 
ATOM      3  C   UNL     1       3.184   4.017  19.800  0.00  0.00    +0.000 C 
ATOM      4  C   UNL     1       4.291   4.122  18.800  0.00  0.00    +0.000 C 
ATOM      5  C   UNL     1       5.160   5.384  18.967  0.00  0.00    +0.000 C 
ATOM      6  C   UNL     1       6.298   5.450  17.945  0.00  0.00    +0.000 C 
ATOM      7  C   UNL     1       5.773   5.305  16.511  0.00  0.00    +0.000 C 
ATOM      8  C   UNL     1       6.920   5.390  15.507  0.00  0.00    +0.000 C 
ATOM      9  C   UNL     1       5.007   3.987  16.354  0.00  0.00    +0.000 C 
ATOM     10  C   UNL     1       3.841   3.895  17.344  0.00  0.00    +0.000 C 
ATOM     11  O   UNL     1       5.140   3.005  19.136  0.00  0.00    +0.000 OA
ATOM     12  C   UNL     1       4.613   2.312  20.180  0.00  0.00    +0.000 C 
ATOM     13  O   UNL     1       5.105   1.326  20.679  0.00  0.00    +0.000 OA
ENDROOT
BRANCH   3  14
ATOM     14  C   UNL     1       2.024   4.936  19.939  0.00  0.00    +0.000 C 
ATOM     15  O   UNL     1       0.934   4.678  19.433  0.00  0.00    +0.000 OA
ATOM     16  N   UNL     1       2.211   6.078  20.668  0.00  0.00    +0.000 N 
ATOM     17  H   UNL     1       3.078   6.292  21.130  0.00  0.00    +0.000 HD
BRANCH  16  18
ATOM     18  C   UNL     1       1.121   7.019  20.864  0.00  0.00    +0.000 C 
BRANCH  18  19
ATOM     19  C   UNL     1       1.550   8.484  20.716  0.00  0.00    +0.000 C 
BRANCH  19  20
ATOM     20  C   UNL     1       0.604   9.494  21.332  0.00  0.00    +0.000 A 
ATOM     21  C   UNL     1       0.109   9.280  22.628  0.00  0.00    +0.000 A 
ATOM     22  C   UNL     1      -0.785  10.180  23.210  0.00  0.00    +0.000 A 
ATOM     23  C   UNL     1      -1.205  11.317  22.509  0.00  0.00    +0.000 A 
ATOM     24  C   UNL     1      -2.193  12.275  23.104  0.00  0.00    +0.000 C 
ATOM     25  C   UNL     1      -0.694  11.545  21.228  0.00  0.00    +0.000 A 
ATOM     26  C   UNL     1       0.205  10.648  20.645  0.00  0.00    +0.000 A 
ENDBRANCH  19  20
ENDBRANCH  18  19
ENDBRANCH  16  18
ENDBRANCH   3  14
TORSDOF 4
ENDMDL
MODEL 3
REMARK VINA RESULT:      -8.2      4.905      7.837
REMARK  Name = 
REMARK  7 active torsions:
REMARK  status: ('A' for Active; 'I' for Inactive)
REMARK    1  A    between atoms: C_1  and  C_2
REMARK    2  A    between atoms: C_3  and  C_4
REMARK    3  A    between atoms: N_6  and  C_7
REMARK    4  A    between atoms: C_7  and  C_8
REMARK    5  A    between atoms: C_8  and  C_9
REMARK    6  A    between atoms: C_12  and  C_13
REMARK    7  A    between atoms: C_19  and  C_20
REMARK                            x       y       z     vdW  Elec       q    Type
REMARK                         _______ _______ _______ _____ _____    ______ ____
ROOT
ATOM      1  C   UNL     1       2.517   3.143  21.451  0.00  0.00    +0.000 C 
ATOM      2  C   UNL     1       3.380   3.508  20.298  0.00  0.00    +0.000 C 
ATOM      3  C   UNL     1       3.383   4.498  19.398  0.00  0.00    +0.000 C 
ATOM      4  C   UNL     1       4.527   4.349  18.447  0.00  0.00    +0.000 C 
ATOM      5  C   UNL     1       5.564   5.485  18.540  0.00  0.00    +0.000 C 
ATOM      6  C   UNL     1       6.733   5.291  17.571  0.00  0.00    +0.000 C 
ATOM      7  C   UNL     1       6.242   5.086  16.134  0.00  0.00    +0.000 C 
ATOM      8  C   UNL     1       7.421   4.911  15.180  0.00  0.00    +0.000 C 
ATOM      9  C   UNL     1       5.297   3.881  16.059  0.00  0.00    +0.000 C 
ATOM     10  C   UNL     1       4.098   4.051  16.997  0.00  0.00    +0.000 C 
ATOM     11  O   UNL     1       5.191   3.160  18.920  0.00  0.00    +0.000 OA
ATOM     12  C   UNL     1       4.534   2.651  19.996  0.00  0.00    +0.000 C 
ATOM     13  O   UNL     1       4.860   1.657  20.604  0.00  0.00    +0.000 OA
ENDROOT
BRANCH   3  14
ATOM     14  C   UNL     1       2.366   5.581  19.400  0.00  0.00    +0.000 C 
ATOM     15  O   UNL     1       1.291   5.457  18.816  0.00  0.00    +0.000 OA
ATOM     16  N   UNL     1       2.663   6.723  20.092  0.00  0.00    +0.000 N 
ATOM     17  H   UNL     1       3.515   6.833  20.616  0.00  0.00    +0.000 HD
BRANCH  16  18
ATOM     18  C   UNL     1       1.714   7.821  20.157  0.00  0.00    +0.000 C 
BRANCH  18  19
ATOM     19  C   UNL     1       0.928   7.867  21.474  0.00  0.00    +0.000 C 
BRANCH  19  20
ATOM     20  C   UNL     1       0.146   9.142  21.708  0.00  0.00    +0.000 A 
ATOM     21  C   UNL     1      -0.087  10.021  20.638  0.00  0.00    +0.000 A 
ATOM     22  C   UNL     1      -0.780  11.216  20.832  0.00  0.00    +0.000 A 
ATOM     23  C   UNL     1      -1.261  11.561  22.101  0.00  0.00    +0.000 A 
ATOM     24  C   UNL     1      -1.975  12.857  22.335  0.00  0.00    +0.000 C 
ATOM     25  C   UNL     1      -1.051  10.676  23.163  0.00  0.00    +0.000 A 
ATOM     26  C   UNL     1      -0.360   9.476  22.971  0.00  0.00    +0.000 A 
ENDBRANCH  19  20
ENDBRANCH  18  19
ENDBRANCH  16  18
ENDBRANCH   3  14
TORSDOF 4
ENDMDL
MODEL 4
REMARK VINA RESULT:      -7.9      6.256     10.097
REMARK  Name = 
REMARK  7 active torsions:
REMARK  status: ('A' for Active; 'I' for Inactive)
REMARK    1  A    between atoms: C_1  and  C_2
REMARK    2  A    between atoms: C_3  and  C_4
REMARK    3  A    between atoms: N_6  and  C_7
REMARK    4  A    between atoms: C_7  and  C_8
REMARK    5  A    between atoms: C_8  and  C_9
REMARK    6  A    between atoms: C_12  and  C_13
REMARK    7  A    between atoms: C_19  and  C_20
REMARK                            x       y       z     vdW  Elec       q    Type
REMARK                         _______ _______ _______ _____ _____    ______ ____
ROOT
ATOM      1  C   UNL     1      -0.173   8.524  21.656  0.00  0.00    +0.000 C 
ATOM      2  C   UNL     1      -0.008   9.956  21.298  0.00  0.00    +0.000 C 
ATOM      3  C   UNL     1       0.312  10.618  20.179  0.00  0.00    +0.000 C 
ATOM      4  C   UNL     1       0.323  12.094  20.419  0.00  0.00    +0.000 C 
ATOM      5  C   UNL     1      -0.757  12.859  19.631  0.00  0.00    +0.000 C 
ATOM      6  C   UNL     1      -0.735  14.363  19.916  0.00  0.00    +0.000 C 
ATOM      7  C   UNL     1       0.662  14.955  19.691  0.00  0.00    +0.000 C 
ATOM      8  C   UNL     1       0.661  16.458  19.964  0.00  0.00    +0.000 C 
ATOM      9  C   UNL     1       1.693  14.242  20.572  0.00  0.00    +0.000 C 
ATOM     10  C   UNL     1       1.719  12.735  20.296  0.00  0.00    +0.000 C 
ATOM     11  O   UNL     1      -0.045  12.200  21.810  0.00  0.00    +0.000 OA
ATOM     12  C   UNL     1      -0.236  10.964  22.341  0.00  0.00    +0.000 C 
ATOM     13  O   UNL     1      -0.552  10.741  23.488  0.00  0.00    +0.000 OA
ENDROOT
BRANCH   3  14
ATOM     14  C   UNL     1       0.596   9.925  18.896  0.00  0.00    +0.000 C 
ATOM     15  O   UNL     1      -0.219   9.917  17.974  0.00  0.00    +0.000 OA
ATOM     16  N   UNL     1       1.809   9.305  18.770  0.00  0.00    +0.000 N 
ATOM     17  H   UNL     1       2.510   9.335  19.490  0.00  0.00    +0.000 HD
BRANCH  16  18
ATOM     18  C   UNL     1       2.168   8.621  17.539  0.00  0.00    +0.000 C 
BRANCH  18  19
ATOM     19  C   UNL     1       3.157   7.468  17.754  0.00  0.00    +0.000 C 
BRANCH  19  20
ATOM     20  C   UNL     1       2.613   6.298  18.547  0.00  0.00    +0.000 A 
ATOM     21  C   UNL     1       2.256   5.114  17.881  0.00  0.00    +0.000 A 
ATOM     22  C   UNL     1       1.727   4.031  18.583  0.00  0.00    +0.000 A 
ATOM     23  C   UNL     1       1.544   4.104  19.969  0.00  0.00    +0.000 A 
ATOM     24  C   UNL     1       0.943   2.963  20.734  0.00  0.00    +0.000 C 
ATOM     25  C   UNL     1       1.920   5.272  20.638  0.00  0.00    +0.000 A 
ATOM     26  C   UNL     1       2.455   6.357  19.937  0.00  0.00    +0.000 A 
ENDBRANCH  19  20
ENDBRANCH  18  19
ENDBRANCH  16  18
ENDBRANCH   3  14
TORSDOF 4
ENDMDL
MODEL 5
REMARK VINA RESULT:      -7.8      4.633      7.918
REMARK  Name = 
REMARK  7 active torsions:
REMARK  status: ('A' for Active; 'I' for Inactive)
REMARK    1  A    between atoms: C_1  and  C_2
REMARK    2  A    between atoms: C_3  and  C_4
REMARK    3  A    between atoms: N_6  and  C_7
REMARK    4  A    between atoms: C_7  and  C_8
REMARK    5  A    between atoms: C_8  and  C_9
REMARK    6  A    between atoms: C_12  and  C_13
REMARK    7  A    between atoms: C_19  and  C_20
REMARK                            x       y       z     vdW  Elec       q    Type
REMARK                         _______ _______ _______ _____ _____    ______ ____
ROOT
ATOM      1  C   UNL     1       0.681   3.000  19.199  0.00  0.00    +0.000 C 
ATOM      2  C   UNL     1       1.924   3.707  18.793  0.00  0.00    +0.000 C 
ATOM      3  C   UNL     1       2.544   4.825  19.188  0.00  0.00    +0.000 C 
ATOM      4  C   UNL     1       3.796   5.045  18.399  0.00  0.00    +0.000 C 
ATOM      5  C   UNL     1       5.083   4.965  19.242  0.00  0.00    +0.000 C 
ATOM      6  C   UNL     1       6.347   5.170  18.402  0.00  0.00    +0.000 C 
ATOM      7  C   UNL     1       6.276   6.470  17.592  0.00  0.00    +0.000 C 
ATOM      8  C   UNL     1       7.550   6.666  16.775  0.00  0.00    +0.000 C 
ATOM      9  C   UNL     1       5.041   6.468  16.684  0.00  0.00    +0.000 C 
ATOM     10  C   UNL     1       3.752   6.291  17.493  0.00  0.00    +0.000 C 
ATOM     11  O   UNL     1       3.826   3.907  17.512  0.00  0.00    +0.000 OA
ATOM     12  C   UNL     1       2.739   3.118  17.723  0.00  0.00    +0.000 C 
ATOM     13  O   UNL     1       2.497   2.094  17.126  0.00  0.00    +0.000 OA
ENDROOT
BRANCH   3  14
ATOM     14  C   UNL     1       2.020   5.687  20.278  0.00  0.00    +0.000 C 
ATOM     15  O   UNL     1       1.797   5.240  21.402  0.00  0.00    +0.000 OA
ATOM     16  N   UNL     1       1.806   7.006  19.989  0.00  0.00    +0.000 N 
ATOM     17  H   UNL     1       2.022   7.407  19.092  0.00  0.00    +0.000 HD
BRANCH  16  18
ATOM     18  C   UNL     1       1.310   7.918  21.006  0.00  0.00    +0.000 C 
BRANCH  18  19
ATOM     19  C   UNL     1       1.101   9.347  20.489  0.00  0.00    +0.000 C 
BRANCH  19  20
ATOM     20  C   UNL     1       0.068  10.156  21.246  0.00  0.00    +0.000 A 
ATOM     21  C   UNL     1      -0.591  11.216  20.602  0.00  0.00    +0.000 A 
ATOM     22  C   UNL     1      -1.527  11.995  21.283  0.00  0.00    +0.000 A 
ATOM     23  C   UNL     1      -1.829  11.732  22.624  0.00  0.00    +0.000 A 
ATOM     24  C   UNL     1      -2.805  12.581  23.382  0.00  0.00    +0.000 C 
ATOM     25  C   UNL     1      -1.192  10.662  23.260  0.00  0.00    +0.000 A 
ATOM     26  C   UNL     1      -0.258   9.877  22.579  0.00  0.00    +0.000 A 
ENDBRANCH  19  20
ENDBRANCH  18  19
ENDBRANCH  16  18
ENDBRANCH   3  14
TORSDOF 4
ENDMDL
MODEL 6
REMARK VINA RESULT:      -7.8      4.949      7.655
REMARK  Name = 
REMARK  7 active torsions:
REMARK  status: ('A' for Active; 'I' for Inactive)
REMARK    1  A    between atoms: C_1  and  C_2
REMARK    2  A    between atoms: C_3  and  C_4
REMARK    3  A    between atoms: N_6  and  C_7
REMARK    4  A    between atoms: C_7  and  C_8
REMARK    5  A    between atoms: C_8  and  C_9
REMARK    6  A    between atoms: C_12  and  C_13
REMARK    7  A    between atoms: C_19  and  C_20
REMARK                            x       y       z     vdW  Elec       q    Type
REMARK                         _______ _______ _______ _____ _____    ______ ____
ROOT
ATOM      1  C   UNL     1       2.576   2.592  21.727  0.00  0.00    +0.000 C 
ATOM      2  C   UNL     1       3.328   3.140  20.569  0.00  0.00    +0.000 C 
ATOM      3  C   UNL     1       3.213   4.229  19.800  0.00  0.00    +0.000 C 
ATOM      4  C   UNL     1       4.286   4.259  18.758  0.00  0.00    +0.000 C 
ATOM      5  C   UNL     1       5.272   5.432  18.916  0.00  0.00    +0.000 C 
ATOM      6  C   UNL     1       6.370   5.422  17.850  0.00  0.00    +0.000 C 
ATOM      7  C   UNL     1       5.778   5.362  16.437  0.00  0.00    +0.000 C 
ATOM      8  C   UNL     1       6.887   5.370  15.387  0.00  0.00    +0.000 C 
ATOM      9  C   UNL     1       4.888   4.124  16.281  0.00  0.00    +0.000 C 
ATOM     10  C   UNL     1       3.759   4.113  17.317  0.00  0.00    +0.000 C 
ATOM     11  O   UNL     1       5.040   3.061  19.032  0.00  0.00    +0.000 OA
ATOM     12  C   UNL     1       4.494   2.391  20.081  0.00  0.00    +0.000 C 
ATOM     13  O   UNL     1       4.913   1.352  20.537  0.00  0.00    +0.000 OA
ENDROOT
BRANCH   3  14
ATOM     14  C   UNL     1       2.150   5.245  20.009  0.00  0.00    +0.000 C 
ATOM     15  O   UNL     1       0.958   4.958  19.914  0.00  0.00    +0.000 OA
ATOM     16  N   UNL     1       2.546   6.515  20.327  0.00  0.00    +0.000 N 
ATOM     17  H   UNL     1       3.512   6.766  20.455  0.00  0.00    +0.000 HD
BRANCH  16  18
ATOM     18  C   UNL     1       1.566   7.561  20.563  0.00  0.00    +0.000 C 
BRANCH  18  19
ATOM     19  C   UNL     1       1.574   8.655  19.487  0.00  0.00    +0.000 C 
BRANCH  19  20
ATOM     20  C   UNL     1       0.517   9.726  19.654  0.00  0.00    +0.000 A 
ATOM     21  C   UNL     1      -0.199  10.175  18.534  0.00  0.00    +0.000 A 
ATOM     22  C   UNL     1      -1.160  11.180  18.655  0.00  0.00    +0.000 A 
ATOM     23  C   UNL     1      -1.429  11.759  19.901  0.00  0.00    +0.000 A 
ATOM     24  C   UNL     1      -2.431  12.865  20.043  0.00  0.00    +0.000 C 
ATOM     25  C   UNL     1      -0.735  11.296  21.022  0.00  0.00    +0.000 A 
ATOM     26  C   UNL     1       0.224  10.286  20.905  0.00  0.00    +0.000 A 
ENDBRANCH  19  20
ENDBRANCH  18  19
ENDBRANCH  16  18
ENDBRANCH   3  14
TORSDOF 4
ENDMDL
MODEL 7
REMARK VINA RESULT:      -7.8      5.162      7.992
REMARK  Name = 
REMARK  7 active torsions:
REMARK  status: ('A' for Active; 'I' for Inactive)
REMARK    1  A    between atoms: C_1  and  C_2
REMARK    2  A    between atoms: C_3  and  C_4
REMARK    3  A    between atoms: N_6  and  C_7
REMARK    4  A    between atoms: C_7  and  C_8
REMARK    5  A    between atoms: C_8  and  C_9
REMARK    6  A    between atoms: C_12  and  C_13
REMARK    7  A    between atoms: C_19  and  C_20
REMARK                            x       y       z     vdW  Elec       q    Type
REMARK                         _______ _______ _______ _____ _____    ______ ____
ROOT
ATOM      1  C   UNL     1       0.806   4.155  20.485  0.00  0.00    +0.000 C 
ATOM      2  C   UNL     1       2.045   4.299  19.677  0.00  0.00    +0.000 C 
ATOM      3  C   UNL     1       2.730   5.335  19.178  0.00  0.00    +0.000 C 
ATOM      4  C   UNL     1       3.936   4.863  18.429  0.00  0.00    +0.000 C 
ATOM      5  C   UNL     1       5.270   5.295  19.067  0.00  0.00    +0.000 C 
ATOM      6  C   UNL     1       6.484   4.778  18.291  0.00  0.00    +0.000 C 
ATOM      7  C   UNL     1       6.409   5.165  16.810  0.00  0.00    +0.000 C 
ATOM      8  C   UNL     1       7.635   4.655  16.056  0.00  0.00    +0.000 C 
ATOM      9  C   UNL     1       5.119   4.626  16.181  0.00  0.00    +0.000 C 
ATOM     10  C   UNL     1       3.879   5.145  16.915  0.00  0.00    +0.000 C 
ATOM     11  O   UNL     1       3.868   3.430  18.573  0.00  0.00    +0.000 OA
ATOM     12  C   UNL     1       2.769   3.081  19.292  0.00  0.00    +0.000 C 
ATOM     13  O   UNL     1       2.452   1.947  19.573  0.00  0.00    +0.000 OA
ENDROOT
BRANCH   3  14
ATOM     14  C   UNL     1       2.307   6.744  19.383  0.00  0.00    +0.000 C 
ATOM     15  O   UNL     1       2.192   7.526  18.440  0.00  0.00    +0.000 OA
ATOM     16  N   UNL     1       2.036   7.140  20.664  0.00  0.00    +0.000 N 
ATOM     17  H   UNL     1       2.078   6.510  21.447  0.00  0.00    +0.000 HD
BRANCH  16  18
ATOM     18  C   UNL     1       1.600   8.498  20.945  0.00  0.00    +0.000 C 
BRANCH  18  19
ATOM     19  C   UNL     1       0.418   8.566  21.920  0.00  0.00    +0.000 C 
BRANCH  19  20
ATOM     20  C   UNL     1      -0.349   9.872  21.907  0.00  0.00    +0.000 A 
ATOM     21  C   UNL     1      -0.913  10.357  23.097  0.00  0.00    +0.000 A 
ATOM     22  C   UNL     1      -1.648  11.544  23.108  0.00  0.00    +0.000 A 
ATOM     23  C   UNL     1      -1.834  12.275  21.929  0.00  0.00    +0.000 A 
ATOM     24  C   UNL     1      -2.651  13.532  21.915  0.00  0.00    +0.000 C 
ATOM     25  C   UNL     1      -1.252  11.806  20.747  0.00  0.00    +0.000 A 
ATOM     26  C   UNL     1      -0.512  10.621  20.734  0.00  0.00    +0.000 A 
ENDBRANCH  19  20
ENDBRANCH  18  19
ENDBRANCH  16  18
ENDBRANCH   3  14
TORSDOF 4
ENDMDL
MODEL 8
REMARK VINA RESULT:      -7.7      4.867      7.766
REMARK  Name = 
REMARK  7 active torsions:
REMARK  status: ('A' for Active; 'I' for Inactive)
REMARK    1  A    between atoms: C_1  and  C_2
REMARK    2  A    between atoms: C_3  and  C_4
REMARK    3  A    between atoms: N_6  and  C_7
REMARK    4  A    between atoms: C_7  and  C_8
REMARK    5  A    between atoms: C_8  and  C_9
REMARK    6  A    between atoms: C_12  and  C_13
REMARK    7  A    between atoms: C_19  and  C_20
REMARK                            x       y       z     vdW  Elec       q    Type
REMARK                         _______ _______ _______ _____ _____    ______ ____
ROOT
ATOM      1  C   UNL     1       2.483   2.750  21.683  0.00  0.00    +0.000 C 
ATOM      2  C   UNL     1       3.276   3.294  20.550  0.00  0.00    +0.000 C 
ATOM      3  C   UNL     1       3.221   4.407  19.809  0.00  0.00    +0.000 C 
ATOM      4  C   UNL     1       4.308   4.417  18.783  0.00  0.00    +0.000 C 
ATOM      5  C   UNL     1       5.343   5.540  18.986  0.00  0.00    +0.000 C 
ATOM      6  C   UNL     1       6.456   5.509  17.935  0.00  0.00    +0.000 C 
ATOM      7  C   UNL     1       5.882   5.513  16.513  0.00  0.00    +0.000 C 
ATOM      8  C   UNL     1       7.006   5.498  15.479  0.00  0.00    +0.000 C 
ATOM      9  C   UNL     1       4.941   4.320  16.312  0.00  0.00    +0.000 C 
ATOM     10  C   UNL     1       3.797   4.332  17.331  0.00  0.00    +0.000 C 
ATOM     11  O   UNL     1       5.006   3.180  19.035  0.00  0.00    +0.000 OA
ATOM     12  C   UNL     1       4.414   2.507  20.059  0.00  0.00    +0.000 C 
ATOM     13  O   UNL     1       4.780   1.439  20.492  0.00  0.00    +0.000 OA
ENDROOT
BRANCH   3  14
ATOM     14  C   UNL     1       2.200   5.464  20.031  0.00  0.00    +0.000 C 
ATOM     15  O   UNL     1       1.021   5.186  20.243  0.00  0.00    +0.000 OA
ATOM     16  N   UNL     1       2.624   6.764  20.004  0.00  0.00    +0.000 N 
ATOM     17  H   UNL     1       3.589   7.017  19.877  0.00  0.00    +0.000 HD
BRANCH  16  18
ATOM     18  C   UNL     1       1.689   7.854  20.228  0.00  0.00    +0.000 C 
BRANCH  18  19
ATOM     19  C   UNL     1       1.678   8.887  19.094  0.00  0.00    +0.000 C 
BRANCH  19  20
ATOM     20  C   UNL     1       0.412   9.712  18.991  0.00  0.00    +0.000 A 
ATOM     21  C   UNL     1       0.002  10.492  20.084  0.00  0.00    +0.000 A 
ATOM     22  C   UNL     1      -1.174  11.240  20.027  0.00  0.00    +0.000 A 
ATOM     23  C   UNL     1      -1.968  11.228  18.874  0.00  0.00    +0.000 A 
ATOM     24  C   UNL     1      -3.254  11.997  18.808  0.00  0.00    +0.000 C 
ATOM     25  C   UNL     1      -1.549  10.471  17.776  0.00  0.00    +0.000 A 
ATOM     26  C   UNL     1      -0.369   9.725  17.829  0.00  0.00    +0.000 A 
ENDBRANCH  19  20
ENDBRANCH  18  19
ENDBRANCH  16  18
ENDBRANCH   3  14
TORSDOF 4
ENDMDL
MODEL 9
REMARK VINA RESULT:      -7.7      4.273      6.306
REMARK  Name = 
REMARK  7 active torsions:
REMARK  status: ('A' for Active; 'I' for Inactive)
REMARK    1  A    between atoms: C_1  and  C_2
REMARK    2  A    between atoms: C_3  and  C_4
REMARK    3  A    between atoms: N_6  and  C_7
REMARK    4  A    between atoms: C_7  and  C_8
REMARK    5  A    between atoms: C_8  and  C_9
REMARK    6  A    between atoms: C_12  and  C_13
REMARK    7  A    between atoms: C_19  and  C_20
REMARK                            x       y       z     vdW  Elec       q    Type
REMARK                         _______ _______ _______ _____ _____    ______ ____
ROOT
ATOM      1  C   UNL     1       3.063   1.634  18.792  0.00  0.00    +0.000 C 
ATOM      2  C   UNL     1       2.700   3.065  18.965  0.00  0.00    +0.000 C 
ATOM      3  C   UNL     1       3.387   4.191  19.188  0.00  0.00    +0.000 C 
ATOM      4  C   UNL     1       2.466   5.367  19.273  0.00  0.00    +0.000 C 
ATOM      5  C   UNL     1       2.666   6.394  18.143  0.00  0.00    +0.000 C 
ATOM      6  C   UNL     1       1.695   7.573  18.244  0.00  0.00    +0.000 C 
ATOM      7  C   UNL     1       1.753   8.230  19.628  0.00  0.00    +0.000 C 
ATOM      8  C   UNL     1       0.790   9.413  19.705  0.00  0.00    +0.000 C 
ATOM      9  C   UNL     1       1.442   7.202  20.722  0.00  0.00    +0.000 C 
ATOM     10  C   UNL     1       2.413   6.018  20.669  0.00  0.00    +0.000 C 
ATOM     11  O   UNL     1       1.167   4.780  19.056  0.00  0.00    +0.000 OA
ATOM     12  C   UNL     1       1.282   3.436  18.880  0.00  0.00    +0.000 C 
ATOM     13  O   UNL     1       0.360   2.680  18.678  0.00  0.00    +0.000 OA
ENDROOT
BRANCH   3  14
ATOM     14  C   UNL     1       4.867   4.212  19.314  0.00  0.00    +0.000 C 
ATOM     15  O   UNL     1       5.530   3.176  19.296  0.00  0.00    +0.000 OA
ATOM     16  N   UNL     1       5.471   5.433  19.438  0.00  0.00    +0.000 N 
ATOM     17  H   UNL     1       4.957   6.298  19.411  0.00  0.00    +0.000 HD
BRANCH  16  18
ATOM     18  C   UNL     1       6.916   5.539  19.549  0.00  0.00    +0.000 C 
BRANCH  18  19
ATOM     19  C   UNL     1       7.585   6.067  18.273  0.00  0.00    +0.000 C 
BRANCH  19  20
ATOM     20  C   UNL     1       6.987   5.557  16.978  0.00  0.00    +0.000 A 
ATOM     21  C   UNL     1       6.011   6.318  16.317  0.00  0.00    +0.000 A 
ATOM     22  C   UNL     1       5.424   5.859  15.137  0.00  0.00    +0.000 A 
ATOM     23  C   UNL     1       5.801   4.628  14.589  0.00  0.00    +0.000 A 
ATOM     24  C   UNL     1       5.155   4.102  13.342  0.00  0.00    +0.000 C 
ATOM     25  C   UNL     1       6.790   3.879  15.232  0.00  0.00    +0.000 A 
ATOM     26  C   UNL     1       7.383   4.338  16.412  0.00  0.00    +0.000 A 
ENDBRANCH  19  20
ENDBRANCH  18  19
ENDBRANCH  16  18
ENDBRANCH   3  14
TORSDOF 4
ENDMDL
