MODEL 1
REMARK VINA RESULT:      -8.7      0.000      0.000
REMARK  Name = 
REMARK  15 active torsions:
REMARK  status: ('A' for Active; 'I' for Inactive)
REMARK    1  A    between atoms: C_2  and  C_3
REMARK    2  A    between atoms: C_3  and  O_4
REMARK    3  A    between atoms: O_4  and  C_5
REMARK    4  A    between atoms: C_5  and  C_7
REMARK    5  A    between atoms: C_8  and  C_9
REMARK    6  A    between atoms: C_11  and  C_12
REMARK    7  A    between atoms: C_13  and  C_14
REMARK    8  A    between atoms: C_14  and  O_16
REMARK    9  A    between atoms: O_16  and  C_17
REMARK   10  A    between atoms: C_17  and  C_18
REMARK   11  A    between atoms: C_20  and  C_21
REMARK   12  A    between atoms: C_24  and  C_25
REMARK   13  A    between atoms: C_25  and  C_26
REMARK   14  A    between atoms: C_25  and  C_27
REMARK   15  A    between atoms: C_25  and  C_28
REMARK                            x       y       z     vdW  Elec       q    Type
REMARK                         _______ _______ _______ _____ _____    ______ ____
ROOT
ATOM      1  C   UNL     1       3.707   3.960  18.189  0.00  0.00    +0.000 C 
ATOM      2  C   UNL     1       4.560   3.438  19.106  0.00  0.00    +0.000 C 
ATOM      3  C   UNL     1       4.351   2.210  19.957  0.00  0.00    +0.000 C 
ATOM      4  N   UNL     1       5.792   4.048  19.310  0.00  0.00    +0.000 N 
ATOM      5  C   UNL     1       6.339   5.016  18.486  0.00  0.00    +0.000 C 
ATOM      6  C   UNL     1       7.779   5.376  18.759  0.00  0.00    +0.000 C 
ATOM      7  C   UNL     1       5.573   5.592  17.532  0.00  0.00    +0.000 C 
ATOM      8  C   UNL     1       4.079   5.259  17.453  0.00  0.00    +0.000 C 
ATOM      9  H   UNL     1       6.395   3.645  20.023  0.00  0.00    +0.000 HD
ENDROOT
BRANCH   8  10
ATOM     10  C   UNL     1       3.279   6.431  18.035  0.00  0.00    +0.000 A 
ATOM     11  C   UNL     1       2.919   6.466  19.383  0.00  0.00    +0.000 A 
ATOM     12  C   UNL     1       2.154   7.525  19.886  0.00  0.00    +0.000 A 
ATOM     13  C   UNL     1       1.724   8.583  19.064  0.00  0.00    +0.000 A 
ATOM     14  C   UNL     1       2.097   8.537  17.713  0.00  0.00    +0.000 A 
ATOM     15  C   UNL     1       2.867   7.490  17.211  0.00  0.00    +0.000 A 
BRANCH  13  16
ATOM     16  C   UNL     1       0.901   9.773  19.583  0.00  0.00    +0.000 C 
ATOM     17  C   UNL     1      -0.535   9.815  19.015  0.00  0.00    +0.000 C 
ATOM     18  C   UNL     1       0.790   9.685  21.122  0.00  0.00    +0.000 C 
ATOM     19  C   UNL     1       1.585  11.106  19.208  0.00  0.00    +0.000 C 
ENDBRANCH  13  16
ENDBRANCH   8  10
BRANCH   1  20
ATOM     20  C   UNL     1       2.404   3.315  17.850  0.00  0.00    +0.000 C 
ATOM     21  O   UNL     1       2.254   2.422  17.031  0.00  0.00    +0.000 OA
BRANCH  20  22
ATOM     22  O   UNL     1       1.389   3.945  18.500  0.00  0.00    +0.000 OA
BRANCH  22  23
ATOM     23  C   UNL     1       0.711   3.171  19.502  0.00  0.00    +0.000 C 
BRANCH  23  25
ATOM     24  C   UNL     1       1.552   2.671  21.816  0.00  0.00    +0.000 C 
ATOM     25  C   UNL     1       1.156   3.551  20.882  0.00  0.00    +0.000 C 
ENDBRANCH  23  25
ENDBRANCH  22  23
ENDBRANCH  20  22
ENDBRANCH   1  20
BRANCH   7  26
ATOM     26  C   UNL     1       6.122   6.649  16.645  0.00  0.00    +0.000 C 
ATOM     27  O   UNL     1       6.628   7.684  17.059  0.00  0.00    +0.000 OA
BRANCH  26  28
ATOM     28  O   UNL     1       6.020   6.307  15.335  0.00  0.00    +0.000 OA
BRANCH  28  29
ATOM     29  C   UNL     1       6.758   5.134  14.955  0.00  0.00    +0.000 C 
BRANCH  29  30
ATOM     30  C   UNL     1       5.848   4.222  14.190  0.00  0.00    +0.000 C 
ATOM     31  C   UNL     1       6.163   3.646  13.020  0.00  0.00    +0.000 C 
ENDBRANCH  29  30
ENDBRANCH  28  29
ENDBRANCH  26  28
ENDBRANCH   7  26
TORSDOF 10
ENDMDL
MODEL 2
REMARK VINA RESULT:      -8.3      0.528      1.337
REMARK  Name = 
REMARK  15 active torsions:
REMARK  status: ('A' for Active; 'I' for Inactive)
REMARK    1  A    between atoms: C_2  and  C_3
REMARK    2  A    between atoms: C_3  and  O_4
REMARK    3  A    between atoms: O_4  and  C_5
REMARK    4  A    between atoms: C_5  and  C_7
REMARK    5  A    between atoms: C_8  and  C_9
REMARK    6  A    between atoms: C_11  and  C_12
REMARK    7  A    between atoms: C_13  and  C_14
REMARK    8  A    between atoms: C_14  and  O_16
REMARK    9  A    between atoms: O_16  and  C_17
REMARK   10  A    between atoms: C_17  and  C_18
REMARK   11  A    between atoms: C_20  and  C_21
REMARK   12  A    between atoms: C_24  and  C_25
REMARK   13  A    between atoms: C_25  and  C_26
REMARK   14  A    between atoms: C_25  and  C_27
REMARK   15  A    between atoms: C_25  and  C_28
REMARK                            x       y       z     vdW  Elec       q    Type
REMARK                         _______ _______ _______ _____ _____    ______ ____
ROOT
ATOM      1  C   UNL     1       3.753   4.095  18.213  0.00  0.00    +0.000 C 
ATOM      2  C   UNL     1       4.519   3.554  19.194  0.00  0.00    +0.000 C 
ATOM      3  C   UNL     1       4.274   2.266  19.941  0.00  0.00    +0.000 C 
ATOM      4  N   UNL     1       5.686   4.203  19.579  0.00  0.00    +0.000 N 
ATOM      5  C   UNL     1       6.276   5.244  18.884  0.00  0.00    +0.000 C 
ATOM      6  C   UNL     1       7.654   5.648  19.347  0.00  0.00    +0.000 C 
ATOM      7  C   UNL     1       5.599   5.846  17.879  0.00  0.00    +0.000 C 
ATOM      8  C   UNL     1       4.143   5.453  17.603  0.00  0.00    +0.000 C 
ATOM      9  H   UNL     1       6.221   3.782  20.334  0.00  0.00    +0.000 HD
ENDROOT
BRANCH   8  10
ATOM     10  C   UNL     1       3.222   6.550  18.152  0.00  0.00    +0.000 A 
ATOM     11  C   UNL     1       2.794   7.609  17.348  0.00  0.00    +0.000 A 
ATOM     12  C   UNL     1       1.987   8.622  17.879  0.00  0.00    +0.000 A 
ATOM     13  C   UNL     1       1.579   8.613  19.226  0.00  0.00    +0.000 A 
ATOM     14  C   UNL     1       2.013   7.542  20.020  0.00  0.00    +0.000 A 
ATOM     15  C   UNL     1       2.807   6.526  19.492  0.00  0.00    +0.000 A 
BRANCH  13  16
ATOM     16  C   UNL     1       0.677   9.696  19.840  0.00  0.00    +0.000 C 
ATOM     17  C   UNL     1       1.427  11.009  20.152  0.00  0.00    +0.000 C 
ATOM     18  C   UNL     1      -0.461  10.034  18.851  0.00  0.00    +0.000 C 
ATOM     19  C   UNL     1       0.056   9.193  21.162  0.00  0.00    +0.000 C 
ENDBRANCH  13  16
ENDBRANCH   8  10
BRANCH   1  20
ATOM     20  C   UNL     1       2.534   3.417  17.683  0.00  0.00    +0.000 C 
ATOM     21  O   UNL     1       2.518   2.621  16.757  0.00  0.00    +0.000 OA
BRANCH  20  22
ATOM     22  O   UNL     1       1.425   3.901  18.303  0.00  0.00    +0.000 OA
BRANCH  22  23
ATOM     23  C   UNL     1       0.785   3.009  19.228  0.00  0.00    +0.000 C 
BRANCH  23  25
ATOM     24  C   UNL     1       1.371   2.781  21.661  0.00  0.00    +0.000 C 
ATOM     25  C   UNL     1       0.895   3.508  20.638  0.00  0.00    +0.000 C 
ENDBRANCH  23  25
ENDBRANCH  22  23
ENDBRANCH  20  22
ENDBRANCH   1  20
BRANCH   7  26
ATOM     26  C   UNL     1       6.193   6.980  17.128  0.00  0.00    +0.000 C 
ATOM     27  O   UNL     1       6.500   8.047  17.643  0.00  0.00    +0.000 OA
BRANCH  26  28
ATOM     28  O   UNL     1       6.379   6.671  15.819  0.00  0.00    +0.000 OA
BRANCH  28  29
ATOM     29  C   UNL     1       7.153   5.485  15.579  0.00  0.00    +0.000 C 
BRANCH  29  30
ATOM     30  C   UNL     1       6.574   4.762  14.402  0.00  0.00    +0.000 C 
ATOM     31  C   UNL     1       5.617   3.826  14.484  0.00  0.00    +0.000 C 
ENDBRANCH  29  30
ENDBRANCH  28  29
ENDBRANCH  26  28
ENDBRANCH   7  26
TORSDOF 10
ENDMDL
MODEL 3
REMARK VINA RESULT:      -7.9      1.384      2.531
REMARK  Name = 
REMARK  15 active torsions:
REMARK  status: ('A' for Active; 'I' for Inactive)
REMARK    1  A    between atoms: C_2  and  C_3
REMARK    2  A    between atoms: C_3  and  O_4
REMARK    3  A    between atoms: O_4  and  C_5
REMARK    4  A    between atoms: C_5  and  C_7
REMARK    5  A    between atoms: C_8  and  C_9
REMARK    6  A    between atoms: C_11  and  C_12
REMARK    7  A    between atoms: C_13  and  C_14
REMARK    8  A    between atoms: C_14  and  O_16
REMARK    9  A    between atoms: O_16  and  C_17
REMARK   10  A    between atoms: C_17  and  C_18
REMARK   11  A    between atoms: C_20  and  C_21
REMARK   12  A    between atoms: C_24  and  C_25
REMARK   13  A    between atoms: C_25  and  C_26
REMARK   14  A    between atoms: C_25  and  C_27
REMARK   15  A    between atoms: C_25  and  C_28
REMARK                            x       y       z     vdW  Elec       q    Type
REMARK                         _______ _______ _______ _____ _____    ______ ____
ROOT
ATOM      1  C   UNL     1       3.724   4.169  18.239  0.00  0.00    +0.000 C 
ATOM      2  C   UNL     1       4.527   3.608  19.177  0.00  0.00    +0.000 C 
ATOM      3  C   UNL     1       4.291   2.325  19.936  0.00  0.00    +0.000 C 
ATOM      4  N   UNL     1       5.728   4.227  19.499  0.00  0.00    +0.000 N 
ATOM      5  C   UNL     1       6.306   5.255  18.773  0.00  0.00    +0.000 C 
ATOM      6  C   UNL     1       7.716   5.624  19.162  0.00  0.00    +0.000 C 
ATOM      7  C   UNL     1       5.591   5.875  17.807  0.00  0.00    +0.000 C 
ATOM      8  C   UNL     1       4.113   5.518  17.608  0.00  0.00    +0.000 C 
ATOM      9  H   UNL     1       6.293   3.792  20.225  0.00  0.00    +0.000 HD
ENDROOT
BRANCH   8  10
ATOM     10  C   UNL     1       3.250   6.636  18.206  0.00  0.00    +0.000 A 
ATOM     11  C   UNL     1       2.851   6.609  19.544  0.00  0.00    +0.000 A 
ATOM     12  C   UNL     1       2.029   7.619  20.059  0.00  0.00    +0.000 A 
ATOM     13  C   UNL     1       1.579   8.687  19.261  0.00  0.00    +0.000 A 
ATOM     14  C   UNL     1       1.992   8.703  17.920  0.00  0.00    +0.000 A 
ATOM     15  C   UNL     1       2.818   7.706  17.407  0.00  0.00    +0.000 A 
BRANCH  13  16
ATOM     16  C   UNL     1       0.694   9.824  19.795  0.00  0.00    +0.000 C 
ATOM     17  C   UNL     1       1.373  11.209  19.726  0.00  0.00    +0.000 C 
ATOM     18  C   UNL     1      -0.603   9.899  18.957  0.00  0.00    +0.000 C 
ATOM     19  C   UNL     1       0.320   9.567  21.271  0.00  0.00    +0.000 C 
ENDBRANCH  13  16
ENDBRANCH   8  10
BRANCH   1  20
ATOM     20  C   UNL     1       2.461   3.521  17.775  0.00  0.00    +0.000 C 
ATOM     21  O   UNL     1       2.346   2.851  16.761  0.00  0.00    +0.000 OA
BRANCH  20  22
ATOM     22  O   UNL     1       1.429   3.882  18.583  0.00  0.00    +0.000 OA
BRANCH  22  23
ATOM     23  C   UNL     1       0.753   2.808  19.254  0.00  0.00    +0.000 C 
BRANCH  23  25
ATOM     24  C   UNL     1       1.597   3.876  21.365  0.00  0.00    +0.000 C 
ATOM     25  C   UNL     1       0.919   2.899  20.741  0.00  0.00    +0.000 C 
ENDBRANCH  23  25
ENDBRANCH  22  23
ENDBRANCH  20  22
ENDBRANCH   1  20
BRANCH   7  26
ATOM     26  C   UNL     1       6.171   6.995  17.024  0.00  0.00    +0.000 C 
ATOM     27  O   UNL     1       6.140   7.054  15.803  0.00  0.00    +0.000 OA
BRANCH  26  28
ATOM     28  O   UNL     1       6.702   7.948  17.832  0.00  0.00    +0.000 OA
BRANCH  28  29
ATOM     29  C   UNL     1       8.029   8.373  17.481  0.00  0.00    +0.000 C 
BRANCH  29  30
ATOM     30  C   UNL     1       8.290   9.706  18.111  0.00  0.00    +0.000 C 
ATOM     31  C   UNL     1       9.100   9.901  19.162  0.00  0.00    +0.000 C 
ENDBRANCH  29  30
ENDBRANCH  28  29
ENDBRANCH  26  28
ENDBRANCH   7  26
TORSDOF 10
ENDMDL
MODEL 4
REMARK VINA RESULT:      -7.8      1.465      2.580
REMARK  Name = 
REMARK  15 active torsions:
REMARK  status: ('A' for Active; 'I' for Inactive)
REMARK    1  A    between atoms: C_2  and  C_3
REMARK    2  A    between atoms: C_3  and  O_4
REMARK    3  A    between atoms: O_4  and  C_5
REMARK    4  A    between atoms: C_5  and  C_7
REMARK    5  A    between atoms: C_8  and  C_9
REMARK    6  A    between atoms: C_11  and  C_12
REMARK    7  A    between atoms: C_13  and  C_14
REMARK    8  A    between atoms: C_14  and  O_16
REMARK    9  A    between atoms: O_16  and  C_17
REMARK   10  A    between atoms: C_17  and  C_18
REMARK   11  A    between atoms: C_20  and  C_21
REMARK   12  A    between atoms: C_24  and  C_25
REMARK   13  A    between atoms: C_25  and  C_26
REMARK   14  A    between atoms: C_25  and  C_27
REMARK   15  A    between atoms: C_25  and  C_28
REMARK                            x       y       z     vdW  Elec       q    Type
REMARK                         _______ _______ _______ _____ _____    ______ ____
ROOT
ATOM      1  C   UNL     1       3.802   4.011  18.302  0.00  0.00    +0.000 C 
ATOM      2  C   UNL     1       4.610   3.490  19.259  0.00  0.00    +0.000 C 
ATOM      3  C   UNL     1       4.418   2.198  20.015  0.00  0.00    +0.000 C 
ATOM      4  N   UNL     1       5.771   4.167  19.609  0.00  0.00    +0.000 N 
ATOM      5  C   UNL     1       6.315   5.221  18.895  0.00  0.00    +0.000 C 
ATOM      6  C   UNL     1       7.696   5.658  19.316  0.00  0.00    +0.000 C 
ATOM      7  C   UNL     1       5.594   5.805  17.911  0.00  0.00    +0.000 C 
ATOM      8  C   UNL     1       4.140   5.376  17.678  0.00  0.00    +0.000 C 
ATOM      9  H   UNL     1       6.340   3.760  20.348  0.00  0.00    +0.000 HD
ENDROOT
BRANCH   8  10
ATOM     10  C   UNL     1       3.210   6.452  18.254  0.00  0.00    +0.000 A 
ATOM     11  C   UNL     1       2.789   7.536  17.481  0.00  0.00    +0.000 A 
ATOM     12  C   UNL     1       1.972   8.529  18.038  0.00  0.00    +0.000 A 
ATOM     13  C   UNL     1       1.550   8.474  19.379  0.00  0.00    +0.000 A 
ATOM     14  C   UNL     1       1.978   7.377  20.141  0.00  0.00    +0.000 A 
ATOM     15  C   UNL     1       2.781   6.382  19.588  0.00  0.00    +0.000 A 
BRANCH  13  16
ATOM     16  C   UNL     1       0.638   9.533  20.019  0.00  0.00    +0.000 C 
ATOM     17  C   UNL     1      -0.507   9.992  19.091  0.00  0.00    +0.000 C 
ATOM     18  C   UNL     1      -0.005   8.948  21.297  0.00  0.00    +0.000 C 
ATOM     19  C   UNL     1       1.455  10.787  20.400  0.00  0.00    +0.000 C 
ENDBRANCH  13  16
ENDBRANCH   8  10
BRANCH   1  20
ATOM     20  C   UNL     1       2.583   3.302  17.809  0.00  0.00    +0.000 C 
ATOM     21  O   UNL     1       2.003   3.546  16.763  0.00  0.00    +0.000 OA
BRANCH  20  22
ATOM     22  O   UNL     1       2.144   2.424  18.750  0.00  0.00    +0.000 OA
BRANCH  22  23
ATOM     23  C   UNL     1       0.828   2.669  19.269  0.00  0.00    +0.000 C 
BRANCH  23  25
ATOM     24  C   UNL     1       1.383   2.937  21.704  0.00  0.00    +0.000 C 
ATOM     25  C   UNL     1       0.880   3.429  20.560  0.00  0.00    +0.000 C 
ENDBRANCH  23  25
ENDBRANCH  22  23
ENDBRANCH  20  22
ENDBRANCH   1  20
BRANCH   7  26
ATOM     26  C   UNL     1       6.137   6.951  17.140  0.00  0.00    +0.000 C 
ATOM     27  O   UNL     1       6.063   7.044  15.922  0.00  0.00    +0.000 OA
BRANCH  26  28
ATOM     28  O   UNL     1       6.690   7.886  17.955  0.00  0.00    +0.000 OA
BRANCH  28  29
ATOM     29  C   UNL     1       7.817   8.585  17.402  0.00  0.00    +0.000 C 
BRANCH  29  30
ATOM     30  C   UNL     1       8.533   9.295  18.509  0.00  0.00    +0.000 C 
ATOM     31  C   UNL     1       9.178  10.463  18.368  0.00  0.00    +0.000 C 
ENDBRANCH  29  30
ENDBRANCH  28  29
ENDBRANCH  26  28
ENDBRANCH   7  26
TORSDOF 10
ENDMDL
MODEL 5
REMARK VINA RESULT:      -7.0      1.249      1.556
REMARK  Name = 
REMARK  15 active torsions:
REMARK  status: ('A' for Active; 'I' for Inactive)
REMARK    1  A    between atoms: C_2  and  C_3
REMARK    2  A    between atoms: C_3  and  O_4
REMARK    3  A    between atoms: O_4  and  C_5
REMARK    4  A    between atoms: C_5  and  C_7
REMARK    5  A    between atoms: C_8  and  C_9
REMARK    6  A    between atoms: C_11  and  C_12
REMARK    7  A    between atoms: C_13  and  C_14
REMARK    8  A    between atoms: C_14  and  O_16
REMARK    9  A    between atoms: O_16  and  C_17
REMARK   10  A    between atoms: C_17  and  C_18
REMARK   11  A    between atoms: C_20  and  C_21
REMARK   12  A    between atoms: C_24  and  C_25
REMARK   13  A    between atoms: C_25  and  C_26
REMARK   14  A    between atoms: C_25  and  C_27
REMARK   15  A    between atoms: C_25  and  C_28
REMARK                            x       y       z     vdW  Elec       q    Type
REMARK                         _______ _______ _______ _____ _____    ______ ____
ROOT
ATOM      1  C   UNL     1       3.603   3.253  18.350  0.00  0.00    +0.000 C 
ATOM      2  C   UNL     1       4.678   3.011  19.141  0.00  0.00    +0.000 C 
ATOM      3  C   UNL     1       4.737   2.126  20.362  0.00  0.00    +0.000 C 
ATOM      4  N   UNL     1       5.897   3.598  18.826  0.00  0.00    +0.000 N 
ATOM      5  C   UNL     1       6.183   4.229  17.628  0.00  0.00    +0.000 C 
ATOM      6  C   UNL     1       7.630   4.591  17.403  0.00  0.00    +0.000 C 
ATOM      7  C   UNL     1       5.181   4.507  16.763  0.00  0.00    +0.000 C 
ATOM      8  C   UNL     1       3.729   4.233  17.171  0.00  0.00    +0.000 C 
ATOM      9  H   UNL     1       6.676   3.415  19.455  0.00  0.00    +0.000 HD
ENDROOT
BRANCH   8  10
ATOM     10  C   UNL     1       3.057   5.564  17.530  0.00  0.00    +0.000 A 
ATOM     11  C   UNL     1       1.675   5.733  17.421  0.00  0.00    +0.000 A 
ATOM     12  C   UNL     1       1.086   6.969  17.715  0.00  0.00    +0.000 A 
ATOM     13  C   UNL     1       1.852   8.075  18.129  0.00  0.00    +0.000 A 
ATOM     14  C   UNL     1       3.238   7.889  18.238  0.00  0.00    +0.000 A 
ATOM     15  C   UNL     1       3.826   6.658  17.956  0.00  0.00    +0.000 A 
BRANCH  13  16
ATOM     16  C   UNL     1       1.240   9.440  18.480  0.00  0.00    +0.000 C 
ATOM     17  C   UNL     1      -0.119   9.694  17.790  0.00  0.00    +0.000 C 
ATOM     18  C   UNL     1       1.009   9.518  20.006  0.00  0.00    +0.000 C 
ATOM     19  C   UNL     1       2.192  10.581  18.060  0.00  0.00    +0.000 C 
ENDBRANCH  13  16
ENDBRANCH   8  10
BRANCH   1  20
ATOM     20  C   UNL     1       2.282   2.593  18.570  0.00  0.00    +0.000 C 
ATOM     21  O   UNL     1       1.481   2.313  17.693  0.00  0.00    +0.000 OA
BRANCH  20  22
ATOM     22  O   UNL     1       2.048   2.453  19.903  0.00  0.00    +0.000 OA
BRANCH  22  23
ATOM     23  C   UNL     1       0.878   3.116  20.406  0.00  0.00    +0.000 C 
BRANCH  23  25
ATOM     24  C   UNL     1       2.221   5.128  21.084  0.00  0.00    +0.000 C 
ATOM     25  C   UNL     1       1.107   4.589  20.563  0.00  0.00    +0.000 C 
ENDBRANCH  23  25
ENDBRANCH  22  23
ENDBRANCH  20  22
ENDBRANCH   1  20
BRANCH   7  26
ATOM     26  C   UNL     1       5.448   5.203  15.479  0.00  0.00    +0.000 C 
ATOM     27  O   UNL     1       5.788   6.376  15.404  0.00  0.00    +0.000 OA
BRANCH  26  28
ATOM     28  O   UNL     1       5.301   4.370  14.417  0.00  0.00    +0.000 OA
BRANCH  28  29
ATOM     29  C   UNL     1       6.528   3.959  13.793  0.00  0.00    +0.000 C 
BRANCH  29  30
ATOM     30  C   UNL     1       6.271   3.723  12.337  0.00  0.00    +0.000 C 
ATOM     31  C   UNL     1       5.620   2.658  11.845  0.00  0.00    +0.000 C 
ENDBRANCH  29  30
ENDBRANCH  28  29
ENDBRANCH  26  28
ENDBRANCH   7  26
TORSDOF 10
ENDMDL
MODEL 6
REMARK VINA RESULT:      -7.0      1.262      1.774
REMARK  Name = 
REMARK  15 active torsions:
REMARK  status: ('A' for Active; 'I' for Inactive)
REMARK    1  A    between atoms: C_2  and  C_3
REMARK    2  A    between atoms: C_3  and  O_4
REMARK    3  A    between atoms: O_4  and  C_5
REMARK    4  A    between atoms: C_5  and  C_7
REMARK    5  A    between atoms: C_8  and  C_9
REMARK    6  A    between atoms: C_11  and  C_12
REMARK    7  A    between atoms: C_13  and  C_14
REMARK    8  A    between atoms: C_14  and  O_16
REMARK    9  A    between atoms: O_16  and  C_17
REMARK   10  A    between atoms: C_17  and  C_18
REMARK   11  A    between atoms: C_20  and  C_21
REMARK   12  A    between atoms: C_24  and  C_25
REMARK   13  A    between atoms: C_25  and  C_26
REMARK   14  A    between atoms: C_25  and  C_27
REMARK   15  A    between atoms: C_25  and  C_28
REMARK                            x       y       z     vdW  Elec       q    Type
REMARK                         _______ _______ _______ _____ _____    ______ ____
ROOT
ATOM      1  C   UNL     1       3.614   3.323  18.326  0.00  0.00    +0.000 C 
ATOM      2  C   UNL     1       4.682   3.061  19.120  0.00  0.00    +0.000 C 
ATOM      3  C   UNL     1       4.713   2.198  20.359  0.00  0.00    +0.000 C 
ATOM      4  N   UNL     1       5.920   3.599  18.792  0.00  0.00    +0.000 N 
ATOM      5  C   UNL     1       6.224   4.197  17.581  0.00  0.00    +0.000 C 
ATOM      6  C   UNL     1       7.683   4.506  17.347  0.00  0.00    +0.000 C 
ATOM      7  C   UNL     1       5.230   4.492  16.713  0.00  0.00    +0.000 C 
ATOM      8  C   UNL     1       3.770   4.275  17.127  0.00  0.00    +0.000 C 
ATOM      9  H   UNL     1       6.693   3.402  19.424  0.00  0.00    +0.000 HD
ENDROOT
BRANCH   8  10
ATOM     10  C   UNL     1       3.144   5.635  17.461  0.00  0.00    +0.000 A 
ATOM     11  C   UNL     1       3.935   6.732  17.812  0.00  0.00    +0.000 A 
ATOM     12  C   UNL     1       3.341   7.954  18.153  0.00  0.00    +0.000 A 
ATOM     13  C   UNL     1       1.944   8.123  18.156  0.00  0.00    +0.000 A 
ATOM     14  C   UNL     1       1.164   7.014  17.798  0.00  0.00    +0.000 A 
ATOM     15  C   UNL     1       1.751   5.800  17.447  0.00  0.00    +0.000 A 
BRANCH  13  16
ATOM     16  C   UNL     1       1.257   9.452  18.504  0.00  0.00    +0.000 C 
ATOM     17  C   UNL     1       2.100  10.691  18.129  0.00  0.00    +0.000 C 
ATOM     18  C   UNL     1      -0.082   9.552  17.739  0.00  0.00    +0.000 C 
ATOM     19  C   UNL     1       0.972   9.530  20.020  0.00  0.00    +0.000 C 
ENDBRANCH  13  16
ENDBRANCH   8  10
BRANCH   1  20
ATOM     20  C   UNL     1       2.272   2.712  18.561  0.00  0.00    +0.000 C 
ATOM     21  O   UNL     1       1.551   2.246  17.694  0.00  0.00    +0.000 OA
BRANCH  20  22
ATOM     22  O   UNL     1       1.917   2.856  19.866  0.00  0.00    +0.000 OA
BRANCH  22  23
ATOM     23  C   UNL     1       0.767   3.679  20.115  0.00  0.00    +0.000 C 
BRANCH  23  25
ATOM     24  C   UNL     1       2.410   5.373  20.976  0.00  0.00    +0.000 C 
ATOM     25  C   UNL     1       1.145   4.960  20.795  0.00  0.00    +0.000 C 
ENDBRANCH  23  25
ENDBRANCH  22  23
ENDBRANCH  20  22
ENDBRANCH   1  20
BRANCH   7  26
ATOM     26  C   UNL     1       5.518   5.153  15.415  0.00  0.00    +0.000 C 
ATOM     27  O   UNL     1       5.917   6.305  15.317  0.00  0.00    +0.000 OA
BRANCH  26  28
ATOM     28  O   UNL     1       5.317   4.312  14.368  0.00  0.00    +0.000 OA
BRANCH  28  29
ATOM     29  C   UNL     1       6.474   4.070  13.551  0.00  0.00    +0.000 C 
BRANCH  29  30
ATOM     30  C   UNL     1       6.050   3.319  12.327  0.00  0.00    +0.000 C 
ATOM     31  C   UNL     1       4.805   3.327  11.827  0.00  0.00    +0.000 C 
ENDBRANCH  29  30
ENDBRANCH  28  29
ENDBRANCH  26  28
ENDBRANCH   7  26
TORSDOF 10
ENDMDL
MODEL 7
REMARK VINA RESULT:      -6.7      1.175      2.181
REMARK  Name = 
REMARK  15 active torsions:
REMARK  status: ('A' for Active; 'I' for Inactive)
REMARK    1  A    between atoms: C_2  and  C_3
REMARK    2  A    between atoms: C_3  and  O_4
REMARK    3  A    between atoms: O_4  and  C_5
REMARK    4  A    between atoms: C_5  and  C_7
REMARK    5  A    between atoms: C_8  and  C_9
REMARK    6  A    between atoms: C_11  and  C_12
REMARK    7  A    between atoms: C_13  and  C_14
REMARK    8  A    between atoms: C_14  and  O_16
REMARK    9  A    between atoms: O_16  and  C_17
REMARK   10  A    between atoms: C_17  and  C_18
REMARK   11  A    between atoms: C_20  and  C_21
REMARK   12  A    between atoms: C_24  and  C_25
REMARK   13  A    between atoms: C_25  and  C_26
REMARK   14  A    between atoms: C_25  and  C_27
REMARK   15  A    between atoms: C_25  and  C_28
REMARK                            x       y       z     vdW  Elec       q    Type
REMARK                         _______ _______ _______ _____ _____    ______ ____
ROOT
ATOM      1  C   UNL     1       3.861   3.788  18.115  0.00  0.00    +0.000 C 
ATOM      2  C   UNL     1       4.658   3.292  19.096  0.00  0.00    +0.000 C 
ATOM      3  C   UNL     1       4.375   2.117  19.999  0.00  0.00    +0.000 C 
ATOM      4  N   UNL     1       5.897   3.877  19.323  0.00  0.00    +0.000 N 
ATOM      5  C   UNL     1       6.509   4.784  18.475  0.00  0.00    +0.000 C 
ATOM      6  C   UNL     1       7.946   5.118  18.793  0.00  0.00    +0.000 C 
ATOM      7  C   UNL     1       5.803   5.330  17.458  0.00  0.00    +0.000 C 
ATOM      8  C   UNL     1       4.305   5.034  17.330  0.00  0.00    +0.000 C 
ATOM      9  H   UNL     1       6.457   3.496  20.082  0.00  0.00    +0.000 HD
ENDROOT
BRANCH   8  10
ATOM     10  C   UNL     1       3.516   6.258  17.813  0.00  0.00    +0.000 A 
ATOM     11  C   UNL     1       3.103   6.377  19.142  0.00  0.00    +0.000 A 
ATOM     12  C   UNL     1       2.349   7.483  19.554  0.00  0.00    +0.000 A 
ATOM     13  C   UNL     1       1.983   8.504  18.659  0.00  0.00    +0.000 A 
ATOM     14  C   UNL     1       2.408   8.373  17.328  0.00  0.00    +0.000 A 
ATOM     15  C   UNL     1       3.167   7.280  16.917  0.00  0.00    +0.000 A 
BRANCH  13  16
ATOM     16  C   UNL     1       1.174   9.742  19.077  0.00  0.00    +0.000 C 
ATOM     17  C   UNL     1      -0.209   9.825  18.396  0.00  0.00    +0.000 C 
ATOM     18  C   UNL     1       0.938   9.705  20.605  0.00  0.00    +0.000 C 
ATOM     19  C   UNL     1       1.943  11.033  18.722  0.00  0.00    +0.000 C 
ENDBRANCH  13  16
ENDBRANCH   8  10
BRANCH   1  20
ATOM     20  C   UNL     1       2.556   3.162  17.751  0.00  0.00    +0.000 C 
ATOM     21  O   UNL     1       2.417   2.217  16.991  0.00  0.00    +0.000 OA
BRANCH  20  22
ATOM     22  O   UNL     1       1.532   3.870  18.299  0.00  0.00    +0.000 OA
BRANCH  22  23
ATOM     23  C   UNL     1       0.596   3.113  19.082  0.00  0.00    +0.000 C 
BRANCH  23  25
ATOM     24  C   UNL     1       1.558   3.852  21.282  0.00  0.00    +0.000 C 
ATOM     25  C   UNL     1       1.106   2.881  20.472  0.00  0.00    +0.000 C 
ENDBRANCH  23  25
ENDBRANCH  22  23
ENDBRANCH  20  22
ENDBRANCH   1  20
BRANCH   7  26
ATOM     26  C   UNL     1       6.421   6.323  16.544  0.00  0.00    +0.000 C 
ATOM     27  O   UNL     1       7.089   6.017  15.565  0.00  0.00    +0.000 OA
BRANCH  26  28
ATOM     28  O   UNL     1       6.124   7.596  16.911  0.00  0.00    +0.000 OA
BRANCH  28  29
ATOM     29  C   UNL     1       6.829   8.074  18.069  0.00  0.00    +0.000 C 
BRANCH  29  30
ATOM     30  C   UNL     1       8.078   8.768  17.618  0.00  0.00    +0.000 C 
ATOM     31  C   UNL     1       8.689   9.747  18.302  0.00  0.00    +0.000 C 
ENDBRANCH  29  30
ENDBRANCH  28  29
ENDBRANCH  26  28
ENDBRANCH   7  26
TORSDOF 10
ENDMDL
MODEL 8
REMARK VINA RESULT:      -6.6      1.732      5.307
REMARK  Name = 
REMARK  15 active torsions:
REMARK  status: ('A' for Active; 'I' for Inactive)
REMARK    1  A    between atoms: C_2  and  C_3
REMARK    2  A    between atoms: C_3  and  O_4
REMARK    3  A    between atoms: O_4  and  C_5
REMARK    4  A    between atoms: C_5  and  C_7
REMARK    5  A    between atoms: C_8  and  C_9
REMARK    6  A    between atoms: C_11  and  C_12
REMARK    7  A    between atoms: C_13  and  C_14
REMARK    8  A    between atoms: C_14  and  O_16
REMARK    9  A    between atoms: O_16  and  C_17
REMARK   10  A    between atoms: C_17  and  C_18
REMARK   11  A    between atoms: C_20  and  C_21
REMARK   12  A    between atoms: C_24  and  C_25
REMARK   13  A    between atoms: C_25  and  C_26
REMARK   14  A    between atoms: C_25  and  C_27
REMARK   15  A    between atoms: C_25  and  C_28
REMARK                            x       y       z     vdW  Elec       q    Type
REMARK                         _______ _______ _______ _____ _____    ______ ____
ROOT
ATOM      1  C   UNL     1       4.942   4.917  18.447  0.00  0.00    +0.000 C 
ATOM      2  C   UNL     1       4.925   4.216  17.286  0.00  0.00    +0.000 C 
ATOM      3  C   UNL     1       6.032   4.107  16.265  0.00  0.00    +0.000 C 
ATOM      4  N   UNL     1       3.797   3.474  16.958  0.00  0.00    +0.000 N 
ATOM      5  C   UNL     1       2.761   3.187  17.830  0.00  0.00    +0.000 C 
ATOM      6  C   UNL     1       1.750   2.179  17.342  0.00  0.00    +0.000 C 
ATOM      7  C   UNL     1       2.692   3.827  19.020  0.00  0.00    +0.000 C 
ATOM      8  C   UNL     1       3.689   4.947  19.339  0.00  0.00    +0.000 C 
ATOM      9  H   UNL     1       3.810   2.981  16.068  0.00  0.00    +0.000 HD
ENDROOT
BRANCH   8  10
ATOM     10  C   UNL     1       2.978   6.298  19.187  0.00  0.00    +0.000 A 
ATOM     11  C   UNL     1       2.967   6.980  17.969  0.00  0.00    +0.000 A 
ATOM     12  C   UNL     1       2.348   8.232  17.862  0.00  0.00    +0.000 A 
ATOM     13  C   UNL     1       1.720   8.843  18.964  0.00  0.00    +0.000 A 
ATOM     14  C   UNL     1       1.736   8.144  20.180  0.00  0.00    +0.000 A 
ATOM     15  C   UNL     1       2.342   6.895  20.287  0.00  0.00    +0.000 A 
BRANCH  13  16
ATOM     16  C   UNL     1       1.013  10.205  18.881  0.00  0.00    +0.000 C 
ATOM     17  C   UNL     1      -0.315  10.156  18.094  0.00  0.00    +0.000 C 
ATOM     18  C   UNL     1       0.690  10.700  20.309  0.00  0.00    +0.000 C 
ATOM     19  C   UNL     1       1.923  11.243  18.187  0.00  0.00    +0.000 C 
ENDBRANCH  13  16
ENDBRANCH   8  10
BRANCH   1  20
ATOM     20  C   UNL     1       6.147   5.667  18.912  0.00  0.00    +0.000 C 
ATOM     21  O   UNL     1       6.792   5.409  19.915  0.00  0.00    +0.000 OA
BRANCH  20  22
ATOM     22  O   UNL     1       6.353   6.753  18.120  0.00  0.00    +0.000 OA
BRANCH  22  23
ATOM     23  C   UNL     1       7.725   7.101  17.879  0.00  0.00    +0.000 C 
BRANCH  23  25
ATOM     24  C   UNL     1       8.527   9.420  18.419  0.00  0.00    +0.000 C 
ATOM     25  C   UNL     1       7.879   8.568  17.608  0.00  0.00    +0.000 C 
ENDBRANCH  23  25
ENDBRANCH  22  23
ENDBRANCH  20  22
ENDBRANCH   1  20
BRANCH   7  26
ATOM     26  C   UNL     1       1.582   3.560  19.969  0.00  0.00    +0.000 C 
ATOM     27  O   UNL     1       0.577   4.254  20.047  0.00  0.00    +0.000 OA
BRANCH  26  28
ATOM     28  O   UNL     1       1.809   2.442  20.705  0.00  0.00    +0.000 OA
BRANCH  28  29
ATOM     29  C   UNL     1       2.870   2.554  21.668  0.00  0.00    +0.000 C 
BRANCH  29  30
ATOM     30  C   UNL     1       3.922   1.538  21.344  0.00  0.00    +0.000 C 
ATOM     31  C   UNL     1       5.002   1.781  20.586  0.00  0.00    +0.000 C 
ENDBRANCH  29  30
ENDBRANCH  28  29
ENDBRANCH  26  28
ENDBRANCH   7  26
TORSDOF 10
ENDMDL
MODEL 9
REMARK VINA RESULT:      -6.4      1.173      1.940
REMARK  Name = 
REMARK  15 active torsions:
REMARK  status: ('A' for Active; 'I' for Inactive)
REMARK    1  A    between atoms: C_2  and  C_3
REMARK    2  A    between atoms: C_3  and  O_4
REMARK    3  A    between atoms: O_4  and  C_5
REMARK    4  A    between atoms: C_5  and  C_7
REMARK    5  A    between atoms: C_8  and  C_9
REMARK    6  A    between atoms: C_11  and  C_12
REMARK    7  A    between atoms: C_13  and  C_14
REMARK    8  A    between atoms: C_14  and  O_16
REMARK    9  A    between atoms: O_16  and  C_17
REMARK   10  A    between atoms: C_17  and  C_18
REMARK   11  A    between atoms: C_20  and  C_21
REMARK   12  A    between atoms: C_24  and  C_25
REMARK   13  A    between atoms: C_25  and  C_26
REMARK   14  A    between atoms: C_25  and  C_27
REMARK   15  A    between atoms: C_25  and  C_28
REMARK                            x       y       z     vdW  Elec       q    Type
REMARK                         _______ _______ _______ _____ _____    ______ ____
ROOT
ATOM      1  C   UNL     1       2.697   4.584  19.106  0.00  0.00    +0.000 C 
ATOM      2  C   UNL     1       3.525   4.127  20.078  0.00  0.00    +0.000 C 
ATOM      3  C   UNL     1       3.211   3.101  21.141  0.00  0.00    +0.000 C 
ATOM      4  N   UNL     1       4.829   4.602  20.138  0.00  0.00    +0.000 N 
ATOM      5  C   UNL     1       5.448   5.334  19.140  0.00  0.00    +0.000 C 
ATOM      6  C   UNL     1       6.932   5.551  19.306  0.00  0.00    +0.000 C 
ATOM      7  C   UNL     1       4.712   5.828  18.118  0.00  0.00    +0.000 C 
ATOM      8  C   UNL     1       3.186   5.677  18.139  0.00  0.00    +0.000 C 
ATOM      9  H   UNL     1       5.413   4.256  20.895  0.00  0.00    +0.000 HD
ENDROOT
BRANCH   8  10
ATOM     10  C   UNL     1       2.562   7.024  18.523  0.00  0.00    +0.000 A 
ATOM     11  C   UNL     1       2.201   7.308  19.842  0.00  0.00    +0.000 A 
ATOM     12  C   UNL     1       1.595   8.529  20.164  0.00  0.00    +0.000 A 
ATOM     13  C   UNL     1       1.329   9.505  19.186  0.00  0.00    +0.000 A 
ATOM     14  C   UNL     1       1.700   9.207  17.867  0.00  0.00    +0.000 A 
ATOM     15  C   UNL     1       2.313   7.999  17.543  0.00  0.00    +0.000 A 
BRANCH  13  16
ATOM     16  C   UNL     1       0.684  10.863  19.504  0.00  0.00    +0.000 C 
ATOM     17  C   UNL     1       0.590  11.153  21.018  0.00  0.00    +0.000 C 
ATOM     18  C   UNL     1       1.527  11.991  18.866  0.00  0.00    +0.000 C 
ATOM     19  C   UNL     1      -0.749  10.926  18.932  0.00  0.00    +0.000 C 
ENDBRANCH  13  16
ENDBRANCH   8  10
BRANCH   1  20
ATOM     20  C   UNL     1       1.311   4.060  18.921  0.00  0.00    +0.000 C 
ATOM     21  O   UNL     1       0.463   3.991  19.797  0.00  0.00    +0.000 OA
BRANCH  20  22
ATOM     22  O   UNL     1       1.166   3.560  17.665  0.00  0.00    +0.000 OA
BRANCH  22  23
ATOM     23  C   UNL     1       2.327   2.927  17.105  0.00  0.00    +0.000 C 
BRANCH  23  25
ATOM     24  C   UNL     1       3.853   1.204  18.111  0.00  0.00    +0.000 C 
ATOM     25  C   UNL     1       2.620   1.622  17.782  0.00  0.00    +0.000 C 
ENDBRANCH  23  25
ENDBRANCH  22  23
ENDBRANCH  20  22
ENDBRANCH   1  20
BRANCH   7  26
ATOM     26  C   UNL     1       5.339   6.636  17.043  0.00  0.00    +0.000 C 
ATOM     27  O   UNL     1       5.787   7.762  17.216  0.00  0.00    +0.000 OA
BRANCH  26  28
ATOM     28  O   UNL     1       5.381   5.960  15.866  0.00  0.00    +0.000 OA
BRANCH  28  29
ATOM     29  C   UNL     1       6.621   5.285  15.598  0.00  0.00    +0.000 C 
BRANCH  29  30
ATOM     30  C   UNL     1       6.333   4.047  14.804  0.00  0.00    +0.000 C 
ATOM     31  C   UNL     1       5.489   3.995  13.762  0.00  0.00    +0.000 C 
ENDBRANCH  29  30
ENDBRANCH  28  29
ENDBRANCH  26  28
ENDBRANCH   7  26
TORSDOF 10
ENDMDL
