MODEL 1
REMARK VINA RESULT:      -8.6      0.000      0.000
REMARK  Name = 
REMARK  8 active torsions:
REMARK  status: ('A' for Active; 'I' for Inactive)
REMARK    1  A    between atoms: C_1  and  C_2
REMARK    2  A    between atoms: C_2  and  C_3
REMARK    3  A    between atoms: C_3  and  N_4
REMARK    4  A    between atoms: C_5  and  C_7
REMARK    5  A    between atoms: C_7  and  C_8
REMARK    6  A    between atoms: C_8  and  C_9
REMARK    7  A    between atoms: C_11  and  C_12
REMARK    8  A    between atoms: C_23  and  C_24
REMARK                            x       y       z     vdW  Elec       q    Type
REMARK                         _______ _______ _______ _____ _____    ______ ____
ROOT
ATOM      1  C   UNL     1       3.283   5.667  19.017  0.00  0.00    +0.000 C 
ATOM      2  C   UNL     1       2.764   5.004  17.712  0.00  0.00    +0.000 C 
ATOM      3  C   UNL     1       1.441   4.379  18.117  0.00  0.00    +0.000 C 
ATOM      4  N   UNL     1       1.703   3.917  19.465  0.00  0.00    +0.000 N 
ATOM      5  C   UNL     1       1.085   2.795  19.968  0.00  0.00    +0.000 C 
ATOM      6  C   UNL     1       1.408   2.379  21.381  0.00  0.00    +0.000 C 
ATOM      7  O   UNL     1       0.303   2.121  19.294  0.00  0.00    +0.000 OA
ATOM      8  C   UNL     1       2.685   4.769  20.125  0.00  0.00    +0.000 C 
ENDROOT
BRANCH   1  10
ATOM      9  N   UNL     1       2.122   7.418  20.330  0.00  0.00    +0.000 N 
ATOM     10  C   UNL     1       2.686   7.084  19.116  0.00  0.00    +0.000 C 
ATOM     11  O   UNL     1       2.712   7.877  18.176  0.00  0.00    +0.000 OA
ATOM     12  H   UNL     1       2.024   6.723  21.057  0.00  0.00    +0.000 HD
BRANCH   9  13
ATOM     13  C   UNL     1       1.417   8.673  20.515  0.00  0.00    +0.000 C 
BRANCH  13  15
ATOM     14  C   UNL     1      -0.316   9.281  22.265  0.00  0.00    +0.000 C 
ATOM     15  C   UNL     1       1.148   8.967  21.990  0.00  0.00    +0.000 C 
ENDBRANCH  13  15
ENDBRANCH   9  13
ENDBRANCH   1  10
BRANCH   1  16
ATOM     16  C   UNL     1       4.829   5.775  19.081  0.00  0.00    +0.000 C 
BRANCH  16  17
ATOM     17  C   UNL     1       5.503   5.792  17.753  0.00  0.00    +0.000 A 
ATOM     18  C   UNL     1       5.136   5.405  16.487  0.00  0.00    +0.000 A 
ATOM     19  C   UNL     1       6.330   5.459  15.730  0.00  0.00    +0.000 A 
ATOM     20  N   UNL     1       7.310   6.032  16.445  0.00  0.00    +0.000 NA
ATOM     21  O   UNL     1       6.790   6.229  17.714  0.00  0.00    +0.000 OA
BRANCH  19  22
ATOM     22  C   UNL     1       6.533   4.909  14.393  0.00  0.00    +0.000 A 
ATOM     23  C   UNL     1       7.586   5.341  13.580  0.00  0.00    +0.000 A 
ATOM     24  C   UNL     1       7.758   4.795  12.305  0.00  0.00    +0.000 A 
ATOM     25  C   UNL     1       6.889   3.809  11.837  0.00  0.00    +0.000 A 
ATOM     26  C   UNL     1       5.845   3.364  12.643  0.00  0.00    +0.000 A 
ATOM     27  C   UNL     1       5.667   3.911  13.913  0.00  0.00    +0.000 A 
ENDBRANCH  19  22
ENDBRANCH  16  17
ENDBRANCH   1  16
TORSDOF 6
ENDMDL
MODEL 2
REMARK VINA RESULT:      -8.5      2.396      7.681
REMARK  Name = 
REMARK  8 active torsions:
REMARK  status: ('A' for Active; 'I' for Inactive)
REMARK    1  A    between atoms: C_1  and  C_2
REMARK    2  A    between atoms: C_2  and  C_3
REMARK    3  A    between atoms: C_3  and  N_4
REMARK    4  A    between atoms: C_5  and  C_7
REMARK    5  A    between atoms: C_7  and  C_8
REMARK    6  A    between atoms: C_8  and  C_9
REMARK    7  A    between atoms: C_11  and  C_12
REMARK    8  A    between atoms: C_23  and  C_24
REMARK                            x       y       z     vdW  Elec       q    Type
REMARK                         _______ _______ _______ _____ _____    ______ ____
ROOT
ATOM      1  C   UNL     1       4.166   4.799  17.983  0.00  0.00    +0.000 C 
ATOM      2  C   UNL     1       4.657   4.130  16.671  0.00  0.00    +0.000 C 
ATOM      3  C   UNL     1       6.146   4.424  16.642  0.00  0.00    +0.000 C 
ATOM      4  N   UNL     1       6.221   5.760  17.199  0.00  0.00    +0.000 N 
ATOM      5  C   UNL     1       7.194   6.646  16.801  0.00  0.00    +0.000 C 
ATOM      6  C   UNL     1       7.208   8.017  17.429  0.00  0.00    +0.000 C 
ATOM      7  O   UNL     1       8.029   6.359  15.940  0.00  0.00    +0.000 OA
ATOM      8  C   UNL     1       5.144   5.984  18.158  0.00  0.00    +0.000 C 
ENDROOT
BRANCH   1  10
ATOM      9  N   UNL     1       3.194   3.219  19.625  0.00  0.00    +0.000 N 
ATOM     10  C   UNL     1       4.349   3.798  19.140  0.00  0.00    +0.000 C 
ATOM     11  O   UNL     1       5.454   3.522  19.605  0.00  0.00    +0.000 OA
ATOM     12  H   UNL     1       2.289   3.529  19.298  0.00  0.00    +0.000 HD
BRANCH   9  13
ATOM     13  C   UNL     1       3.214   2.356  20.792  0.00  0.00    +0.000 C 
BRANCH  13  15
ATOM     14  C   UNL     1       0.867   3.309  20.922  0.00  0.00    +0.000 C 
ATOM     15  C   UNL     1       1.940   2.487  21.624  0.00  0.00    +0.000 C 
ENDBRANCH  13  15
ENDBRANCH   9  13
ENDBRANCH   1  10
BRANCH   1  16
ATOM     16  C   UNL     1       2.677   5.233  17.935  0.00  0.00    +0.000 C 
BRANCH  16  17
ATOM     17  C   UNL     1       2.397   6.551  18.567  0.00  0.00    +0.000 A 
ATOM     18  C   UNL     1       2.029   6.951  19.829  0.00  0.00    +0.000 A 
ATOM     19  C   UNL     1       1.684   8.316  19.692  0.00  0.00    +0.000 A 
ATOM     20  N   UNL     1       2.013   8.760  18.470  0.00  0.00    +0.000 NA
ATOM     21  O   UNL     1       2.449   7.649  17.766  0.00  0.00    +0.000 OA
BRANCH  19  22
ATOM     22  C   UNL     1       0.994   9.138  20.682  0.00  0.00    +0.000 A 
ATOM     23  C   UNL     1       0.503  10.407  20.359  0.00  0.00    +0.000 A 
ATOM     24  C   UNL     1      -0.157  11.171  21.326  0.00  0.00    +0.000 A 
ATOM     25  C   UNL     1      -0.338  10.672  22.616  0.00  0.00    +0.000 A 
ATOM     26  C   UNL     1       0.137   9.405  22.944  0.00  0.00    +0.000 A 
ATOM     27  C   UNL     1       0.800   8.643  21.983  0.00  0.00    +0.000 A 
ENDBRANCH  19  22
ENDBRANCH  16  17
ENDBRANCH   1  16
TORSDOF 6
ENDMDL
MODEL 3
REMARK VINA RESULT:      -8.4      0.853      1.259
REMARK  Name = 
REMARK  8 active torsions:
REMARK  status: ('A' for Active; 'I' for Inactive)
REMARK    1  A    between atoms: C_1  and  C_2
REMARK    2  A    between atoms: C_2  and  C_3
REMARK    3  A    between atoms: C_3  and  N_4
REMARK    4  A    between atoms: C_5  and  C_7
REMARK    5  A    between atoms: C_7  and  C_8
REMARK    6  A    between atoms: C_8  and  C_9
REMARK    7  A    between atoms: C_11  and  C_12
REMARK    8  A    between atoms: C_23  and  C_24
REMARK                            x       y       z     vdW  Elec       q    Type
REMARK                         _______ _______ _______ _____ _____    ______ ____
ROOT
ATOM      1  C   UNL     1       3.142   5.983  19.007  0.00  0.00    +0.000 C 
ATOM      2  C   UNL     1       2.560   5.273  17.754  0.00  0.00    +0.000 C 
ATOM      3  C   UNL     1       1.345   4.532  18.282  0.00  0.00    +0.000 C 
ATOM      4  N   UNL     1       1.778   4.098  19.595  0.00  0.00    +0.000 N 
ATOM      5  C   UNL     1       1.316   2.927  20.149  0.00  0.00    +0.000 C 
ATOM      6  C   UNL     1       1.811   2.545  21.521  0.00  0.00    +0.000 C 
ATOM      7  O   UNL     1       0.536   2.183  19.551  0.00  0.00    +0.000 OA
ATOM      8  C   UNL     1       2.739   5.038  20.162  0.00  0.00    +0.000 C 
ENDROOT
BRANCH   1  10
ATOM      9  N   UNL     1       1.883   7.587  20.413  0.00  0.00    +0.000 N 
ATOM     10  C   UNL     1       2.433   7.341  19.172  0.00  0.00    +0.000 C 
ATOM     11  O   UNL     1       2.361   8.162  18.260  0.00  0.00    +0.000 OA
ATOM     12  H   UNL     1       1.866   6.863  21.119  0.00  0.00    +0.000 HD
BRANCH   9  13
ATOM     13  C   UNL     1       1.081   8.771  20.662  0.00  0.00    +0.000 C 
BRANCH  13  15
ATOM     14  C   UNL     1      -0.093   9.270  22.855  0.00  0.00    +0.000 C 
ATOM     15  C   UNL     1       1.228   9.270  22.098  0.00  0.00    +0.000 C 
ENDBRANCH  13  15
ENDBRANCH   9  13
ENDBRANCH   1  10
BRANCH   1  16
ATOM     16  C   UNL     1       4.671   6.231  18.920  0.00  0.00    +0.000 C 
BRANCH  16  17
ATOM     17  C   UNL     1       5.352   5.509  17.810  0.00  0.00    +0.000 A 
ATOM     18  C   UNL     1       5.895   5.893  16.607  0.00  0.00    +0.000 A 
ATOM     19  C   UNL     1       6.154   4.682  15.923  0.00  0.00    +0.000 A 
ATOM     20  N   UNL     1       5.965   3.635  16.740  0.00  0.00    +0.000 NA
ATOM     21  O   UNL     1       5.453   4.157  17.916  0.00  0.00    +0.000 OA
BRANCH  19  22
ATOM     22  C   UNL     1       6.500   4.543  14.511  0.00  0.00    +0.000 A 
ATOM     23  C   UNL     1       5.831   3.633  13.684  0.00  0.00    +0.000 A 
ATOM     24  C   UNL     1       6.181   3.524  12.336  0.00  0.00    +0.000 A 
ATOM     25  C   UNL     1       7.191   4.325  11.801  0.00  0.00    +0.000 A 
ATOM     26  C   UNL     1       7.854   5.242  12.613  0.00  0.00    +0.000 A 
ATOM     27  C   UNL     1       7.510   5.349  13.960  0.00  0.00    +0.000 A 
ENDBRANCH  19  22
ENDBRANCH  16  17
ENDBRANCH   1  16
TORSDOF 6
ENDMDL
MODEL 4
REMARK VINA RESULT:      -8.4      1.260      1.669
REMARK  Name = 
REMARK  8 active torsions:
REMARK  status: ('A' for Active; 'I' for Inactive)
REMARK    1  A    between atoms: C_1  and  C_2
REMARK    2  A    between atoms: C_2  and  C_3
REMARK    3  A    between atoms: C_3  and  N_4
REMARK    4  A    between atoms: C_5  and  C_7
REMARK    5  A    between atoms: C_7  and  C_8
REMARK    6  A    between atoms: C_8  and  C_9
REMARK    7  A    between atoms: C_11  and  C_12
REMARK    8  A    between atoms: C_23  and  C_24
REMARK                            x       y       z     vdW  Elec       q    Type
REMARK                         _______ _______ _______ _____ _____    ______ ____
ROOT
ATOM      1  C   UNL     1       3.258   5.746  19.030  0.00  0.00    +0.000 C 
ATOM      2  C   UNL     1       2.757   5.063  17.728  0.00  0.00    +0.000 C 
ATOM      3  C   UNL     1       1.435   4.434  18.127  0.00  0.00    +0.000 C 
ATOM      4  N   UNL     1       1.686   3.991  19.484  0.00  0.00    +0.000 N 
ATOM      5  C   UNL     1       1.071   2.872  19.995  0.00  0.00    +0.000 C 
ATOM      6  C   UNL     1       1.382   2.476  21.417  0.00  0.00    +0.000 C 
ATOM      7  O   UNL     1       0.301   2.183  19.322  0.00  0.00    +0.000 OA
ATOM      8  C   UNL     1       2.655   4.859  20.144  0.00  0.00    +0.000 C 
ENDROOT
BRANCH   1  10
ATOM      9  N   UNL     1       2.649   7.878  17.925  0.00  0.00    +0.000 N 
ATOM     10  C   UNL     1       2.650   7.161  19.104  0.00  0.00    +0.000 C 
ATOM     11  O   UNL     1       2.188   7.626  20.144  0.00  0.00    +0.000 OA
ATOM     12  H   UNL     1       3.118   7.519  17.106  0.00  0.00    +0.000 HD
BRANCH   9  13
ATOM     13  C   UNL     1       2.221   9.265  17.887  0.00  0.00    +0.000 C 
BRANCH  13  15
ATOM     14  C   UNL     1       0.109  10.250  18.888  0.00  0.00    +0.000 C 
ATOM     15  C   UNL     1       0.702   9.393  17.779  0.00  0.00    +0.000 C 
ENDBRANCH  13  15
ENDBRANCH   9  13
ENDBRANCH   1  10
BRANCH   1  16
ATOM     16  C   UNL     1       4.803   5.867  19.108  0.00  0.00    +0.000 C 
BRANCH  16  17
ATOM     17  C   UNL     1       5.492   5.845  17.789  0.00  0.00    +0.000 A 
ATOM     18  C   UNL     1       5.122   5.472  16.519  0.00  0.00    +0.000 A 
ATOM     19  C   UNL     1       6.326   5.464  15.777  0.00  0.00    +0.000 A 
ATOM     20  N   UNL     1       7.324   5.991  16.502  0.00  0.00    +0.000 NA
ATOM     21  O   UNL     1       6.800   6.218  17.764  0.00  0.00    +0.000 OA
BRANCH  19  22
ATOM     22  C   UNL     1       6.517   4.900  14.444  0.00  0.00    +0.000 A 
ATOM     23  C   UNL     1       5.668   3.906  13.946  0.00  0.00    +0.000 A 
ATOM     24  C   UNL     1       5.872   3.387  12.665  0.00  0.00    +0.000 A 
ATOM     25  C   UNL     1       6.916   3.861  11.869  0.00  0.00    +0.000 A 
ATOM     26  C   UNL     1       7.759   4.859  12.351  0.00  0.00    +0.000 A 
ATOM     27  C   UNL     1       7.560   5.375  13.631  0.00  0.00    +0.000 A 
ENDBRANCH  19  22
ENDBRANCH  16  17
ENDBRANCH   1  16
TORSDOF 6
ENDMDL
MODEL 5
REMARK VINA RESULT:      -8.3      2.312      7.785
REMARK  Name = 
REMARK  8 active torsions:
REMARK  status: ('A' for Active; 'I' for Inactive)
REMARK    1  A    between atoms: C_1  and  C_2
REMARK    2  A    between atoms: C_2  and  C_3
REMARK    3  A    between atoms: C_3  and  N_4
REMARK    4  A    between atoms: C_5  and  C_7
REMARK    5  A    between atoms: C_7  and  C_8
REMARK    6  A    between atoms: C_8  and  C_9
REMARK    7  A    between atoms: C_11  and  C_12
REMARK    8  A    between atoms: C_23  and  C_24
REMARK                            x       y       z     vdW  Elec       q    Type
REMARK                         _______ _______ _______ _____ _____    ______ ____
ROOT
ATOM      1  C   UNL     1       3.983   5.941  17.624  0.00  0.00    +0.000 C 
ATOM      2  C   UNL     1       4.560   5.467  16.262  0.00  0.00    +0.000 C 
ATOM      3  C   UNL     1       5.630   4.460  16.646  0.00  0.00    +0.000 C 
ATOM      4  N   UNL     1       6.193   5.033  17.852  0.00  0.00    +0.000 N 
ATOM      5  C   UNL     1       7.518   4.854  18.176  0.00  0.00    +0.000 C 
ATOM      6  C   UNL     1       8.029   5.479  19.449  0.00  0.00    +0.000 C 
ATOM      7  O   UNL     1       8.290   4.222  17.451  0.00  0.00    +0.000 OA
ATOM      8  C   UNL     1       5.189   5.798  18.582  0.00  0.00    +0.000 C 
ENDROOT
BRANCH   1  10
ATOM      9  N   UNL     1       3.108   4.226  19.182  0.00  0.00    +0.000 N 
ATOM     10  C   UNL     1       2.865   4.969  18.046  0.00  0.00    +0.000 C 
ATOM     11  O   UNL     1       1.814   4.860  17.416  0.00  0.00    +0.000 OA
ATOM     12  H   UNL     1       4.013   4.257  19.631  0.00  0.00    +0.000 HD
BRANCH   9  13
ATOM     13  C   UNL     1       2.192   3.186  19.615  0.00  0.00    +0.000 C 
BRANCH  13  15
ATOM     14  C   UNL     1       1.469   2.490  21.945  0.00  0.00    +0.000 C 
ATOM     15  C   UNL     1       1.436   3.580  20.883  0.00  0.00    +0.000 C 
ENDBRANCH  13  15
ENDBRANCH   9  13
ENDBRANCH   1  10
BRANCH   1  16
ATOM     16  C   UNL     1       3.400   7.378  17.580  0.00  0.00    +0.000 C 
BRANCH  16  17
ATOM     17  C   UNL     1       2.478   7.705  18.703  0.00  0.00    +0.000 A 
ATOM     18  C   UNL     1       1.570   8.709  18.938  0.00  0.00    +0.000 A 
ATOM     19  C   UNL     1       1.217   8.569  20.300  0.00  0.00    +0.000 A 
ATOM     20  N   UNL     1       1.727   7.434  20.800  0.00  0.00    +0.000 NA
ATOM     21  O   UNL     1       2.525   6.901  19.800  0.00  0.00    +0.000 OA
BRANCH  19  22
ATOM     22  C   UNL     1       0.476   9.535  21.106  0.00  0.00    +0.000 A 
ATOM     23  C   UNL     1      -0.023   9.199  22.369  0.00  0.00    +0.000 A 
ATOM     24  C   UNL     1      -0.726  10.145  23.120  0.00  0.00    +0.000 A 
ATOM     25  C   UNL     1      -0.927  11.434  22.622  0.00  0.00    +0.000 A 
ATOM     26  C   UNL     1      -0.424  11.781  21.371  0.00  0.00    +0.000 A 
ATOM     27  C   UNL     1       0.273  10.837  20.617  0.00  0.00    +0.000 A 
ENDBRANCH  19  22
ENDBRANCH  16  17
ENDBRANCH   1  16
TORSDOF 6
ENDMDL
MODEL 6
REMARK VINA RESULT:      -8.3      1.036      1.274
REMARK  Name = 
REMARK  8 active torsions:
REMARK  status: ('A' for Active; 'I' for Inactive)
REMARK    1  A    between atoms: C_1  and  C_2
REMARK    2  A    between atoms: C_2  and  C_3
REMARK    3  A    between atoms: C_3  and  N_4
REMARK    4  A    between atoms: C_5  and  C_7
REMARK    5  A    between atoms: C_7  and  C_8
REMARK    6  A    between atoms: C_8  and  C_9
REMARK    7  A    between atoms: C_11  and  C_12
REMARK    8  A    between atoms: C_23  and  C_24
REMARK                            x       y       z     vdW  Elec       q    Type
REMARK                         _______ _______ _______ _____ _____    ______ ____
ROOT
ATOM      1  C   UNL     1       3.487   5.705  18.874  0.00  0.00    +0.000 C 
ATOM      2  C   UNL     1       3.097   4.898  17.605  0.00  0.00    +0.000 C 
ATOM      3  C   UNL     1       1.696   4.396  17.905  0.00  0.00    +0.000 C 
ATOM      4  N   UNL     1       1.754   4.108  19.324  0.00  0.00    +0.000 N 
ATOM      5  C   UNL     1       1.006   3.095  19.877  0.00  0.00    +0.000 C 
ATOM      6  C   UNL     1       1.119   2.857  21.363  0.00  0.00    +0.000 C 
ATOM      7  O   UNL     1       0.274   2.373  19.196  0.00  0.00    +0.000 OA
ATOM      8  C   UNL     1       2.697   4.994  19.997  0.00  0.00    +0.000 C 
ENDROOT
BRANCH   1  10
ATOM      9  N   UNL     1       2.111   7.597  19.687  0.00  0.00    +0.000 N 
ATOM     10  C   UNL     1       2.975   7.149  18.709  0.00  0.00    +0.000 C 
ATOM     11  O   UNL     1       3.316   7.867  17.770  0.00  0.00    +0.000 OA
ATOM     12  H   UNL     1       1.767   6.965  20.396  0.00  0.00    +0.000 HD
BRANCH   9  13
ATOM     13  C   UNL     1       1.460   8.891  19.584  0.00  0.00    +0.000 C 
BRANCH  13  15
ATOM     14  C   UNL     1      -0.299  10.187  18.296  0.00  0.00    +0.000 C 
ATOM     15  C   UNL     1       0.717   9.055  18.259  0.00  0.00    +0.000 C 
ENDBRANCH  13  15
ENDBRANCH   9  13
ENDBRANCH   1  10
BRANCH   1  16
ATOM     16  C   UNL     1       5.016   5.748  19.130  0.00  0.00    +0.000 C 
BRANCH  16  17
ATOM     17  C   UNL     1       5.852   5.448  17.935  0.00  0.00    +0.000 A 
ATOM     18  C   UNL     1       5.772   5.773  16.603  0.00  0.00    +0.000 A 
ATOM     19  C   UNL     1       6.744   4.960  15.972  0.00  0.00    +0.000 A 
ATOM     20  N   UNL     1       7.495   4.335  16.890  0.00  0.00    +0.000 NA
ATOM     21  O   UNL     1       6.927   4.634  18.117  0.00  0.00    +0.000 OA
BRANCH  19  22
ATOM     22  C   UNL     1       6.889   4.743  14.536  0.00  0.00    +0.000 A 
ATOM     23  C   UNL     1       7.782   5.501  13.772  0.00  0.00    +0.000 A 
ATOM     24  C   UNL     1       7.903   5.269  12.399  0.00  0.00    +0.000 A 
ATOM     25  C   UNL     1       7.143   4.274  11.781  0.00  0.00    +0.000 A 
ATOM     26  C   UNL     1       6.260   3.506  12.535  0.00  0.00    +0.000 A 
ATOM     27  C   UNL     1       6.134   3.740  13.904  0.00  0.00    +0.000 A 
ENDBRANCH  19  22
ENDBRANCH  16  17
ENDBRANCH   1  16
TORSDOF 6
ENDMDL
MODEL 7
REMARK VINA RESULT:      -8.3      1.934      7.804
REMARK  Name = 
REMARK  8 active torsions:
REMARK  status: ('A' for Active; 'I' for Inactive)
REMARK    1  A    between atoms: C_1  and  C_2
REMARK    2  A    between atoms: C_2  and  C_3
REMARK    3  A    between atoms: C_3  and  N_4
REMARK    4  A    between atoms: C_5  and  C_7
REMARK    5  A    between atoms: C_7  and  C_8
REMARK    6  A    between atoms: C_8  and  C_9
REMARK    7  A    between atoms: C_11  and  C_12
REMARK    8  A    between atoms: C_23  and  C_24
REMARK                            x       y       z     vdW  Elec       q    Type
REMARK                         _______ _______ _______ _____ _____    ______ ____
ROOT
ATOM      1  C   UNL     1       5.094   5.628  17.188  0.00  0.00    +0.000 C 
ATOM      2  C   UNL     1       5.984   5.694  18.460  0.00  0.00    +0.000 C 
ATOM      3  C   UNL     1       6.121   4.245  18.889  0.00  0.00    +0.000 C 
ATOM      4  N   UNL     1       4.817   3.693  18.580  0.00  0.00    +0.000 N 
ATOM      5  C   UNL     1       4.276   2.677  19.332  0.00  0.00    +0.000 C 
ATOM      6  C   UNL     1       2.915   2.153  18.945  0.00  0.00    +0.000 C 
ATOM      7  O   UNL     1       4.857   2.206  20.312  0.00  0.00    +0.000 OA
ATOM      8  C   UNL     1       4.220   4.377  17.438  0.00  0.00    +0.000 C 
ENDROOT
BRANCH   1  10
ATOM      9  N   UNL     1       5.503   4.553  14.994  0.00  0.00    +0.000 N 
ATOM     10  C   UNL     1       6.005   5.392  15.968  0.00  0.00    +0.000 C 
ATOM     11  O   UNL     1       7.111   5.918  15.859  0.00  0.00    +0.000 OA
ATOM     12  H   UNL     1       4.637   4.054  15.143  0.00  0.00    +0.000 HD
BRANCH   9  13
ATOM     13  C   UNL     1       6.310   4.150  13.856  0.00  0.00    +0.000 C 
BRANCH  13  15
ATOM     14  C   UNL     1       6.121   2.582  11.870  0.00  0.00    +0.000 C 
ATOM     15  C   UNL     1       5.451   3.681  12.683  0.00  0.00    +0.000 C 
ENDBRANCH  13  15
ENDBRANCH   9  13
ENDBRANCH   1  10
BRANCH   1  16
ATOM     16  C   UNL     1       4.267   6.918  16.945  0.00  0.00    +0.000 C 
BRANCH  16  17
ATOM     17  C   UNL     1       3.246   7.202  17.990  0.00  0.00    +0.000 A 
ATOM     18  C   UNL     1       2.378   8.242  18.227  0.00  0.00    +0.000 A 
ATOM     19  C   UNL     1       1.866   7.999  19.523  0.00  0.00    +0.000 A 
ATOM     20  N   UNL     1       2.247   6.789  19.957  0.00  0.00    +0.000 NA
ATOM     21  O   UNL     1       3.119   6.298  18.999  0.00  0.00    +0.000 OA
BRANCH  19  22
ATOM     22  C   UNL     1       1.098   8.936  20.338  0.00  0.00    +0.000 A 
ATOM     23  C   UNL     1       0.462  10.044  19.768  0.00  0.00    +0.000 A 
ATOM     24  C   UNL     1      -0.270  10.923  20.572  0.00  0.00    +0.000 A 
ATOM     25  C   UNL     1      -0.382  10.696  21.945  0.00  0.00    +0.000 A 
ATOM     26  C   UNL     1       0.237   9.589  22.519  0.00  0.00    +0.000 A 
ATOM     27  C   UNL     1       0.973   8.715  21.720  0.00  0.00    +0.000 A 
ENDBRANCH  19  22
ENDBRANCH  16  17
ENDBRANCH   1  16
TORSDOF 6
ENDMDL
MODEL 8
REMARK VINA RESULT:      -8.3      4.224      7.197
REMARK  Name = 
REMARK  8 active torsions:
REMARK  status: ('A' for Active; 'I' for Inactive)
REMARK    1  A    between atoms: C_1  and  C_2
REMARK    2  A    between atoms: C_2  and  C_3
REMARK    3  A    between atoms: C_3  and  N_4
REMARK    4  A    between atoms: C_5  and  C_7
REMARK    5  A    between atoms: C_7  and  C_8
REMARK    6  A    between atoms: C_8  and  C_9
REMARK    7  A    between atoms: C_11  and  C_12
REMARK    8  A    between atoms: C_23  and  C_24
REMARK                            x       y       z     vdW  Elec       q    Type
REMARK                         _______ _______ _______ _____ _____    ______ ____
ROOT
ATOM      1  C   UNL     1       6.436   5.349  18.013  0.00  0.00    +0.000 C 
ATOM      2  C   UNL     1       5.735   4.124  18.663  0.00  0.00    +0.000 C 
ATOM      3  C   UNL     1       4.344   4.131  18.057  0.00  0.00    +0.000 C 
ATOM      4  N   UNL     1       4.045   5.546  17.954  0.00  0.00    +0.000 N 
ATOM      5  C   UNL     1       2.758   6.014  18.076  0.00  0.00    +0.000 C 
ATOM      6  C   UNL     1       2.527   7.500  17.954  0.00  0.00    +0.000 C 
ATOM      7  O   UNL     1       1.806   5.263  18.300  0.00  0.00    +0.000 OA
ATOM      8  C   UNL     1       5.263   6.321  17.747  0.00  0.00    +0.000 C 
ENDROOT
BRANCH   1  10
ATOM      9  N   UNL     1       6.488   5.437  15.537  0.00  0.00    +0.000 N 
ATOM     10  C   UNL     1       7.057   4.902  16.675  0.00  0.00    +0.000 C 
ATOM     11  O   UNL     1       8.004   4.120  16.616  0.00  0.00    +0.000 OA
ATOM     12  H   UNL     1       5.651   6.000  15.599  0.00  0.00    +0.000 HD
BRANCH   9  13
ATOM     13  C   UNL     1       6.895   5.003  14.213  0.00  0.00    +0.000 C 
BRANCH  13  15
ATOM     14  C   UNL     1       6.389   3.455  12.269  0.00  0.00    +0.000 C 
ATOM     15  C   UNL     1       6.004   3.884  13.678  0.00  0.00    +0.000 C 
ENDBRANCH  13  15
ENDBRANCH   9  13
ENDBRANCH   1  10
BRANCH   1  16
ATOM     16  C   UNL     1       7.554   5.961  18.896  0.00  0.00    +0.000 C 
BRANCH  16  17
ATOM     17  C   UNL     1       7.998   7.319  18.478  0.00  0.00    +0.000 A 
ATOM     18  C   UNL     1       8.830   8.267  19.023  0.00  0.00    +0.000 A 
ATOM     19  C   UNL     1       8.618   9.428  18.244  0.00  0.00    +0.000 A 
ATOM     20  N   UNL     1       7.859   9.141  17.177  0.00  0.00    +0.000 NA
ATOM     21  O   UNL     1       7.464   7.823  17.333  0.00  0.00    +0.000 OA
BRANCH  19  22
ATOM     22  C   UNL     1       9.074  10.778  18.561  0.00  0.00    +0.000 A 
ATOM     23  C   UNL     1       8.667  11.881  17.803  0.00  0.00    +0.000 A 
ATOM     24  C   UNL     1       9.116  13.163  18.131  0.00  0.00    +0.000 A 
ATOM     25  C   UNL     1       9.964  13.355  19.223  0.00  0.00    +0.000 A 
ATOM     26  C   UNL     1      10.365  12.265  19.992  0.00  0.00    +0.000 A 
ATOM     27  C   UNL     1       9.923  10.985  19.662  0.00  0.00    +0.000 A 
ENDBRANCH  19  22
ENDBRANCH  16  17
ENDBRANCH   1  16
TORSDOF 6
ENDMDL
MODEL 9
REMARK VINA RESULT:      -8.2      2.448      7.214
REMARK  Name = 
REMARK  8 active torsions:
REMARK  status: ('A' for Active; 'I' for Inactive)
REMARK    1  A    between atoms: C_1  and  C_2
REMARK    2  A    between atoms: C_2  and  C_3
REMARK    3  A    between atoms: C_3  and  N_4
REMARK    4  A    between atoms: C_5  and  C_7
REMARK    5  A    between atoms: C_7  and  C_8
REMARK    6  A    between atoms: C_8  and  C_9
REMARK    7  A    between atoms: C_11  and  C_12
REMARK    8  A    between atoms: C_23  and  C_24
REMARK                            x       y       z     vdW  Elec       q    Type
REMARK                         _______ _______ _______ _____ _____    ______ ____
ROOT
ATOM      1  C   UNL     1       5.604   4.537  15.818  0.00  0.00    +0.000 C 
ATOM      2  C   UNL     1       7.033   3.963  15.614  0.00  0.00    +0.000 C 
ATOM      3  C   UNL     1       7.319   4.201  14.142  0.00  0.00    +0.000 C 
ATOM      4  N   UNL     1       6.028   3.977  13.523  0.00  0.00    +0.000 N 
ATOM      5  C   UNL     1       5.925   3.466  12.251  0.00  0.00    +0.000 C 
ATOM      6  C   UNL     1       4.546   3.264  11.674  0.00  0.00    +0.000 C 
ATOM      7  O   UNL     1       6.917   3.153  11.589  0.00  0.00    +0.000 OA
ATOM      8  C   UNL     1       4.945   4.335  14.434  0.00  0.00    +0.000 C 
ENDROOT
BRANCH   1  10
ATOM      9  N   UNL     1       6.640   6.391  17.094  0.00  0.00    +0.000 N 
ATOM     10  C   UNL     1       5.723   6.043  16.123  0.00  0.00    +0.000 C 
ATOM     11  O   UNL     1       5.050   6.890  15.538  0.00  0.00    +0.000 OA
ATOM     12  H   UNL     1       7.113   5.677  17.631  0.00  0.00    +0.000 HD
BRANCH   9  13
ATOM     13  C   UNL     1       6.760   7.759  17.564  0.00  0.00    +0.000 C 
BRANCH  13  15
ATOM     14  C   UNL     1       8.441   9.555  18.185  0.00  0.00    +0.000 C 
ATOM     15  C   UNL     1       8.160   8.061  18.096  0.00  0.00    +0.000 C 
ENDBRANCH  13  15
ENDBRANCH   9  13
ENDBRANCH   1  10
BRANCH   1  16
ATOM     16  C   UNL     1       4.825   3.858  16.975  0.00  0.00    +0.000 C 
BRANCH  16  17
ATOM     17  C   UNL     1       4.103   4.802  17.871  0.00  0.00    +0.000 A 
ATOM     18  C   UNL     1       3.001   5.610  17.726  0.00  0.00    +0.000 A 
ATOM     19  C   UNL     1       3.000   6.434  18.876  0.00  0.00    +0.000 A 
ATOM     20  N   UNL     1       3.925   6.014  19.751  0.00  0.00    +0.000 NA
ATOM     21  O   UNL     1       4.621   5.000  19.114  0.00  0.00    +0.000 OA
BRANCH  19  22
ATOM     22  C   UNL     1       2.183   7.626  19.086  0.00  0.00    +0.000 A 
ATOM     23  C   UNL     1       1.677   7.948  20.349  0.00  0.00    +0.000 A 
ATOM     24  C   UNL     1       0.901   9.098  20.522  0.00  0.00    +0.000 A 
ATOM     25  C   UNL     1       0.633   9.937  19.439  0.00  0.00    +0.000 A 
ATOM     26  C   UNL     1       1.142   9.631  18.180  0.00  0.00    +0.000 A 
ATOM     27  C   UNL     1       1.912   8.481  18.004  0.00  0.00    +0.000 A 
ENDBRANCH  19  22
ENDBRANCH  16  17
ENDBRANCH   1  16
TORSDOF 6
ENDMDL
