MODEL 1
REMARK VINA RESULT:      -7.3      0.000      0.000
REMARK  Name = 
REMARK  1 active torsions:
REMARK  status: ('A' for Active; 'I' for Inactive)
REMARK    1  A    between atoms: C_1  and  C_2
REMARK                            x       y       z     vdW  Elec       q    Type
REMARK                         _______ _______ _______ _____ _____    ______ ____
ROOT
ATOM      1  C   UNL     1       7.238   4.972  13.965  0.00  0.00    +0.000 C 
ATOM      2  C   UNL     1       6.675   4.658  15.320  0.00  0.00    +0.000 A 
ATOM      3  N   UNL     1       5.434   4.300  15.441  0.00  0.00    +0.000 NA
ATOM      4  C   UNL     1       5.047   4.071  16.721  0.00  0.00    +0.000 A 
ATOM      5  S   UNL     1       3.470   3.573  17.123  0.00  0.00    +0.000 S 
ATOM      6  C   UNL     1       3.899   3.609  18.774  0.00  0.00    +0.000 A 
ATOM      7  N   UNL     1       2.926   3.312  19.735  0.00  0.00    +0.000 N 
ATOM      8  C   UNL     1       3.080   3.379  21.106  0.00  0.00    +0.000 A 
ATOM      9  C   UNL     1       1.861   3.054  21.649  0.00  0.00    +0.000 A 
ATOM     10  N   UNL     1       0.958   2.754  20.669  0.00  0.00    +0.000 NA
ATOM     11  C   UNL     1       1.619   2.906  19.542  0.00  0.00    +0.000 A 
ATOM     12  N   UNL     1       5.141   3.943  19.065  0.00  0.00    +0.000 NA
ATOM     13  C   UNL     1       5.807   4.189  17.869  0.00  0.00    +0.000 A 
ATOM     14  C   UNL     1       7.204   4.565  17.702  0.00  0.00    +0.000 A 
ATOM     15  O   UNL     1       8.019   4.684  18.610  0.00  0.00    +0.000 OA
ATOM     16  N   UNL     1       7.555   4.781  16.378  0.00  0.00    +0.000 N 
ATOM     17  H   UNL     1       8.521   5.032  16.222  0.00  0.00    +0.000 HD
ENDROOT
TORSDOF 0
ENDMDL
MODEL 2
REMARK VINA RESULT:      -7.3      2.378      2.807
REMARK  Name = 
REMARK  1 active torsions:
REMARK  status: ('A' for Active; 'I' for Inactive)
REMARK    1  A    between atoms: C_1  and  C_2
REMARK                            x       y       z     vdW  Elec       q    Type
REMARK                         _______ _______ _______ _____ _____    ______ ____
ROOT
ATOM      1  C   UNL     1       8.444   8.908  17.488  0.00  0.00    +0.000 C 
ATOM      2  C   UNL     1       7.695   7.674  17.896  0.00  0.00    +0.000 A 
ATOM      3  N   UNL     1       6.597   7.348  17.287  0.00  0.00    +0.000 NA
ATOM      4  C   UNL     1       6.008   6.226  17.770  0.00  0.00    +0.000 A 
ATOM      5  S   UNL     1       4.568   5.596  17.117  0.00  0.00    +0.000 S 
ATOM      6  C   UNL     1       4.593   4.363  18.296  0.00  0.00    +0.000 A 
ATOM      7  N   UNL     1       3.543   3.440  18.334  0.00  0.00    +0.000 N 
ATOM      8  C   UNL     1       3.364   2.440  19.271  0.00  0.00    +0.000 A 
ATOM      9  C   UNL     1       2.183   1.816  18.950  0.00  0.00    +0.000 A 
ATOM     10  N   UNL     1       1.633   2.366  17.829  0.00  0.00    +0.000 NA
ATOM     11  C   UNL     1       2.465   3.322  17.477  0.00  0.00    +0.000 A 
ATOM     12  N   UNL     1       5.607   4.359  19.140  0.00  0.00    +0.000 NA
ATOM     13  C   UNL     1       6.434   5.430  18.816  0.00  0.00    +0.000 A 
ATOM     14  C   UNL     1       7.685   5.801  19.463  0.00  0.00    +0.000 A 
ATOM     15  O   UNL     1       8.216   5.188  20.382  0.00  0.00    +0.000 OA
ATOM     16  N   UNL     1       8.253   6.949  18.932  0.00  0.00    +0.000 N 
ATOM     17  H   UNL     1       9.129   7.230  19.349  0.00  0.00    +0.000 HD
ENDROOT
TORSDOF 0
ENDMDL
MODEL 3
REMARK VINA RESULT:      -6.6      1.025      1.025
REMARK  Name = 
REMARK  1 active torsions:
REMARK  status: ('A' for Active; 'I' for Inactive)
REMARK    1  A    between atoms: C_1  and  C_2
REMARK                            x       y       z     vdW  Elec       q    Type
REMARK                         _______ _______ _______ _____ _____    ______ ____
ROOT
ATOM      1  C   UNL     1       7.433   4.777  13.498  0.00  0.00    +0.000 C 
ATOM      2  C   UNL     1       6.785   4.824  14.850  0.00  0.00    +0.000 A 
ATOM      3  N   UNL     1       5.736   4.102  15.093  0.00  0.00    +0.000 NA
ATOM      4  C   UNL     1       5.235   4.257  16.344  0.00  0.00    +0.000 A 
ATOM      5  S   UNL     1       3.873   3.398  16.896  0.00  0.00    +0.000 S 
ATOM      6  C   UNL     1       3.975   4.228  18.384  0.00  0.00    +0.000 A 
ATOM      7  N   UNL     1       3.010   3.981  19.366  0.00  0.00    +0.000 N 
ATOM      8  C   UNL     1       2.895   4.626  20.582  0.00  0.00    +0.000 A 
ATOM      9  C   UNL     1       1.781   4.102  21.194  0.00  0.00    +0.000 A 
ATOM     10  N   UNL     1       1.215   3.131  20.420  0.00  0.00    +0.000 NA
ATOM     11  C   UNL     1       1.969   3.072  19.344  0.00  0.00    +0.000 A 
ATOM     12  N   UNL     1       4.963   5.090  18.525  0.00  0.00    +0.000 NA
ATOM     13  C   UNL     1       5.702   5.086  17.346  0.00  0.00    +0.000 A 
ATOM     14  C   UNL     1       6.898   5.865  17.056  0.00  0.00    +0.000 A 
ATOM     15  O   UNL     1       7.457   6.623  17.841  0.00  0.00    +0.000 OA
ATOM     16  N   UNL     1       7.377   5.668  15.770  0.00  0.00    +0.000 N 
ATOM     17  H   UNL     1       8.214   6.184  15.537  0.00  0.00    +0.000 HD
ENDROOT
TORSDOF 0
ENDMDL
MODEL 4
REMARK VINA RESULT:      -6.4      2.187      2.632
REMARK  Name = 
REMARK  1 active torsions:
REMARK  status: ('A' for Active; 'I' for Inactive)
REMARK    1  A    between atoms: C_1  and  C_2
REMARK                            x       y       z     vdW  Elec       q    Type
REMARK                         _______ _______ _______ _____ _____    ______ ____
ROOT
ATOM      1  C   UNL     1       7.933   8.821  17.512  0.00  0.00    +0.000 C 
ATOM      2  C   UNL     1       7.178   7.526  17.571  0.00  0.00    +0.000 A 
ATOM      3  N   UNL     1       5.887   7.532  17.702  0.00  0.00    +0.000 NA
ATOM      4  C   UNL     1       5.332   6.296  17.767  0.00  0.00    +0.000 A 
ATOM      5  S   UNL     1       3.654   6.055  17.920  0.00  0.00    +0.000 S 
ATOM      6  C   UNL     1       3.920   4.370  17.974  0.00  0.00    +0.000 A 
ATOM      7  N   UNL     1       2.826   3.516  18.154  0.00  0.00    +0.000 N 
ATOM      8  C   UNL     1       2.874   2.144  18.308  0.00  0.00    +0.000 A 
ATOM      9  C   UNL     1       1.578   1.732  18.507  0.00  0.00    +0.000 A 
ATOM     10  N   UNL     1       0.718   2.791  18.451  0.00  0.00    +0.000 NA
ATOM     11  C   UNL     1       1.484   3.838  18.231  0.00  0.00    +0.000 A 
ATOM     12  N   UNL     1       5.166   3.954  17.865  0.00  0.00    +0.000 NA
ATOM     13  C   UNL     1       5.978   5.075  17.724  0.00  0.00    +0.000 A 
ATOM     14  C   UNL     1       7.424   5.097  17.548  0.00  0.00    +0.000 A 
ATOM     15  O   UNL     1       8.141   4.107  17.460  0.00  0.00    +0.000 OA
ATOM     16  N   UNL     1       7.944   6.380  17.479  0.00  0.00    +0.000 N 
ATOM     17  H   UNL     1       8.944   6.434  17.345  0.00  0.00    +0.000 HD
ENDROOT
TORSDOF 0
ENDMDL
MODEL 5
REMARK VINA RESULT:      -6.4      2.189      6.280
REMARK  Name = 
REMARK  1 active torsions:
REMARK  status: ('A' for Active; 'I' for Inactive)
REMARK    1  A    between atoms: C_1  and  C_2
REMARK                            x       y       z     vdW  Elec       q    Type
REMARK                         _______ _______ _______ _____ _____    ______ ____
ROOT
ATOM      1  C   UNL     1       2.032   3.531  21.799  0.00  0.00    +0.000 C 
ATOM      2  C   UNL     1       2.638   3.479  20.428  0.00  0.00    +0.000 A 
ATOM      3  N   UNL     1       3.718   4.149  20.168  0.00  0.00    +0.000 NA
ATOM      4  C   UNL     1       4.145   4.035  18.886  0.00  0.00    +0.000 A 
ATOM      5  S   UNL     1       5.551   4.810  18.319  0.00  0.00    +0.000 S 
ATOM      6  C   UNL     1       5.246   4.184  16.761  0.00  0.00    +0.000 A 
ATOM      7  N   UNL     1       6.106   4.526  15.713  0.00  0.00    +0.000 N 
ATOM      8  C   UNL     1       5.956   4.181  14.384  0.00  0.00    +0.000 A 
ATOM      9  C   UNL     1       6.998   4.772  13.710  0.00  0.00    +0.000 A 
ATOM     10  N   UNL     1       7.812   5.447  14.573  0.00  0.00    +0.000 NA
ATOM     11  C   UNL     1       7.265   5.277  15.757  0.00  0.00    +0.000 A 
ATOM     12  N   UNL     1       4.183   3.416  16.620  0.00  0.00    +0.000 NA
ATOM     13  C   UNL     1       3.562   3.317  17.861  0.00  0.00    +0.000 A 
ATOM     14  C   UNL     1       2.366   2.551  18.185  0.00  0.00    +0.000 A 
ATOM     15  O   UNL     1       1.746   1.840  17.403  0.00  0.00    +0.000 OA
ATOM     16  N   UNL     1       1.972   2.692  19.507  0.00  0.00    +0.000 N 
ATOM     17  H   UNL     1       1.152   2.165  19.773  0.00  0.00    +0.000 HD
ENDROOT
TORSDOF 0
ENDMDL
MODEL 6
REMARK VINA RESULT:      -6.3      2.324      6.344
REMARK  Name = 
REMARK  1 active torsions:
REMARK  status: ('A' for Active; 'I' for Inactive)
REMARK    1  A    between atoms: C_1  and  C_2
REMARK                            x       y       z     vdW  Elec       q    Type
REMARK                         _______ _______ _______ _____ _____    ______ ____
ROOT
ATOM      1  C   UNL     1       1.214   2.548  22.236  0.00  0.00    +0.000 C 
ATOM      2  C   UNL     1       1.800   2.906  20.903  0.00  0.00    +0.000 A 
ATOM      3  N   UNL     1       3.083   3.043  20.772  0.00  0.00    +0.000 NA
ATOM      4  C   UNL     1       3.478   3.392  19.522  0.00  0.00    +0.000 A 
ATOM      5  S   UNL     1       5.115   3.609  19.109  0.00  0.00    +0.000 S 
ATOM      6  C   UNL     1       4.639   4.043  17.528  0.00  0.00    +0.000 A 
ATOM      7  N   UNL     1       5.620   4.422  16.605  0.00  0.00    +0.000 N 
ATOM      8  C   UNL     1       5.402   4.883  15.321  0.00  0.00    +0.000 A 
ATOM      9  C   UNL     1       6.639   5.181  14.802  0.00  0.00    +0.000 A 
ATOM     10  N   UNL     1       7.624   4.892  15.701  0.00  0.00    +0.000 NA
ATOM     11  C   UNL     1       6.993   4.434  16.760  0.00  0.00    +0.000 A 
ATOM     12  N   UNL     1       3.348   4.022  17.262  0.00  0.00    +0.000 NA
ATOM     13  C   UNL     1       2.682   3.622  18.417  0.00  0.00    +0.000 A 
ATOM     14  C   UNL     1       1.248   3.434  18.583  0.00  0.00    +0.000 A 
ATOM     15  O   UNL     1       0.409   3.568  17.700  0.00  0.00    +0.000 OA
ATOM     16  N   UNL     1       0.893   3.072  19.874  0.00  0.00    +0.000 N 
ATOM     17  H   UNL     1      -0.095   2.921  20.024  0.00  0.00    +0.000 HD
ENDROOT
TORSDOF 0
ENDMDL
MODEL 7
REMARK VINA RESULT:      -6.3      2.141      2.651
REMARK  Name = 
REMARK  1 active torsions:
REMARK  status: ('A' for Active; 'I' for Inactive)
REMARK    1  A    between atoms: C_1  and  C_2
REMARK                            x       y       z     vdW  Elec       q    Type
REMARK                         _______ _______ _______ _____ _____    ______ ____
ROOT
ATOM      1  C   UNL     1       8.127   8.178  17.440  0.00  0.00    +0.000 C 
ATOM      2  C   UNL     1       7.112   7.076  17.359  0.00  0.00    +0.000 A 
ATOM      3  N   UNL     1       6.092   7.071  18.161  0.00  0.00    +0.000 NA
ATOM      4  C   UNL     1       5.267   6.007  18.000  0.00  0.00    +0.000 A 
ATOM      5  S   UNL     1       3.854   5.798  18.928  0.00  0.00    +0.000 S 
ATOM      6  C   UNL     1       3.569   4.318  18.127  0.00  0.00    +0.000 A 
ATOM      7  N   UNL     1       2.465   3.546  18.502  0.00  0.00    +0.000 N 
ATOM      8  C   UNL     1       2.140   2.292  18.021  0.00  0.00    +0.000 A 
ATOM      9  C   UNL     1       1.015   1.896  18.702  0.00  0.00    +0.000 A 
ATOM     10  N   UNL     1       0.604   2.869  19.568  0.00  0.00    +0.000 NA
ATOM     11  C   UNL     1       1.477   3.842  19.422  0.00  0.00    +0.000 A 
ATOM     12  N   UNL     1       4.432   3.963  17.195  0.00  0.00    +0.000 NA
ATOM     13  C   UNL     1       5.403   4.957  17.113  0.00  0.00    +0.000 A 
ATOM     14  C   UNL     1       6.540   5.001  16.205  0.00  0.00    +0.000 A 
ATOM     15  O   UNL     1       6.790   4.168  15.341  0.00  0.00    +0.000 OA
ATOM     16  N   UNL     1       7.351   6.109  16.401  0.00  0.00    +0.000 N 
ATOM     17  H   UNL     1       8.145   6.179  15.781  0.00  0.00    +0.000 HD
ENDROOT
TORSDOF 0
ENDMDL
MODEL 8
REMARK VINA RESULT:      -6.2      2.628      5.605
REMARK  Name = 
REMARK  1 active torsions:
REMARK  status: ('A' for Active; 'I' for Inactive)
REMARK    1  A    between atoms: C_1  and  C_2
REMARK                            x       y       z     vdW  Elec       q    Type
REMARK                         _______ _______ _______ _____ _____    ______ ____
ROOT
ATOM      1  C   UNL     1       0.676   1.860  18.649  0.00  0.00    +0.000 C 
ATOM      2  C   UNL     1       1.982   2.580  18.807  0.00  0.00    +0.000 A 
ATOM      3  N   UNL     1       2.191   3.694  18.177  0.00  0.00    +0.000 NA
ATOM      4  C   UNL     1       3.421   4.226  18.387  0.00  0.00    +0.000 A 
ATOM      5  S   UNL     1       3.914   5.694  17.679  0.00  0.00    +0.000 S 
ATOM      6  C   UNL     1       5.446   5.509  18.406  0.00  0.00    +0.000 A 
ATOM      7  N   UNL     1       6.437   6.464  18.154  0.00  0.00    +0.000 N 
ATOM      8  C   UNL     1       7.748   6.420  18.588  0.00  0.00    +0.000 A 
ATOM      9  C   UNL     1       8.366   7.530  18.064  0.00  0.00    +0.000 A 
ATOM     10  N   UNL     1       7.483   8.283  17.345  0.00  0.00    +0.000 NA
ATOM     11  C   UNL     1       6.342   7.633  17.422  0.00  0.00    +0.000 A 
ATOM     12  N   UNL     1       5.628   4.444  19.163  0.00  0.00    +0.000 NA
ATOM     13  C   UNL     1       4.442   3.716  19.165  0.00  0.00    +0.000 A 
ATOM     14  C   UNL     1       4.172   2.479  19.885  0.00  0.00    +0.000 A 
ATOM     15  O   UNL     1       4.955   1.912  20.637  0.00  0.00    +0.000 OA
ATOM     16  N   UNL     1       2.902   1.977  19.644  0.00  0.00    +0.000 N 
ATOM     17  H   UNL     1       2.674   1.125  20.136  0.00  0.00    +0.000 HD
ENDROOT
TORSDOF 0
ENDMDL
MODEL 9
REMARK VINA RESULT:      -6.1      3.690      3.825
REMARK  Name = 
REMARK  1 active torsions:
REMARK  status: ('A' for Active; 'I' for Inactive)
REMARK    1  A    between atoms: C_1  and  C_2
REMARK                            x       y       z     vdW  Elec       q    Type
REMARK                         _______ _______ _______ _____ _____    ______ ____
ROOT
ATOM      1  C   UNL     1       6.796   4.321  15.423  0.00  0.00    +0.000 C 
ATOM      2  C   UNL     1       5.841   4.724  16.507  0.00  0.00    +0.000 A 
ATOM      3  N   UNL     1       5.159   5.822  16.399  0.00  0.00    +0.000 NA
ATOM      4  C   UNL     1       4.354   6.080  17.459  0.00  0.00    +0.000 A 
ATOM      5  S   UNL     1       3.351   7.454  17.531  0.00  0.00    +0.000 S 
ATOM      6  C   UNL     1       2.842   6.978  19.089  0.00  0.00    +0.000 A 
ATOM      7  N   UNL     1       1.952   7.797  19.791  0.00  0.00    +0.000 N 
ATOM      8  C   UNL     1       1.511   7.607  21.086  0.00  0.00    +0.000 A 
ATOM      9  C   UNL     1       0.697   8.675  21.379  0.00  0.00    +0.000 A 
ATOM     10  N   UNL     1       0.587   9.509  20.304  0.00  0.00    +0.000 NA
ATOM     11  C   UNL     1       1.334   8.960  19.371  0.00  0.00    +0.000 A 
ATOM     12  N   UNL     1       3.341   5.855  19.567  0.00  0.00    +0.000 NA
ATOM     13  C   UNL     1       4.201   5.329  18.608  0.00  0.00    +0.000 A 
ATOM     14  C   UNL     1       4.956   4.086  18.692  0.00  0.00    +0.000 A 
ATOM     15  O   UNL     1       4.913   3.293  19.625  0.00  0.00    +0.000 OA
ATOM     16  N   UNL     1       5.759   3.862  17.584  0.00  0.00    +0.000 N 
ATOM     17  H   UNL     1       6.290   3.003  17.602  0.00  0.00    +0.000 HD
ENDROOT
TORSDOF 0
ENDMDL
