MODEL 1
REMARK VINA RESULT:      -7.9      0.000      0.000
REMARK  Name = 
REMARK  4 active torsions:
REMARK  status: ('A' for Active; 'I' for Inactive)
REMARK    1  A    between atoms: C_1  and  C_2
REMARK    2  A    between atoms: C_12  and  C_14
REMARK    3  A    between atoms: C_16  and  N_17
REMARK    4  A    between atoms: C_21  and  N_22
REMARK                            x       y       z     vdW  Elec       q    Type
REMARK                         _______ _______ _______ _____ _____    ______ ____
ROOT
ATOM      1  C   UNL     1       2.809   5.054  20.341  0.00  0.00    +0.000 C 
ATOM      2  C   UNL     1       2.210   5.616  19.044  0.00  0.00    +0.000 C 
ATOM      3  C   UNL     1       1.722   4.525  18.096  0.00  0.00    +0.000 C 
ATOM      4  C   UNL     1       2.877   3.751  17.494  0.00  0.00    +0.000 C 
ATOM      5  C   UNL     1       3.872   4.700  16.812  0.00  0.00    +0.000 C 
ATOM      6  C   UNL     1       5.069   3.887  16.302  0.00  0.00    +0.000 C 
ATOM      7  C   UNL     1       6.103   4.772  15.623  0.00  0.00    +0.000 C 
ATOM      8  C   UNL     1       6.571   5.883  16.556  0.00  0.00    +0.000 C 
ATOM      9  C   UNL     1       5.390   6.716  17.053  0.00  0.00    +0.000 C 
ATOM     10  C   UNL     1       4.329   5.848  17.754  0.00  0.00    +0.000 C 
ATOM     11  N   UNL     1       3.146   6.536  18.349  0.00  0.00    +0.000 N 
ATOM     12  C   UNL     1       2.855   7.894  18.073  0.00  0.00    +0.000 C 
ATOM     13  O   UNL     1       3.495   8.612  17.314  0.00  0.00    +0.000 OA
ENDROOT
BRANCH  12  14
ATOM     14  C   UNL     1       1.688   8.564  18.719  0.00  0.00    +0.000 A 
ATOM     15  C   UNL     1       0.671   9.152  17.962  0.00  0.00    +0.000 A 
ATOM     16  C   UNL     1      -0.322   9.913  18.581  0.00  0.00    +0.000 A 
ATOM     17  C   UNL     1      -0.411   9.965  19.971  0.00  0.00    +0.000 A 
ATOM     18  C   UNL     1       0.538   9.270  20.736  0.00  0.00    +0.000 A 
ATOM     19  C   UNL     1       1.602   8.584  20.123  0.00  0.00    +0.000 A 
BRANCH  16  20
ATOM     20  N   UNL     1      -1.211  10.728  17.744  0.00  0.00    +0.000 N 
ATOM     21  O   UNL     1      -1.292  11.938  18.001  0.00  0.00    +0.000 OA
ATOM     22  O   UNL     1      -1.855  10.150  16.860  0.00  0.00    +0.000 OA
ENDBRANCH  16  20
BRANCH  18  23
ATOM     23  N   UNL     1       0.438   9.294  22.201  0.00  0.00    +0.000 N 
ATOM     24  O   UNL     1       1.475   9.525  22.838  0.00  0.00    +0.000 OA
ATOM     25  O   UNL     1      -0.670   9.083  22.708  0.00  0.00    +0.000 OA
ENDBRANCH  18  23
ENDBRANCH  12  14
TORSDOF 3
ENDMDL
MODEL 2
REMARK VINA RESULT:      -7.8      0.215      2.995
REMARK  Name = 
REMARK  4 active torsions:
REMARK  status: ('A' for Active; 'I' for Inactive)
REMARK    1  A    between atoms: C_1  and  C_2
REMARK    2  A    between atoms: C_12  and  C_14
REMARK    3  A    between atoms: C_16  and  N_17
REMARK    4  A    between atoms: C_21  and  N_22
REMARK                            x       y       z     vdW  Elec       q    Type
REMARK                         _______ _______ _______ _____ _____    ______ ____
ROOT
ATOM      1  C   UNL     1       2.753   5.152  20.444  0.00  0.00    +0.000 C 
ATOM      2  C   UNL     1       2.145   5.682  19.138  0.00  0.00    +0.000 C 
ATOM      3  C   UNL     1       1.581   4.573  18.254  0.00  0.00    +0.000 C 
ATOM      4  C   UNL     1       2.682   3.720  17.659  0.00  0.00    +0.000 C 
ATOM      5  C   UNL     1       3.700   4.590  16.909  0.00  0.00    +0.000 C 
ATOM      6  C   UNL     1       4.844   3.700  16.406  0.00  0.00    +0.000 C 
ATOM      7  C   UNL     1       5.897   4.505  15.660  0.00  0.00    +0.000 C 
ATOM      8  C   UNL     1       6.442   5.633  16.529  0.00  0.00    +0.000 C 
ATOM      9  C   UNL     1       5.314   6.542  17.018  0.00  0.00    +0.000 C 
ATOM     10  C   UNL     1       4.234   5.757  17.784  0.00  0.00    +0.000 C 
ATOM     11  N   UNL     1       3.101   6.526  18.378  0.00  0.00    +0.000 N 
ATOM     12  C   UNL     1       2.864   7.882  18.047  0.00  0.00    +0.000 C 
ATOM     13  O   UNL     1       3.515   8.534  17.239  0.00  0.00    +0.000 OA
ENDROOT
BRANCH  12  14
ATOM     14  C   UNL     1       1.748   8.633  18.692  0.00  0.00    +0.000 A 
ATOM     15  C   UNL     1       1.660   8.762  20.081  0.00  0.00    +0.000 A 
ATOM     16  C   UNL     1       0.526   9.324  20.669  0.00  0.00    +0.000 A 
ATOM     17  C   UNL     1      -0.461   9.914  19.881  0.00  0.00    +0.000 A 
ATOM     18  C   UNL     1      -0.312   9.898  18.486  0.00  0.00    +0.000 A 
ATOM     19  C   UNL     1       0.775   9.244  17.880  0.00  0.00    +0.000 A 
BRANCH  16  20
ATOM     20  N   UNL     1       0.350   9.203  22.121  0.00  0.00    +0.000 N 
ATOM     21  O   UNL     1       1.309   9.509  22.843  0.00  0.00    +0.000 OA
ATOM     22  O   UNL     1      -0.732   8.766  22.533  0.00  0.00    +0.000 OA
ENDBRANCH  16  20
BRANCH  18  23
ATOM     23  N   UNL     1      -1.332  10.541  17.648  0.00  0.00    +0.000 N 
ATOM     24  O   UNL     1      -1.897   9.837  16.798  0.00  0.00    +0.000 OA
ATOM     25  O   UNL     1      -1.565  11.741  17.838  0.00  0.00    +0.000 OA
ENDBRANCH  18  23
ENDBRANCH  12  14
TORSDOF 3
ENDMDL
MODEL 3
REMARK VINA RESULT:      -7.5      2.722      7.265
REMARK  Name = 
REMARK  4 active torsions:
REMARK  status: ('A' for Active; 'I' for Inactive)
REMARK    1  A    between atoms: C_1  and  C_2
REMARK    2  A    between atoms: C_12  and  C_14
REMARK    3  A    between atoms: C_16  and  N_17
REMARK    4  A    between atoms: C_21  and  N_22
REMARK                            x       y       z     vdW  Elec       q    Type
REMARK                         _______ _______ _______ _____ _____    ______ ____
ROOT
ATOM      1  C   UNL     1       2.585  10.236  17.950  0.00  0.00    +0.000 C 
ATOM      2  C   UNL     1       1.621   9.053  18.120  0.00  0.00    +0.000 C 
ATOM      3  C   UNL     1       0.195   9.385  17.691  0.00  0.00    +0.000 C 
ATOM      4  C   UNL     1      -0.465  10.353  18.651  0.00  0.00    +0.000 C 
ATOM      5  C   UNL     1      -0.408   9.818  20.089  0.00  0.00    +0.000 C 
ATOM      6  C   UNL     1      -1.000  10.869  21.037  0.00  0.00    +0.000 C 
ATOM      7  C   UNL     1      -0.963  10.405  22.485  0.00  0.00    +0.000 C 
ATOM      8  C   UNL     1       0.456  10.043  22.909  0.00  0.00    +0.000 C 
ATOM      9  C   UNL     1       1.049   8.979  21.987  0.00  0.00    +0.000 C 
ATOM     10  C   UNL     1       1.034   9.423  20.512  0.00  0.00    +0.000 C 
ATOM     11  N   UNL     1       1.643   8.509  19.501  0.00  0.00    +0.000 N 
ATOM     12  C   UNL     1       1.992   7.174  19.817  0.00  0.00    +0.000 C 
ATOM     13  O   UNL     1       1.805   6.633  20.900  0.00  0.00    +0.000 OA
ENDROOT
BRANCH  12  14
ATOM     14  C   UNL     1       2.639   6.301  18.794  0.00  0.00    +0.000 A 
ATOM     15  C   UNL     1       2.203   4.991  18.569  0.00  0.00    +0.000 A 
ATOM     16  C   UNL     1       2.923   4.140  17.730  0.00  0.00    +0.000 A 
ATOM     17  C   UNL     1       3.990   4.625  16.976  0.00  0.00    +0.000 A 
ATOM     18  C   UNL     1       4.352   5.975  17.107  0.00  0.00    +0.000 A 
ATOM     19  C   UNL     1       3.699   6.815  18.026  0.00  0.00    +0.000 A 
BRANCH  16  20
ATOM     20  N   UNL     1       2.593   2.710  17.723  0.00  0.00    +0.000 N 
ATOM     21  O   UNL     1       1.399   2.396  17.835  0.00  0.00    +0.000 OA
ATOM     22  O   UNL     1       3.530   1.906  17.645  0.00  0.00    +0.000 OA
ENDBRANCH  16  20
BRANCH  18  23
ATOM     23  N   UNL     1       5.458   6.504  16.298  0.00  0.00    +0.000 N 
ATOM     24  O   UNL     1       5.510   6.154  15.109  0.00  0.00    +0.000 OA
ATOM     25  O   UNL     1       6.266   7.260  16.848  0.00  0.00    +0.000 OA
ENDBRANCH  18  23
ENDBRANCH  12  14
TORSDOF 3
ENDMDL
MODEL 4
REMARK VINA RESULT:      -7.3      3.259      7.746
REMARK  Name = 
REMARK  4 active torsions:
REMARK  status: ('A' for Active; 'I' for Inactive)
REMARK    1  A    between atoms: C_1  and  C_2
REMARK    2  A    between atoms: C_12  and  C_14
REMARK    3  A    between atoms: C_16  and  N_17
REMARK    4  A    between atoms: C_21  and  N_22
REMARK                            x       y       z     vdW  Elec       q    Type
REMARK                         _______ _______ _______ _____ _____    ______ ____
ROOT
ATOM      1  C   UNL     1       1.571   4.603  18.136  0.00  0.00    +0.000 C 
ATOM      2  C   UNL     1       2.757   5.358  18.753  0.00  0.00    +0.000 C 
ATOM      3  C   UNL     1       2.701   5.405  20.277  0.00  0.00    +0.000 C 
ATOM      4  C   UNL     1       1.583   6.301  20.768  0.00  0.00    +0.000 C 
ATOM      5  C   UNL     1       1.701   7.704  20.155  0.00  0.00    +0.000 C 
ATOM      6  C   UNL     1       0.500   8.547  20.602  0.00  0.00    +0.000 C 
ATOM      7  C   UNL     1       0.549   9.950  20.019  0.00  0.00    +0.000 C 
ATOM      8  C   UNL     1       0.635   9.909  18.497  0.00  0.00    +0.000 C 
ATOM      9  C   UNL     1       1.842   9.092  18.038  0.00  0.00    +0.000 C 
ATOM     10  C   UNL     1       1.817   7.661  18.607  0.00  0.00    +0.000 C 
ATOM     11  N   UNL     1       2.902   6.725  18.190  0.00  0.00    +0.000 N 
ATOM     12  C   UNL     1       4.059   7.178  17.512  0.00  0.00    +0.000 C 
ATOM     13  O   UNL     1       4.304   8.347  17.238  0.00  0.00    +0.000 OA
ENDROOT
BRANCH  12  14
ATOM     14  C   UNL     1       5.105   6.209  17.071  0.00  0.00    +0.000 A 
ATOM     15  C   UNL     1       6.042   5.686  17.968  0.00  0.00    +0.000 A 
ATOM     16  C   UNL     1       7.109   4.913  17.507  0.00  0.00    +0.000 A 
ATOM     17  C   UNL     1       7.168   4.514  16.173  0.00  0.00    +0.000 A 
ATOM     18  C   UNL     1       6.158   4.935  15.295  0.00  0.00    +0.000 A 
ATOM     19  C   UNL     1       5.135   5.797  15.727  0.00  0.00    +0.000 A 
BRANCH  16  20
ATOM     20  N   UNL     1       8.209   4.606  18.429  0.00  0.00    +0.000 N 
ATOM     21  O   UNL     1       9.065   3.794  18.050  0.00  0.00    +0.000 OA
ATOM     22  O   UNL     1       8.193   5.147  19.541  0.00  0.00    +0.000 OA
ENDBRANCH  16  20
BRANCH  18  23
ATOM     23  N   UNL     1       6.196   4.497  13.893  0.00  0.00    +0.000 N 
ATOM     24  O   UNL     1       7.203   4.791  13.233  0.00  0.00    +0.000 OA
ATOM     25  O   UNL     1       5.225   3.866  13.458  0.00  0.00    +0.000 OA
ENDBRANCH  18  23
ENDBRANCH  12  14
TORSDOF 3
ENDMDL
MODEL 5
REMARK VINA RESULT:      -7.2      3.216      7.155
REMARK  Name = 
REMARK  4 active torsions:
REMARK  status: ('A' for Active; 'I' for Inactive)
REMARK    1  A    between atoms: C_1  and  C_2
REMARK    2  A    between atoms: C_12  and  C_14
REMARK    3  A    between atoms: C_16  and  N_17
REMARK    4  A    between atoms: C_21  and  N_22
REMARK                            x       y       z     vdW  Elec       q    Type
REMARK                         _______ _______ _______ _____ _____    ______ ____
ROOT
ATOM      1  C   UNL     1       1.676   4.624  18.034  0.00  0.00    +0.000 C 
ATOM      2  C   UNL     1       2.833   5.393  18.687  0.00  0.00    +0.000 C 
ATOM      3  C   UNL     1       2.784   5.354  20.211  0.00  0.00    +0.000 C 
ATOM      4  C   UNL     1       1.633   6.176  20.753  0.00  0.00    +0.000 C 
ATOM      5  C   UNL     1       1.691   7.614  20.217  0.00  0.00    +0.000 C 
ATOM      6  C   UNL     1       0.459   8.382  20.713  0.00  0.00    +0.000 C 
ATOM      7  C   UNL     1       0.448   9.816  20.206  0.00  0.00    +0.000 C 
ATOM      8  C   UNL     1       0.527   9.860  18.684  0.00  0.00    +0.000 C 
ATOM      9  C   UNL     1       1.764   9.118  18.178  0.00  0.00    +0.000 C 
ATOM     10  C   UNL     1       1.800   7.659  18.668  0.00  0.00    +0.000 C 
ATOM     11  N   UNL     1       2.920   6.792  18.198  0.00  0.00    +0.000 N 
ATOM     12  C   UNL     1       4.054   7.328  17.542  0.00  0.00    +0.000 C 
ATOM     13  O   UNL     1       4.250   8.519  17.331  0.00  0.00    +0.000 OA
ENDROOT
BRANCH  12  14
ATOM     14  C   UNL     1       5.137   6.428  17.046  0.00  0.00    +0.000 A 
ATOM     15  C   UNL     1       5.192   6.017  15.710  0.00  0.00    +0.000 A 
ATOM     16  C   UNL     1       6.111   5.048  15.305  0.00  0.00    +0.000 A 
ATOM     17  C   UNL     1       7.094   4.595  16.183  0.00  0.00    +0.000 A 
ATOM     18  C   UNL     1       7.118   5.101  17.492  0.00  0.00    +0.000 A 
ATOM     19  C   UNL     1       6.134   6.000  17.940  0.00  0.00    +0.000 A 
BRANCH  16  20
ATOM     20  N   UNL     1       5.967   4.453  13.972  0.00  0.00    +0.000 N 
ATOM     21  O   UNL     1       4.867   3.964  13.677  0.00  0.00    +0.000 OA
ATOM     22  O   UNL     1       6.964   4.441  13.239  0.00  0.00    +0.000 OA
ENDBRANCH  16  20
BRANCH  18  23
ATOM     23  N   UNL     1       8.166   4.650  18.417  0.00  0.00    +0.000 N 
ATOM     24  O   UNL     1       8.985   3.824  17.989  0.00  0.00    +0.000 OA
ATOM     25  O   UNL     1       8.168   5.119  19.561  0.00  0.00    +0.000 OA
ENDBRANCH  18  23
ENDBRANCH  12  14
TORSDOF 3
ENDMDL
MODEL 6
REMARK VINA RESULT:      -7.2      2.628      7.061
REMARK  Name = 
REMARK  4 active torsions:
REMARK  status: ('A' for Active; 'I' for Inactive)
REMARK    1  A    between atoms: C_1  and  C_2
REMARK    2  A    between atoms: C_12  and  C_14
REMARK    3  A    between atoms: C_16  and  N_17
REMARK    4  A    between atoms: C_21  and  N_22
REMARK                            x       y       z     vdW  Elec       q    Type
REMARK                         _______ _______ _______ _____ _____    ______ ____
ROOT
ATOM      1  C   UNL     1       2.502  10.406  17.865  0.00  0.00    +0.000 C 
ATOM      2  C   UNL     1       1.558   9.215  18.081  0.00  0.00    +0.000 C 
ATOM      3  C   UNL     1       0.150   9.472  17.552  0.00  0.00    +0.000 C 
ATOM      4  C   UNL     1      -0.584  10.496  18.393  0.00  0.00    +0.000 C 
ATOM      5  C   UNL     1      -0.593  10.081  19.871  0.00  0.00    +0.000 C 
ATOM      6  C   UNL     1      -1.260  11.189  20.696  0.00  0.00    +0.000 C 
ATOM      7  C   UNL     1      -1.292  10.846  22.178  0.00  0.00    +0.000 C 
ATOM      8  C   UNL     1       0.110  10.559  22.704  0.00  0.00    +0.000 C 
ATOM      9  C   UNL     1       0.777   9.440  21.905  0.00  0.00    +0.000 C 
ATOM     10  C   UNL     1       0.832   9.762  20.400  0.00  0.00    +0.000 C 
ATOM     11  N   UNL     1       1.516   8.786  19.502  0.00  0.00    +0.000 N 
ATOM     12  C   UNL     1       1.879   7.491  19.944  0.00  0.00    +0.000 C 
ATOM     13  O   UNL     1       1.645   7.035  21.058  0.00  0.00    +0.000 OA
ENDROOT
BRANCH  12  14
ATOM     14  C   UNL     1       2.601   6.555  19.033  0.00  0.00    +0.000 A 
ATOM     15  C   UNL     1       3.742   6.954  18.330  0.00  0.00    +0.000 A 
ATOM     16  C   UNL     1       4.303   6.122  17.362  0.00  0.00    +0.000 A 
ATOM     17  C   UNL     1       3.839   4.818  17.194  0.00  0.00    +0.000 A 
ATOM     18  C   UNL     1       2.772   4.372  17.989  0.00  0.00    +0.000 A 
ATOM     19  C   UNL     1       2.133   5.236  18.895  0.00  0.00    +0.000 A 
BRANCH  16  20
ATOM     20  N   UNL     1       5.327   6.671  16.465  0.00  0.00    +0.000 N 
ATOM     21  O   UNL     1       6.273   7.283  16.981  0.00  0.00    +0.000 OA
ATOM     22  O   UNL     1       5.164   6.522  15.248  0.00  0.00    +0.000 OA
ENDBRANCH  16  20
BRANCH  18  23
ATOM     23  N   UNL     1       2.293   2.992  17.840  0.00  0.00    +0.000 N 
ATOM     24  O   UNL     1       1.083   2.788  18.017  0.00  0.00    +0.000 OA
ATOM     25  O   UNL     1       3.121   2.121  17.549  0.00  0.00    +0.000 OA
ENDBRANCH  18  23
ENDBRANCH  12  14
TORSDOF 3
ENDMDL
MODEL 7
REMARK VINA RESULT:      -7.1      2.734      7.022
REMARK  Name = 
REMARK  4 active torsions:
REMARK  status: ('A' for Active; 'I' for Inactive)
REMARK    1  A    between atoms: C_1  and  C_2
REMARK    2  A    between atoms: C_12  and  C_14
REMARK    3  A    between atoms: C_16  and  N_17
REMARK    4  A    between atoms: C_21  and  N_22
REMARK                            x       y       z     vdW  Elec       q    Type
REMARK                         _______ _______ _______ _____ _____    ______ ____
ROOT
ATOM      1  C   UNL     1       1.992  10.433  17.916  0.00  0.00    +0.000 C 
ATOM      2  C   UNL     1       0.949   9.450  18.465  0.00  0.00    +0.000 C 
ATOM      3  C   UNL     1      -0.412   9.592  17.790  0.00  0.00    +0.000 C 
ATOM      4  C   UNL     1      -1.096  10.886  18.179  0.00  0.00    +0.000 C 
ATOM      5  C   UNL     1      -1.197  11.010  19.706  0.00  0.00    +0.000 C 
ATOM      6  C   UNL     1      -1.807  12.373  20.058  0.00  0.00    +0.000 C 
ATOM      7  C   UNL     1      -1.925  12.566  21.562  0.00  0.00    +0.000 C 
ATOM      8  C   UNL     1      -0.573  12.395  22.244  0.00  0.00    +0.000 C 
ATOM      9  C   UNL     1       0.036  11.031  21.922  0.00  0.00    +0.000 C 
ATOM     10  C   UNL     1       0.176  10.808  20.405  0.00  0.00    +0.000 C 
ATOM     11  N   UNL     1       0.816   9.542  19.941  0.00  0.00    +0.000 N 
ATOM     12  C   UNL     1       1.058   8.461  20.822  0.00  0.00    +0.000 C 
ATOM     13  O   UNL     1       0.744   8.433  22.007  0.00  0.00    +0.000 OA
ENDROOT
BRANCH  12  14
ATOM     14  C   UNL     1       1.739   7.226  20.335  0.00  0.00    +0.000 A 
ATOM     15  C   UNL     1       2.702   7.274  19.323  0.00  0.00    +0.000 A 
ATOM     16  C   UNL     1       3.206   6.096  18.769  0.00  0.00    +0.000 A 
ATOM     17  C   UNL     1       2.882   4.858  19.324  0.00  0.00    +0.000 A 
ATOM     18  C   UNL     1       2.012   4.817  20.423  0.00  0.00    +0.000 A 
ATOM     19  C   UNL     1       1.419   5.989  20.924  0.00  0.00    +0.000 A 
BRANCH  16  20
ATOM     20  N   UNL     1       4.006   6.178  17.542  0.00  0.00    +0.000 N 
ATOM     21  O   UNL     1       4.215   5.126  16.921  0.00  0.00    +0.000 OA
ATOM     22  O   UNL     1       4.456   7.286  17.224  0.00  0.00    +0.000 OA
ENDBRANCH  16  20
BRANCH  18  23
ATOM     23  N   UNL     1       1.686   3.521  21.033  0.00  0.00    +0.000 N 
ATOM     24  O   UNL     1       0.996   2.736  20.366  0.00  0.00    +0.000 OA
ATOM     25  O   UNL     1       2.116   3.292  22.169  0.00  0.00    +0.000 OA
ENDBRANCH  18  23
ENDBRANCH  12  14
TORSDOF 3
ENDMDL
MODEL 8
REMARK VINA RESULT:      -7.0      2.747      7.348
REMARK  Name = 
REMARK  4 active torsions:
REMARK  status: ('A' for Active; 'I' for Inactive)
REMARK    1  A    between atoms: C_1  and  C_2
REMARK    2  A    between atoms: C_12  and  C_14
REMARK    3  A    between atoms: C_16  and  N_17
REMARK    4  A    between atoms: C_21  and  N_22
REMARK                            x       y       z     vdW  Elec       q    Type
REMARK                         _______ _______ _______ _____ _____    ______ ____
ROOT
ATOM      1  C   UNL     1       2.089  10.334  17.881  0.00  0.00    +0.000 C 
ATOM      2  C   UNL     1       1.043   9.341  18.406  0.00  0.00    +0.000 C 
ATOM      3  C   UNL     1      -0.314   9.493  17.725  0.00  0.00    +0.000 C 
ATOM      4  C   UNL     1      -1.001  10.780  18.133  0.00  0.00    +0.000 C 
ATOM      5  C   UNL     1      -1.112  10.877  19.662  0.00  0.00    +0.000 C 
ATOM      6  C   UNL     1      -1.725  12.234  20.032  0.00  0.00    +0.000 C 
ATOM      7  C   UNL     1      -1.852  12.401  21.539  0.00  0.00    +0.000 C 
ATOM      8  C   UNL     1      -0.504  12.219  22.226  0.00  0.00    +0.000 C 
ATOM      9  C   UNL     1       0.108  10.861  21.884  0.00  0.00    +0.000 C 
ATOM     10  C   UNL     1       0.257  10.665  20.364  0.00  0.00    +0.000 C 
ATOM     11  N   UNL     1       0.902   9.408  19.883  0.00  0.00    +0.000 N 
ATOM     12  C   UNL     1       1.139   8.312  20.747  0.00  0.00    +0.000 C 
ATOM     13  O   UNL     1       0.818   8.264  21.929  0.00  0.00    +0.000 OA
ENDROOT
BRANCH  12  14
ATOM     14  C   UNL     1       1.825   7.086  20.243  0.00  0.00    +0.000 A 
ATOM     15  C   UNL     1       1.437   5.808  20.658  0.00  0.00    +0.000 A 
ATOM     16  C   UNL     1       2.194   4.690  20.305  0.00  0.00    +0.000 A 
ATOM     17  C   UNL     1       3.250   4.806  19.402  0.00  0.00    +0.000 A 
ATOM     18  C   UNL     1       3.562   6.073  18.885  0.00  0.00    +0.000 A 
ATOM     19  C   UNL     1       2.871   7.221  19.313  0.00  0.00    +0.000 A 
BRANCH  16  20
ATOM     20  N   UNL     1       1.916   3.411  20.969  0.00  0.00    +0.000 N 
ATOM     21  O   UNL     1       2.160   3.328  22.181  0.00  0.00    +0.000 OA
ATOM     22  O   UNL     1       1.490   2.483  20.270  0.00  0.00    +0.000 OA
ENDBRANCH  16  20
BRANCH  18  23
ATOM     23  N   UNL     1       4.654   6.202  17.912  0.00  0.00    +0.000 N 
ATOM     24  O   UNL     1       4.388   6.739  16.827  0.00  0.00    +0.000 OA
ATOM     25  O   UNL     1       5.767   5.769  18.232  0.00  0.00    +0.000 OA
ENDBRANCH  18  23
ENDBRANCH  12  14
TORSDOF 3
ENDMDL
MODEL 9
REMARK VINA RESULT:      -6.8      5.261      7.998
REMARK  Name = 
REMARK  4 active torsions:
REMARK  status: ('A' for Active; 'I' for Inactive)
REMARK    1  A    between atoms: C_1  and  C_2
REMARK    2  A    between atoms: C_12  and  C_14
REMARK    3  A    between atoms: C_16  and  N_17
REMARK    4  A    between atoms: C_21  and  N_22
REMARK                            x       y       z     vdW  Elec       q    Type
REMARK                         _______ _______ _______ _____ _____    ______ ____
ROOT
ATOM      1  C   UNL     1      -1.183  12.091  18.069  0.00  0.00    +0.000 C 
ATOM      2  C   UNL     1       0.196  12.266  18.719  0.00  0.00    +0.000 C 
ATOM      3  C   UNL     1       1.107  11.060  18.511  0.00  0.00    +0.000 C 
ATOM      4  C   UNL     1       0.634   9.860  19.305  0.00  0.00    +0.000 C 
ATOM      5  C   UNL     1       0.484  10.215  20.791  0.00  0.00    +0.000 C 
ATOM      6  C   UNL     1      -0.086   9.003  21.539  0.00  0.00    +0.000 C 
ATOM      7  C   UNL     1      -0.272   9.293  23.021  0.00  0.00    +0.000 C 
ATOM      8  C   UNL     1      -1.156  10.516  23.234  0.00  0.00    +0.000 C 
ATOM      9  C   UNL     1      -0.586  11.737  22.513  0.00  0.00    +0.000 C 
ATOM     10  C   UNL     1      -0.394  11.478  21.007  0.00  0.00    +0.000 C 
ATOM     11  N   UNL     1       0.095  12.606  20.161  0.00  0.00    +0.000 N 
ATOM     12  C   UNL     1       0.616  13.794  20.729  0.00  0.00    +0.000 C 
ATOM     13  O   UNL     1       0.752  14.001  21.929  0.00  0.00    +0.000 OA
ENDROOT
BRANCH  12  14
ATOM     14  C   UNL     1       1.057  14.919  19.854  0.00  0.00    +0.000 A 
ATOM     15  C   UNL     1       0.153  15.876  19.383  0.00  0.00    +0.000 A 
ATOM     16  C   UNL     1       0.552  16.821  18.437  0.00  0.00    +0.000 A 
ATOM     17  C   UNL     1       1.892  16.932  18.069  0.00  0.00    +0.000 A 
ATOM     18  C   UNL     1       2.825  16.052  18.638  0.00  0.00    +0.000 A 
ATOM     19  C   UNL     1       2.417  15.030  19.514  0.00  0.00    +0.000 A 
BRANCH  16  20
ATOM     20  N   UNL     1      -0.474  17.632  17.772  0.00  0.00    +0.000 N 
ATOM     21  O   UNL     1      -0.172  18.175  16.700  0.00  0.00    +0.000 OA
ATOM     22  O   UNL     1      -1.565  17.756  18.342  0.00  0.00    +0.000 OA
ENDBRANCH  16  20
BRANCH  18  23
ATOM     23  N   UNL     1       4.244  16.178  18.279  0.00  0.00    +0.000 N 
ATOM     24  O   UNL     1       4.831  17.209  18.636  0.00  0.00    +0.000 OA
ATOM     25  O   UNL     1       4.764  15.252  17.645  0.00  0.00    +0.000 OA
ENDBRANCH  18  23
ENDBRANCH  12  14
TORSDOF 3
ENDMDL
