MODEL 1
REMARK VINA RESULT:      -7.7      0.000      0.000
REMARK  Name = 
REMARK  3 active torsions:
REMARK  status: ('A' for Active; 'I' for Inactive)
REMARK    1  A    between atoms: C_1  and  C_2
REMARK    2  A    between atoms: C_4  and  C_5
REMARK    3  A    between atoms: C_5  and  N_6
REMARK                            x       y       z     vdW  Elec       q    Type
REMARK                         _______ _______ _______ _____ _____    ______ ____
ROOT
ATOM      1  N   UNL     1       4.843   5.244  17.953  0.00  0.00    +0.000 NA
ATOM      2  C   UNL     1       4.725   6.644  17.496  0.00  0.00    +0.000 C 
ATOM      3  C   UNL     1       3.275   7.156  17.667  0.00  0.00    +0.000 C 
ATOM      4  N   UNL     1       2.871   6.993  19.062  0.00  0.00    +0.000 N 
ATOM      5  C   UNL     1       1.967   7.861  19.617  0.00  0.00    +0.000 A 
ATOM      6  N   UNL     1       1.644   8.981  18.948  0.00  0.00    +0.000 NA
ATOM      7  C   UNL     1       0.864   9.891  19.574  0.00  0.00    +0.000 A 
ATOM      8  C   UNL     1       0.391   9.732  20.849  0.00  0.00    +0.000 A 
ATOM      9 BR   UNL     1      -0.651  11.033  21.706  0.00  0.00    +0.000 Br
ATOM     10  C   UNL     1       0.748   8.557  21.456  0.00  0.00    +0.000 A 
ATOM     11  N   UNL     1       1.521   7.621  20.864  0.00  0.00    +0.000 NA
ATOM     12  C   UNL     1       3.041   5.653  19.625  0.00  0.00    +0.000 C 
ATOM     13  C   UNL     1       4.494   5.170  19.386  0.00  0.00    +0.000 C 
ENDROOT
BRANCH   1  14
ATOM     14  C   UNL     1       6.144   4.633  17.632  0.00  0.00    +0.000 C 
BRANCH  14  18
ATOM     15  C   UNL     1       6.223   3.664  12.767  0.00  0.00    +0.000 C 
ATOM     16  C   UNL     1       6.490   4.186  14.124  0.00  0.00    +0.000 A 
ATOM     17  N   UNL     1       5.920   3.835  15.254  0.00  0.00    +0.000 NA
ATOM     18  C   UNL     1       6.529   4.645  16.185  0.00  0.00    +0.000 A 
ATOM     19  N   UNL     1       7.448   5.481  15.676  0.00  0.00    +0.000 NA
ATOM     20  N   UNL     1       7.408   5.165  14.375  0.00  0.00    +0.000 N 
ATOM     21  H   UNL     1       8.013   5.654  13.724  0.00  0.00    +0.000 HD
ENDBRANCH  14  18
ENDBRANCH   1  14
TORSDOF 2
ENDMDL
MODEL 2
REMARK VINA RESULT:      -7.1      0.622      1.003
REMARK  Name = 
REMARK  3 active torsions:
REMARK  status: ('A' for Active; 'I' for Inactive)
REMARK    1  A    between atoms: C_1  and  C_2
REMARK    2  A    between atoms: C_4  and  C_5
REMARK    3  A    between atoms: C_5  and  N_6
REMARK                            x       y       z     vdW  Elec       q    Type
REMARK                         _______ _______ _______ _____ _____    ______ ____
ROOT
ATOM      1  N   UNL     1       4.869   5.392  17.846  0.00  0.00    +0.000 NA
ATOM      2  C   UNL     1       4.700   6.791  17.404  0.00  0.00    +0.000 C 
ATOM      3  C   UNL     1       3.242   7.262  17.618  0.00  0.00    +0.000 C 
ATOM      4  N   UNL     1       2.881   7.078  19.023  0.00  0.00    +0.000 N 
ATOM      5  C   UNL     1       1.970   7.917  19.610  0.00  0.00    +0.000 A 
ATOM      6  N   UNL     1       1.599   9.033  18.959  0.00  0.00    +0.000 NA
ATOM      7  C   UNL     1       0.812   9.916  19.613  0.00  0.00    +0.000 A 
ATOM      8  C   UNL     1       0.379   9.736  20.900  0.00  0.00    +0.000 A 
ATOM      9 BR   UNL     1      -0.673  11.002  21.797  0.00  0.00    +0.000 Br
ATOM     10  C   UNL     1       0.785   8.567  21.487  0.00  0.00    +0.000 A 
ATOM     11  N   UNL     1       1.567   7.656  20.867  0.00  0.00    +0.000 NA
ATOM     12  C   UNL     1       3.104   5.739  19.571  0.00  0.00    +0.000 C 
ATOM     13  C   UNL     1       4.562   5.298  19.287  0.00  0.00    +0.000 C 
ENDROOT
BRANCH   1  14
ATOM     14  C   UNL     1       6.176   4.819  17.484  0.00  0.00    +0.000 C 
BRANCH  14  18
ATOM     15  C   UNL     1       7.902   5.251  12.853  0.00  0.00    +0.000 C 
ATOM     16  C   UNL     1       7.192   4.830  14.079  0.00  0.00    +0.000 A 
ATOM     17  N   UNL     1       7.215   5.397  15.264  0.00  0.00    +0.000 NA
ATOM     18  C   UNL     1       6.402   4.586  16.022  0.00  0.00    +0.000 A 
ATOM     19  N   UNL     1       5.881   3.543  15.356  0.00  0.00    +0.000 NA
ATOM     20  N   UNL     1       6.391   3.726  14.130  0.00  0.00    +0.000 N 
ATOM     21  H   UNL     1       6.166   3.067  13.393  0.00  0.00    +0.000 HD
ENDBRANCH  14  18
ENDBRANCH   1  14
TORSDOF 2
ENDMDL
MODEL 3
REMARK VINA RESULT:      -6.5      3.924      7.865
REMARK  Name = 
REMARK  3 active torsions:
REMARK  status: ('A' for Active; 'I' for Inactive)
REMARK    1  A    between atoms: C_1  and  C_2
REMARK    2  A    between atoms: C_4  and  C_5
REMARK    3  A    between atoms: C_5  and  N_6
REMARK                            x       y       z     vdW  Elec       q    Type
REMARK                         _______ _______ _______ _____ _____    ______ ____
ROOT
ATOM      1  N   UNL     1       0.918  10.098  20.001  0.00  0.00    +0.000 NA
ATOM      2  C   UNL     1       1.104   9.583  18.628  0.00  0.00    +0.000 C 
ATOM      3  C   UNL     1       2.247   8.543  18.583  0.00  0.00    +0.000 C 
ATOM      4  N   UNL     1       1.961   7.475  19.539  0.00  0.00    +0.000 N 
ATOM      5  C   UNL     1       2.410   6.202  19.298  0.00  0.00    +0.000 A 
ATOM      6  N   UNL     1       2.901   5.905  18.082  0.00  0.00    +0.000 NA
ATOM      7  C   UNL     1       3.205   4.614  17.820  0.00  0.00    +0.000 A 
ATOM      8  C   UNL     1       3.035   3.599  18.722  0.00  0.00    +0.000 A 
ATOM      9 BR   UNL     1       3.422   1.811  18.313  0.00  0.00    +0.000 Br
ATOM     10  C   UNL     1       2.548   3.986  19.943  0.00  0.00    +0.000 A 
ATOM     11  N   UNL     1       2.237   5.264  20.247  0.00  0.00    +0.000 NA
ATOM     12  C   UNL     1       1.674   7.903  20.909  0.00  0.00    +0.000 C 
ATOM     13  C   UNL     1       0.558   8.978  20.894  0.00  0.00    +0.000 C 
ENDROOT
BRANCH   1  14
ATOM     14  C   UNL     1      -0.014  11.235  20.078  0.00  0.00    +0.000 C 
BRANCH  14  18
ATOM     15  C   UNL     1      -3.572  10.734  16.657  0.00  0.00    +0.000 C 
ATOM     16  C   UNL     1      -2.416  11.185  17.459  0.00  0.00    +0.000 A 
ATOM     17  N   UNL     1      -1.894  10.614  18.522  0.00  0.00    +0.000 NA
ATOM     18  C   UNL     1      -0.866  11.460  18.867  0.00  0.00    +0.000 A 
ATOM     19  N   UNL     1      -0.732  12.528  18.064  0.00  0.00    +0.000 NA
ATOM     20  N   UNL     1      -1.718  12.325  17.180  0.00  0.00    +0.000 N 
ATOM     21  H   UNL     1      -1.865  12.995  16.433  0.00  0.00    +0.000 HD
ENDBRANCH  14  18
ENDBRANCH   1  14
TORSDOF 2
ENDMDL
MODEL 4
REMARK VINA RESULT:      -6.4      1.867      3.158
REMARK  Name = 
REMARK  3 active torsions:
REMARK  status: ('A' for Active; 'I' for Inactive)
REMARK    1  A    between atoms: C_1  and  C_2
REMARK    2  A    between atoms: C_4  and  C_5
REMARK    3  A    between atoms: C_5  and  N_6
REMARK                            x       y       z     vdW  Elec       q    Type
REMARK                         _______ _______ _______ _____ _____    ______ ____
ROOT
ATOM      1  N   UNL     1       2.883   6.139  19.293  0.00  0.00    +0.000 NA
ATOM      2  C   UNL     1       1.911   6.253  20.400  0.00  0.00    +0.000 C 
ATOM      3  C   UNL     1       1.772   7.723  20.858  0.00  0.00    +0.000 C 
ATOM      4  N   UNL     1       1.403   8.550  19.710  0.00  0.00    +0.000 N 
ATOM      5  C   UNL     1       0.646   9.678  19.896  0.00  0.00    +0.000 A 
ATOM      6  N   UNL     1       0.061   9.881  21.088  0.00  0.00    +0.000 NA
ATOM      7  C   UNL     1      -0.794  10.921  21.206  0.00  0.00    +0.000 A 
ATOM      8  C   UNL     1      -1.096  11.773  20.177  0.00  0.00    +0.000 A 
ATOM      9 BR   UNL     1      -2.322  13.179  20.359  0.00  0.00    +0.000 Br
ATOM     10  C   UNL     1      -0.445  11.511  19.001  0.00  0.00    +0.000 A 
ATOM     11  N   UNL     1       0.420  10.485  18.843  0.00  0.00    +0.000 NA
ATOM     12  C   UNL     1       2.264   8.430  18.533  0.00  0.00    +0.000 C 
ATOM     13  C   UNL     1       2.407   6.936  18.145  0.00  0.00    +0.000 C 
ENDROOT
BRANCH   1  14
ATOM     14  C   UNL     1       3.213   4.747  18.946  0.00  0.00    +0.000 C 
BRANCH  14  18
ATOM     15  C   UNL     1       6.990   4.542  15.736  0.00  0.00    +0.000 C 
ATOM     16  C   UNL     1       6.133   4.478  16.938  0.00  0.00    +0.000 A 
ATOM     17  N   UNL     1       4.842   4.708  17.026  0.00  0.00    +0.000 NA
ATOM     18  C   UNL     1       4.575   4.527  18.363  0.00  0.00    +0.000 A 
ATOM     19  N   UNL     1       5.645   4.197  19.103  0.00  0.00    +0.000 NA
ATOM     20  N   UNL     1       6.614   4.165  18.177  0.00  0.00    +0.000 N 
ATOM     21  H   UNL     1       7.562   3.940  18.455  0.00  0.00    +0.000 HD
ENDBRANCH  14  18
ENDBRANCH   1  14
TORSDOF 2
ENDMDL
MODEL 5
REMARK VINA RESULT:      -6.4      1.259      1.574
REMARK  Name = 
REMARK  3 active torsions:
REMARK  status: ('A' for Active; 'I' for Inactive)
REMARK    1  A    between atoms: C_1  and  C_2
REMARK    2  A    between atoms: C_4  and  C_5
REMARK    3  A    between atoms: C_5  and  N_6
REMARK                            x       y       z     vdW  Elec       q    Type
REMARK                         _______ _______ _______ _____ _____    ______ ____
ROOT
ATOM      1  N   UNL     1       3.409   4.583  18.911  0.00  0.00    +0.000 NA
ATOM      2  C   UNL     1       3.736   5.889  18.303  0.00  0.00    +0.000 C 
ATOM      3  C   UNL     1       2.505   6.824  18.317  0.00  0.00    +0.000 C 
ATOM      4  N   UNL     1       2.022   6.959  19.689  0.00  0.00    +0.000 N 
ATOM      5  C   UNL     1       1.405   8.118  20.086  0.00  0.00    +0.000 A 
ATOM      6  N   UNL     1       1.460   9.193  19.281  0.00  0.00    +0.000 NA
ATOM      7  C   UNL     1       0.971  10.362  19.752  0.00  0.00    +0.000 A 
ATOM      8  C   UNL     1       0.428  10.508  21.000  0.00  0.00    +0.000 A 
ATOM      9 BR   UNL     1      -0.200  12.153  21.641  0.00  0.00    +0.000 Br
ATOM     10  C   UNL     1       0.391   9.363  21.751  0.00  0.00    +0.000 A 
ATOM     11  N   UNL     1       0.864   8.174  21.317  0.00  0.00    +0.000 NA
ATOM     12  C   UNL     1       1.758   5.708  20.401  0.00  0.00    +0.000 C 
ATOM     13  C   UNL     1       3.004   4.791  20.317  0.00  0.00    +0.000 C 
ENDROOT
BRANCH   1  14
ATOM     14  C   UNL     1       4.474   3.579  18.749  0.00  0.00    +0.000 C 
BRANCH  14  18
ATOM     15  C   UNL     1       6.774   4.371  14.425  0.00  0.00    +0.000 C 
ATOM     16  C   UNL     1       6.431   4.234  15.856  0.00  0.00    +0.000 A 
ATOM     17  N   UNL     1       5.305   3.810  16.382  0.00  0.00    +0.000 NA
ATOM     18  C   UNL     1       5.528   3.908  17.736  0.00  0.00    +0.000 A 
ATOM     19  N   UNL     1       6.742   4.375  18.067  0.00  0.00    +0.000 NA
ATOM     20  N   UNL     1       7.294   4.566  16.861  0.00  0.00    +0.000 N 
ATOM     21  H   UNL     1       8.238   4.929  16.796  0.00  0.00    +0.000 HD
ENDBRANCH  14  18
ENDBRANCH   1  14
TORSDOF 2
ENDMDL
MODEL 6
REMARK VINA RESULT:      -6.3      2.688      3.401
REMARK  Name = 
REMARK  3 active torsions:
REMARK  status: ('A' for Active; 'I' for Inactive)
REMARK    1  A    between atoms: C_1  and  C_2
REMARK    2  A    between atoms: C_4  and  C_5
REMARK    3  A    between atoms: C_5  and  N_6
REMARK                            x       y       z     vdW  Elec       q    Type
REMARK                         _______ _______ _______ _____ _____    ______ ____
ROOT
ATOM      1  N   UNL     1       2.861   7.011  18.212  0.00  0.00    +0.000 NA
ATOM      2  C   UNL     1       2.771   8.428  17.803  0.00  0.00    +0.000 C 
ATOM      3  C   UNL     1       1.424   9.043  18.250  0.00  0.00    +0.000 C 
ATOM      4  N   UNL     1       1.277   8.874  19.694  0.00  0.00    +0.000 N 
ATOM      5  C   UNL     1       0.565   9.793  20.421  0.00  0.00    +0.000 A 
ATOM      6  N   UNL     1       0.213  10.952  19.838  0.00  0.00    +0.000 NA
ATOM      7  C   UNL     1      -0.361  11.901  20.611  0.00  0.00    +0.000 A 
ATOM      8  C   UNL     1      -0.598  11.745  21.950  0.00  0.00    +0.000 A 
ATOM      9 BR   UNL     1      -1.354  13.098  23.005  0.00  0.00    +0.000 Br
ATOM     10  C   UNL     1      -0.229  10.530  22.465  0.00  0.00    +0.000 A 
ATOM     11  N   UNL     1       0.343   9.554  21.727  0.00  0.00    +0.000 NA
ATOM     12  C   UNL     1       1.442   7.510  20.199  0.00  0.00    +0.000 C 
ATOM     13  C   UNL     1       2.782   6.925  19.684  0.00  0.00    +0.000 C 
ENDROOT
BRANCH   1  14
ATOM     14  C   UNL     1       4.026   6.312  17.644  0.00  0.00    +0.000 C 
BRANCH  14  18
ATOM     15  C   UNL     1       3.538   1.442  18.462  0.00  0.00    +0.000 C 
ATOM     16  C   UNL     1       3.991   2.849  18.444  0.00  0.00    +0.000 A 
ATOM     17  N   UNL     1       3.407   3.881  17.878  0.00  0.00    +0.000 NA
ATOM     18  C   UNL     1       4.262   4.923  18.154  0.00  0.00    +0.000 A 
ATOM     19  N   UNL     1       5.348   4.577  18.863  0.00  0.00    +0.000 NA
ATOM     20  N   UNL     1       5.148   3.264  19.039  0.00  0.00    +0.000 N 
ATOM     21  H   UNL     1       5.830   2.719  19.553  0.00  0.00    +0.000 HD
ENDBRANCH  14  18
ENDBRANCH   1  14
TORSDOF 2
ENDMDL
MODEL 7
REMARK VINA RESULT:      -6.2      2.592      3.909
REMARK  Name = 
REMARK  3 active torsions:
REMARK  status: ('A' for Active; 'I' for Inactive)
REMARK    1  A    between atoms: C_1  and  C_2
REMARK    2  A    between atoms: C_4  and  C_5
REMARK    3  A    between atoms: C_5  and  N_6
REMARK                            x       y       z     vdW  Elec       q    Type
REMARK                         _______ _______ _______ _____ _____    ______ ____
ROOT
ATOM      1  N   UNL     1       2.533   6.992  18.928  0.00  0.00    +0.000 NA
ATOM      2  C   UNL     1       1.848   6.630  20.186  0.00  0.00    +0.000 C 
ATOM      3  C   UNL     1       1.724   7.859  21.116  0.00  0.00    +0.000 C 
ATOM      4  N   UNL     1       1.036   8.933  20.401  0.00  0.00    +0.000 N 
ATOM      5  C   UNL     1       0.271   9.835  21.094  0.00  0.00    +0.000 A 
ATOM      6  N   UNL     1      -0.024   9.585  22.381  0.00  0.00    +0.000 NA
ATOM      7  C   UNL     1      -0.895  10.411  23.004  0.00  0.00    +0.000 A 
ATOM      8  C   UNL     1      -1.491  11.481  22.393  0.00  0.00    +0.000 A 
ATOM      9 BR   UNL     1      -2.730  12.581  23.269  0.00  0.00    +0.000 Br
ATOM     10  C   UNL     1      -1.124  11.680  21.088  0.00  0.00    +0.000 A 
ATOM     11  N   UNL     1      -0.255  10.881  20.431  0.00  0.00    +0.000 NA
ATOM     12  C   UNL     1       1.596   9.295  19.098  0.00  0.00    +0.000 C 
ATOM     13  C   UNL     1       1.743   8.023  18.225  0.00  0.00    +0.000 C 
ENDROOT
BRANCH   1  14
ATOM     14  C   UNL     1       2.863   5.829  18.087  0.00  0.00    +0.000 C 
BRANCH  14  18
ATOM     15  C   UNL     1       7.774   5.427  18.664  0.00  0.00    +0.000 C 
ATOM     16  C   UNL     1       6.326   5.165  18.534  0.00  0.00    +0.000 A 
ATOM     17  N   UNL     1       5.368   6.024  18.267  0.00  0.00    +0.000 NA
ATOM     18  C   UNL     1       4.230   5.250  18.285  0.00  0.00    +0.000 A 
ATOM     19  N   UNL     1       4.446   3.953  18.553  0.00  0.00    +0.000 NA
ATOM     20  N   UNL     1       5.778   3.925  18.699  0.00  0.00    +0.000 N 
ATOM     21  H   UNL     1       6.238   3.049  18.917  0.00  0.00    +0.000 HD
ENDBRANCH  14  18
ENDBRANCH   1  14
TORSDOF 2
ENDMDL
MODEL 8
REMARK VINA RESULT:      -6.2      0.802      1.706
REMARK  Name = 
REMARK  3 active torsions:
REMARK  status: ('A' for Active; 'I' for Inactive)
REMARK    1  A    between atoms: C_1  and  C_2
REMARK    2  A    between atoms: C_4  and  C_5
REMARK    3  A    between atoms: C_5  and  N_6
REMARK                            x       y       z     vdW  Elec       q    Type
REMARK                         _______ _______ _______ _____ _____    ______ ____
ROOT
ATOM      1  N   UNL     1       4.799   5.030  17.495  0.00  0.00    +0.000 NA
ATOM      2  C   UNL     1       3.806   4.650  18.521  0.00  0.00    +0.000 C 
ATOM      3  C   UNL     1       3.548   5.824  19.494  0.00  0.00    +0.000 C 
ATOM      4  N   UNL     1       3.131   6.997  18.730  0.00  0.00    +0.000 N 
ATOM      5  C   UNL     1       2.286   7.917  19.296  0.00  0.00    +0.000 A 
ATOM      6  N   UNL     1       1.671   7.612  20.451  0.00  0.00    +0.000 NA
ATOM      7  C   UNL     1       0.736   8.470  20.917  0.00  0.00    +0.000 A 
ATOM      8  C   UNL     1       0.382   9.626  20.274  0.00  0.00    +0.000 A 
ATOM      9 BR   UNL     1      -0.952  10.772  20.922  0.00  0.00    +0.000 Br
ATOM     10  C   UNL     1       1.067   9.875  19.114  0.00  0.00    +0.000 A 
ATOM     11  N   UNL     1       2.011   9.046  18.617  0.00  0.00    +0.000 NA
ATOM     12  C   UNL     1       4.013   7.391  17.631  0.00  0.00    +0.000 C 
ATOM     13  C   UNL     1       4.277   6.170  16.714  0.00  0.00    +0.000 C 
ENDROOT
BRANCH   1  14
ATOM     14  C   UNL     1       5.241   3.900  16.661  0.00  0.00    +0.000 C 
BRANCH  14  18
ATOM     15  C   UNL     1       7.148   4.322  12.101  0.00  0.00    +0.000 C 
ATOM     16  C   UNL     1       6.896   4.392  13.555  0.00  0.00    +0.000 A 
ATOM     17  N   UNL     1       5.914   3.845  14.235  0.00  0.00    +0.000 NA
ATOM     18  C   UNL     1       6.157   4.246  15.528  0.00  0.00    +0.000 A 
ATOM     19  N   UNL     1       7.245   5.018  15.674  0.00  0.00    +0.000 NA
ATOM     20  N   UNL     1       7.697   5.089  14.415  0.00  0.00    +0.000 N 
ATOM     21  H   UNL     1       8.532   5.626  14.213  0.00  0.00    +0.000 HD
ENDBRANCH  14  18
ENDBRANCH   1  14
TORSDOF 2
ENDMDL
MODEL 9
REMARK VINA RESULT:      -6.1      4.657     10.345
REMARK  Name = 
REMARK  3 active torsions:
REMARK  status: ('A' for Active; 'I' for Inactive)
REMARK    1  A    between atoms: C_1  and  C_2
REMARK    2  A    between atoms: C_4  and  C_5
REMARK    3  A    between atoms: C_5  and  N_6
REMARK                            x       y       z     vdW  Elec       q    Type
REMARK                         _______ _______ _______ _____ _____    ______ ____
ROOT
ATOM      1  N   UNL     1      -1.183  10.931  22.224  0.00  0.00    +0.000 NA
ATOM      2  C   UNL     1      -0.267   9.915  22.782  0.00  0.00    +0.000 C 
ATOM      3  C   UNL     1      -0.043   8.766  21.772  0.00  0.00    +0.000 C 
ATOM      4  N   UNL     1       0.450   9.323  20.514  0.00  0.00    +0.000 N 
ATOM      5  C   UNL     1       1.279   8.579  19.714  0.00  0.00    +0.000 A 
ATOM      6  N   UNL     1       1.811   7.446  20.205  0.00  0.00    +0.000 NA
ATOM      7  C   UNL     1       2.735   6.804  19.455  0.00  0.00    +0.000 A 
ATOM      8  C   UNL     1       3.157   7.247  18.231  0.00  0.00    +0.000 A 
ATOM      9 BR   UNL     1       4.474   6.359  17.236  0.00  0.00    +0.000 Br
ATOM     10  C   UNL     1       2.554   8.397  17.793  0.00  0.00    +0.000 A 
ATOM     11  N   UNL     1       1.624   9.066  18.508  0.00  0.00    +0.000 NA
ATOM     12  C   UNL     1      -0.350  10.403  19.935  0.00  0.00    +0.000 C 
ATOM     13  C   UNL     1      -0.585  11.503  21.000  0.00  0.00    +0.000 C 
ENDROOT
BRANCH   1  14
ATOM     14  C   UNL     1      -1.597  11.947  23.206  0.00  0.00    +0.000 C 
BRANCH  14  18
ATOM     15  C   UNL     1      -6.061  13.544  21.744  0.00  0.00    +0.000 C 
ATOM     16  C   UNL     1      -4.922  12.987  22.502  0.00  0.00    +0.000 A 
ATOM     17  N   UNL     1      -3.662  12.915  22.137  0.00  0.00    +0.000 NA
ATOM     18  C   UNL     1      -3.054  12.296  23.204  0.00  0.00    +0.000 A 
ATOM     19  N   UNL     1      -3.885  11.982  24.211  0.00  0.00    +0.000 NA
ATOM     20  N   UNL     1      -5.056  12.436  23.745  0.00  0.00    +0.000 N 
ATOM     21  H   UNL     1      -5.893  12.330  24.308  0.00  0.00    +0.000 HD
ENDBRANCH  14  18
ENDBRANCH   1  14
TORSDOF 2
ENDMDL
