MODEL 1
REMARK VINA RESULT:      -8.8      0.000      0.000
REMARK  Name = 
REMARK  9 active torsions:
REMARK  status: ('A' for Active; 'I' for Inactive)
REMARK    1  A    between atoms: C_1  and  O_2
REMARK    2  A    between atoms: O_2  and  C_3
REMARK    3  A    between atoms: C_5  and  C_6
REMARK    4  A    between atoms: N_10  and  C_11
REMARK    5  A    between atoms: C_14  and  C_15
REMARK    6  A    between atoms: C_28  and  O_29
REMARK    7  A    between atoms: O_29  and  C_30
REMARK    8  A    between atoms: C_31  and  O_32
REMARK    9  A    between atoms: O_32  and  C_33
REMARK                            x       y       z     vdW  Elec       q    Type
REMARK                         _______ _______ _______ _____ _____    ______ ____
ROOT
ATOM      1  C   UNL     1       3.547   3.470  18.113  0.00  0.00    +0.000 A 
ATOM      2  N   UNL     1       3.176   2.263  17.725  0.00  0.00    +0.000 NA
ATOM      3  N   UNL     1       1.989   1.997  18.357  0.00  0.00    +0.000 NA
ATOM      4  N   UNL     1       1.611   3.013  19.118  0.00  0.00    +0.000 NA
ATOM      5  N   UNL     1       2.501   4.002  18.873  0.00  0.00    +0.000 N 
ENDROOT
BRANCH   1   8
ATOM      6  C   UNL     1       6.149   5.363  16.173  0.00  0.00    +0.000 A 
ATOM      7  C   UNL     1       5.135   4.437  16.475  0.00  0.00    +0.000 A 
ATOM      8  C   UNL     1       4.813   4.138  17.795  0.00  0.00    +0.000 A 
ATOM      9  C   UNL     1       5.666   4.600  18.798  0.00  0.00    +0.000 A 
ATOM     10  C   UNL     1       6.679   5.532  18.533  0.00  0.00    +0.000 A 
ATOM     11  C   UNL     1       6.927   5.939  17.208  0.00  0.00    +0.000 A 
BRANCH   6  13
ATOM     12  C   UNL     1       6.621   4.634  13.952  0.00  0.00    +0.000 C 
ATOM     13  O   UNL     1       6.411   5.704  14.870  0.00  0.00    +0.000 OA
ENDBRANCH   6  13
BRANCH  10  14
ATOM     14  O   UNL     1       7.257   5.963  19.700  0.00  0.00    +0.000 OA
ATOM     15  C   UNL     1       8.409   5.310  20.205  0.00  0.00    +0.000 C 
ENDBRANCH  10  14
BRANCH  11  16
ATOM     16  O   UNL     1       7.929   6.857  17.045  0.00  0.00    +0.000 OA
ATOM     17  C   UNL     1       7.767   8.189  17.507  0.00  0.00    +0.000 C 
ENDBRANCH  11  16
ENDBRANCH   1   8
BRANCH   5  18
ATOM     18  C   UNL     1       2.313   5.318  19.369  0.00  0.00    +0.000 A 
ATOM     19  C   UNL     1       2.574   6.416  18.544  0.00  0.00    +0.000 A 
ATOM     20  C   UNL     1       2.148   7.696  18.939  0.00  0.00    +0.000 A 
ATOM     21  C   UNL     1       1.487   7.895  20.163  0.00  0.00    +0.000 A 
ATOM     22  C   UNL     1       1.331   6.792  21.016  0.00  0.00    +0.000 A 
ATOM     23  C   UNL     1       1.765   5.522  20.638  0.00  0.00    +0.000 A 
BRANCH  21  24
ATOM     24  C   UNL     1       0.877   9.171  20.574  0.00  0.00    +0.000 A 
ATOM     25  N   UNL     1       0.289   9.339  21.743  0.00  0.00    +0.000 NA
ATOM     26  C   UNL     1      -0.214  10.617  21.856  0.00  0.00    +0.000 A 
ATOM     27  C   UNL     1      -0.936  11.119  22.963  0.00  0.00    +0.000 A 
ATOM     28  C   UNL     1      -1.391  12.438  22.941  0.00  0.00    +0.000 A 
ATOM     29  C   UNL     1      -1.127  13.242  21.845  0.00  0.00    +0.000 A 
ATOM     30  F   UNL     1      -1.570  14.508  21.844  0.00  0.00    +0.000 F 
ATOM     31  C   UNL     1      -0.419  12.779  20.736  0.00  0.00    +0.000 A 
ATOM     32  C   UNL     1       0.024  11.447  20.763  0.00  0.00    +0.000 A 
ATOM     33  S   UNL     1       0.903  10.567  19.571  0.00  0.00    +0.000 S 
ENDBRANCH  21  24
ENDBRANCH   5  18
TORSDOF 6
ENDMDL
MODEL 2
REMARK VINA RESULT:      -8.7      0.756      1.146
REMARK  Name = 
REMARK  9 active torsions:
REMARK  status: ('A' for Active; 'I' for Inactive)
REMARK    1  A    between atoms: C_1  and  O_2
REMARK    2  A    between atoms: O_2  and  C_3
REMARK    3  A    between atoms: C_5  and  C_6
REMARK    4  A    between atoms: N_10  and  C_11
REMARK    5  A    between atoms: C_14  and  C_15
REMARK    6  A    between atoms: C_28  and  O_29
REMARK    7  A    between atoms: O_29  and  C_30
REMARK    8  A    between atoms: C_31  and  O_32
REMARK    9  A    between atoms: O_32  and  C_33
REMARK                            x       y       z     vdW  Elec       q    Type
REMARK                         _______ _______ _______ _____ _____    ______ ____
ROOT
ATOM      1  C   UNL     1       3.397   3.538  18.138  0.00  0.00    +0.000 A 
ATOM      2  N   UNL     1       2.986   2.359  17.706  0.00  0.00    +0.000 NA
ATOM      3  N   UNL     1       1.767   2.132  18.290  0.00  0.00    +0.000 NA
ATOM      4  N   UNL     1       1.409   3.146  19.064  0.00  0.00    +0.000 NA
ATOM      5  N   UNL     1       2.349   4.098  18.876  0.00  0.00    +0.000 N 
ENDROOT
BRANCH   1   8
ATOM      6  C   UNL     1       6.122   5.423  16.366  0.00  0.00    +0.000 A 
ATOM      7  C   UNL     1       5.054   4.536  16.589  0.00  0.00    +0.000 A 
ATOM      8  C   UNL     1       4.702   4.155  17.880  0.00  0.00    +0.000 A 
ATOM      9  C   UNL     1       5.569   4.490  18.921  0.00  0.00    +0.000 A 
ATOM     10  C   UNL     1       6.635   5.380  18.736  0.00  0.00    +0.000 A 
ATOM     11  C   UNL     1       6.919   5.873  17.447  0.00  0.00    +0.000 A 
BRANCH   6  13
ATOM     12  C   UNL     1       6.979   4.886  14.206  0.00  0.00    +0.000 C 
ATOM     13  O   UNL     1       6.416   5.848  15.095  0.00  0.00    +0.000 OA
ENDBRANCH   6  13
BRANCH  10  14
ATOM     14  O   UNL     1       7.224   5.686  19.936  0.00  0.00    +0.000 OA
ATOM     15  C   UNL     1       8.521   5.201  20.235  0.00  0.00    +0.000 C 
ENDBRANCH  10  14
BRANCH  11  16
ATOM     16  O   UNL     1       7.973   6.743  17.362  0.00  0.00    +0.000 OA
ATOM     17  C   UNL     1       7.793   8.122  17.643  0.00  0.00    +0.000 C 
ENDBRANCH  11  16
ENDBRANCH   1   8
BRANCH   5  18
ATOM     18  C   UNL     1       2.204   5.409  19.399  0.00  0.00    +0.000 A 
ATOM     19  C   UNL     1       2.506   6.516  18.599  0.00  0.00    +0.000 A 
ATOM     20  C   UNL     1       2.122   7.800  19.020  0.00  0.00    +0.000 A 
ATOM     21  C   UNL     1       1.460   7.995  20.245  0.00  0.00    +0.000 A 
ATOM     22  C   UNL     1       1.263   6.879  21.072  0.00  0.00    +0.000 A 
ATOM     23  C   UNL     1       1.656   5.604  20.670  0.00  0.00    +0.000 A 
BRANCH  21  24
ATOM     24  C   UNL     1       0.892   9.282  20.680  0.00  0.00    +0.000 A 
ATOM     25  N   UNL     1       0.992  10.385  19.963  0.00  0.00    +0.000 NA
ATOM     26  C   UNL     1       0.395  11.444  20.615  0.00  0.00    +0.000 A 
ATOM     27  C   UNL     1       0.355  12.777  20.145  0.00  0.00    +0.000 A 
ATOM     28  C   UNL     1      -0.283  13.753  20.914  0.00  0.00    +0.000 A 
ATOM     29  C   UNL     1      -0.872  13.409  22.118  0.00  0.00    +0.000 A 
ATOM     30  F   UNL     1      -1.482  14.360  22.840  0.00  0.00    +0.000 F 
ATOM     31  C   UNL     1      -0.849  12.103  22.611  0.00  0.00    +0.000 A 
ATOM     32  C   UNL     1      -0.195  11.133  21.837  0.00  0.00    +0.000 A 
ATOM     33  S   UNL     1       0.025   9.454  22.154  0.00  0.00    +0.000 S 
ENDBRANCH  21  24
ENDBRANCH   5  18
TORSDOF 6
ENDMDL
MODEL 3
REMARK VINA RESULT:      -8.6      5.781     10.416
REMARK  Name = 
REMARK  9 active torsions:
REMARK  status: ('A' for Active; 'I' for Inactive)
REMARK    1  A    between atoms: C_1  and  O_2
REMARK    2  A    between atoms: O_2  and  C_3
REMARK    3  A    between atoms: C_5  and  C_6
REMARK    4  A    between atoms: N_10  and  C_11
REMARK    5  A    between atoms: C_14  and  C_15
REMARK    6  A    between atoms: C_28  and  O_29
REMARK    7  A    between atoms: O_29  and  C_30
REMARK    8  A    between atoms: C_31  and  O_32
REMARK    9  A    between atoms: O_32  and  C_33
REMARK                            x       y       z     vdW  Elec       q    Type
REMARK                         _______ _______ _______ _____ _____    ______ ____
ROOT
ATOM      1  C   UNL     1      -0.429  12.732  19.187  0.00  0.00    +0.000 A 
ATOM      2  N   UNL     1      -0.080  14.004  19.106  0.00  0.00    +0.000 NA
ATOM      3  N   UNL     1       1.262  14.060  19.376  0.00  0.00    +0.000 NA
ATOM      4  N   UNL     1       1.755  12.853  19.611  0.00  0.00    +0.000 NA
ATOM      5  N   UNL     1       0.744  11.991  19.363  0.00  0.00    +0.000 N 
ENDROOT
BRANCH   1   8
ATOM      6  C   UNL     1      -4.136  12.397  19.701  0.00  0.00    +0.000 A 
ATOM      7  C   UNL     1      -2.776  12.625  19.975  0.00  0.00    +0.000 A 
ATOM      8  C   UNL     1      -1.789  12.193  19.095  0.00  0.00    +0.000 A 
ATOM      9  C   UNL     1      -2.165  11.335  18.060  0.00  0.00    +0.000 A 
ATOM     10  C   UNL     1      -3.511  11.096  17.752  0.00  0.00    +0.000 A 
ATOM     11  C   UNL     1      -4.523  11.640  18.568  0.00  0.00    +0.000 A 
BRANCH   6  13
ATOM     12  C   UNL     1      -5.326  14.298  20.512  0.00  0.00    +0.000 C 
ATOM     13  O   UNL     1      -5.104  12.890  20.539  0.00  0.00    +0.000 OA
ENDBRANCH   6  13
BRANCH  10  14
ATOM     14  O   UNL     1      -3.621  10.371  16.593  0.00  0.00    +0.000 OA
ATOM     15  C   UNL     1      -3.029  10.850  15.398  0.00  0.00    +0.000 C 
ENDBRANCH  10  14
BRANCH  11  16
ATOM     16  O   UNL     1      -5.808  11.361  18.188  0.00  0.00    +0.000 OA
ATOM     17  C   UNL     1      -6.551  12.297  17.422  0.00  0.00    +0.000 C 
ENDBRANCH  11  16
ENDBRANCH   1   8
BRANCH   5  18
ATOM     18  C   UNL     1       0.947  10.588  19.327  0.00  0.00    +0.000 A 
ATOM     19  C   UNL     1       1.482   9.990  18.181  0.00  0.00    +0.000 A 
ATOM     20  C   UNL     1       1.920   8.656  18.236  0.00  0.00    +0.000 A 
ATOM     21  C   UNL     1       1.806   7.903  19.417  0.00  0.00    +0.000 A 
ATOM     22  C   UNL     1       1.171   8.495  20.518  0.00  0.00    +0.000 A 
ATOM     23  C   UNL     1       0.719   9.813  20.467  0.00  0.00    +0.000 A 
BRANCH  21  24
ATOM     24  C   UNL     1       2.379   6.558  19.596  0.00  0.00    +0.000 A 
ATOM     25  N   UNL     1       1.889   5.680  20.451  0.00  0.00    +0.000 NA
ATOM     26  C   UNL     1       2.629   4.517  20.432  0.00  0.00    +0.000 A 
ATOM     27  C   UNL     1       2.402   3.388  21.252  0.00  0.00    +0.000 A 
ATOM     28  C   UNL     1       3.235   2.275  21.128  0.00  0.00    +0.000 A 
ATOM     29  C   UNL     1       4.267   2.283  20.206  0.00  0.00    +0.000 A 
ATOM     30  F   UNL     1       5.055   1.203  20.100  0.00  0.00    +0.000 F 
ATOM     31  C   UNL     1       4.520   3.381  19.382  0.00  0.00    +0.000 A 
ATOM     32  C   UNL     1       3.684   4.499  19.523  0.00  0.00    +0.000 A 
ATOM     33  S   UNL     1       3.726   6.003  18.684  0.00  0.00    +0.000 S 
ENDBRANCH  21  24
ENDBRANCH   5  18
TORSDOF 6
ENDMDL
MODEL 4
REMARK VINA RESULT:      -8.3      5.632     10.075
REMARK  Name = 
REMARK  9 active torsions:
REMARK  status: ('A' for Active; 'I' for Inactive)
REMARK    1  A    between atoms: C_1  and  O_2
REMARK    2  A    between atoms: O_2  and  C_3
REMARK    3  A    between atoms: C_5  and  C_6
REMARK    4  A    between atoms: N_10  and  C_11
REMARK    5  A    between atoms: C_14  and  C_15
REMARK    6  A    between atoms: C_28  and  O_29
REMARK    7  A    between atoms: O_29  and  C_30
REMARK    8  A    between atoms: C_31  and  O_32
REMARK    9  A    between atoms: O_32  and  C_33
REMARK                            x       y       z     vdW  Elec       q    Type
REMARK                         _______ _______ _______ _____ _____    ______ ____
ROOT
ATOM      1  C   UNL     1      -0.159  13.120  19.034  0.00  0.00    +0.000 A 
ATOM      2  N   UNL     1       0.263  14.372  19.020  0.00  0.00    +0.000 NA
ATOM      3  N   UNL     1       1.563  14.352  19.453  0.00  0.00    +0.000 NA
ATOM      4  N   UNL     1       1.960  13.118  19.724  0.00  0.00    +0.000 NA
ATOM      5  N   UNL     1       0.943  12.315  19.338  0.00  0.00    +0.000 N 
ENDROOT
BRANCH   1   8
ATOM      6  C   UNL     1      -2.983  11.106  17.589  0.00  0.00    +0.000 A 
ATOM      7  C   UNL     1      -1.783  11.834  17.674  0.00  0.00    +0.000 A 
ATOM      8  C   UNL     1      -1.524  12.656  18.766  0.00  0.00    +0.000 A 
ATOM      9  C   UNL     1      -2.570  12.915  19.653  0.00  0.00    +0.000 A 
ATOM     10  C   UNL     1      -3.774  12.200  19.603  0.00  0.00    +0.000 A 
ATOM     11  C   UNL     1      -3.992  11.269  18.569  0.00  0.00    +0.000 A 
BRANCH   6  13
ATOM     12  C   UNL     1      -2.872  10.718  15.238  0.00  0.00    +0.000 C 
ATOM     13  O   UNL     1      -3.198  10.244  16.543  0.00  0.00    +0.000 OA
ENDBRANCH   6  13
BRANCH  10  14
ATOM     14  O   UNL     1      -4.565  12.509  20.680  0.00  0.00    +0.000 OA
ATOM     15  C   UNL     1      -5.344  13.693  20.673  0.00  0.00    +0.000 C 
ENDBRANCH  10  14
BRANCH  11  16
ATOM     16  O   UNL     1      -5.192  10.610  18.605  0.00  0.00    +0.000 OA
ATOM     17  C   UNL     1      -6.350  11.192  18.028  0.00  0.00    +0.000 C 
ENDBRANCH  11  16
ENDBRANCH   1   8
BRANCH   5  18
ATOM     18  C   UNL     1       1.076  10.903  19.301  0.00  0.00    +0.000 A 
ATOM     19  C   UNL     1       1.579  10.280  18.155  0.00  0.00    +0.000 A 
ATOM     20  C   UNL     1       1.950   8.925  18.209  0.00  0.00    +0.000 A 
ATOM     21  C   UNL     1       1.799   8.178  19.390  0.00  0.00    +0.000 A 
ATOM     22  C   UNL     1       1.196   8.801  20.492  0.00  0.00    +0.000 A 
ATOM     23  C   UNL     1       0.810  10.140  20.442  0.00  0.00    +0.000 A 
BRANCH  21  24
ATOM     24  C   UNL     1       2.304   6.806  19.568  0.00  0.00    +0.000 A 
ATOM     25  N   UNL     1       1.819   5.978  20.473  0.00  0.00    +0.000 NA
ATOM     26  C   UNL     1       2.488   4.773  20.438  0.00  0.00    +0.000 A 
ATOM     27  C   UNL     1       2.248   3.677  21.298  0.00  0.00    +0.000 A 
ATOM     28  C   UNL     1       3.007   2.515  21.153  0.00  0.00    +0.000 A 
ATOM     29  C   UNL     1       3.979   2.443  20.170  0.00  0.00    +0.000 A 
ATOM     30  F   UNL     1       4.696   1.317  20.044  0.00  0.00    +0.000 F 
ATOM     31  C   UNL     1       4.244   3.506  19.306  0.00  0.00    +0.000 A 
ATOM     32  C   UNL     1       3.483   4.674  19.468  0.00  0.00    +0.000 A 
ATOM     33  S   UNL     1       3.559   6.154  18.591  0.00  0.00    +0.000 S 
ENDBRANCH  21  24
ENDBRANCH   5  18
TORSDOF 6
ENDMDL
MODEL 5
REMARK VINA RESULT:      -8.1      5.772     10.823
REMARK  Name = 
REMARK  9 active torsions:
REMARK  status: ('A' for Active; 'I' for Inactive)
REMARK    1  A    between atoms: C_1  and  O_2
REMARK    2  A    between atoms: O_2  and  C_3
REMARK    3  A    between atoms: C_5  and  C_6
REMARK    4  A    between atoms: N_10  and  C_11
REMARK    5  A    between atoms: C_14  and  C_15
REMARK    6  A    between atoms: C_28  and  O_29
REMARK    7  A    between atoms: O_29  and  C_30
REMARK    8  A    between atoms: C_31  and  O_32
REMARK    9  A    between atoms: O_32  and  C_33
REMARK                            x       y       z     vdW  Elec       q    Type
REMARK                         _______ _______ _______ _____ _____    ______ ____
ROOT
ATOM      1  C   UNL     1      -0.945  13.123  20.938  0.00  0.00    +0.000 A 
ATOM      2  N   UNL     1      -0.587  14.385  21.103  0.00  0.00    +0.000 NA
ATOM      3  N   UNL     1       0.748  14.376  21.410  0.00  0.00    +0.000 NA
ATOM      4  N   UNL     1       1.229  13.142  21.429  0.00  0.00    +0.000 NA
ATOM      5  N   UNL     1       0.219  12.351  21.001  0.00  0.00    +0.000 N 
ENDROOT
BRANCH   1   8
ATOM      6  C   UNL     1      -4.627  12.567  21.436  0.00  0.00    +0.000 A 
ATOM      7  C   UNL     1      -3.259  12.712  21.724  0.00  0.00    +0.000 A 
ATOM      8  C   UNL     1      -2.305  12.624  20.715  0.00  0.00    +0.000 A 
ATOM      9  C   UNL     1      -2.718  12.165  19.463  0.00  0.00    +0.000 A 
ATOM     10  C   UNL     1      -4.073  12.021  19.139  0.00  0.00    +0.000 A 
ATOM     11  C   UNL     1      -5.054  12.236  20.127  0.00  0.00    +0.000 A 
BRANCH   6  13
ATOM     12  C   UNL     1      -5.993  14.059  22.700  0.00  0.00    +0.000 C 
ATOM     13  O   UNL     1      -5.564  12.727  22.426  0.00  0.00    +0.000 OA
ENDBRANCH   6  13
BRANCH  10  14
ATOM     14  O   UNL     1      -4.225  11.734  17.807  0.00  0.00    +0.000 OA
ATOM     15  C   UNL     1      -3.107  11.328  17.037  0.00  0.00    +0.000 C 
ENDBRANCH  10  14
BRANCH  11  16
ATOM     16  O   UNL     1      -6.352  12.081  19.720  0.00  0.00    +0.000 OA
ATOM     17  C   UNL     1      -6.990  10.817  19.809  0.00  0.00    +0.000 C 
ENDBRANCH  11  16
ENDBRANCH   1   8
BRANCH   5  18
ATOM     18  C   UNL     1       0.416  10.976  20.710  0.00  0.00    +0.000 A 
ATOM     19  C   UNL     1       0.910  10.592  19.460  0.00  0.00    +0.000 A 
ATOM     20  C   UNL     1       1.344   9.270  19.263  0.00  0.00    +0.000 A 
ATOM     21  C   UNL     1       1.266   8.319  20.295  0.00  0.00    +0.000 A 
ATOM     22  C   UNL     1       0.671   8.706  21.505  0.00  0.00    +0.000 A 
ATOM     23  C   UNL     1       0.223  10.011  21.703  0.00  0.00    +0.000 A 
BRANCH  21  24
ATOM     24  C   UNL     1       1.840   6.965  20.213  0.00  0.00    +0.000 A 
ATOM     25  N   UNL     1       1.510   5.998  21.048  0.00  0.00    +0.000 NA
ATOM     26  C   UNL     1       2.212   4.847  20.761  0.00  0.00    +0.000 A 
ATOM     27  C   UNL     1       2.127   3.634  21.483  0.00  0.00    +0.000 A 
ATOM     28  C   UNL     1       2.902   2.545  21.081  0.00  0.00    +0.000 A 
ATOM     29  C   UNL     1       3.736   2.657  19.982  0.00  0.00    +0.000 A 
ATOM     30  F   UNL     1       4.470   1.598  19.610  0.00  0.00    +0.000 F 
ATOM     31  C   UNL     1       3.845   3.839  19.249  0.00  0.00    +0.000 A 
ATOM     32  C   UNL     1       3.071   4.932  19.668  0.00  0.00    +0.000 A 
ATOM     33  S   UNL     1       2.976   6.519  19.004  0.00  0.00    +0.000 S 
ENDBRANCH  21  24
ENDBRANCH   5  18
TORSDOF 6
ENDMDL
MODEL 6
REMARK VINA RESULT:      -8.0      5.462     10.205
REMARK  Name = 
REMARK  9 active torsions:
REMARK  status: ('A' for Active; 'I' for Inactive)
REMARK    1  A    between atoms: C_1  and  O_2
REMARK    2  A    between atoms: O_2  and  C_3
REMARK    3  A    between atoms: C_5  and  C_6
REMARK    4  A    between atoms: N_10  and  C_11
REMARK    5  A    between atoms: C_14  and  C_15
REMARK    6  A    between atoms: C_28  and  O_29
REMARK    7  A    between atoms: O_29  and  C_30
REMARK    8  A    between atoms: C_31  and  O_32
REMARK    9  A    between atoms: O_32  and  C_33
REMARK                            x       y       z     vdW  Elec       q    Type
REMARK                         _______ _______ _______ _____ _____    ______ ____
ROOT
ATOM      1  C   UNL     1      -0.136  12.934  20.057  0.00  0.00    +0.000 A 
ATOM      2  N   UNL     1       0.301  14.128  20.417  0.00  0.00    +0.000 NA
ATOM      3  N   UNL     1       1.514  13.934  21.025  0.00  0.00    +0.000 NA
ATOM      4  N   UNL     1       1.844  12.651  21.040  0.00  0.00    +0.000 NA
ATOM      5  N   UNL     1       0.891  12.021  20.317  0.00  0.00    +0.000 N 
ENDROOT
BRANCH   1   8
ATOM      6  C   UNL     1      -2.750  11.276  17.928  0.00  0.00    +0.000 A 
ATOM      7  C   UNL     1      -1.535  11.872  18.310  0.00  0.00    +0.000 A 
ATOM      8  C   UNL     1      -1.446  12.623  19.477  0.00  0.00    +0.000 A 
ATOM      9  C   UNL     1      -2.632  12.957  20.133  0.00  0.00    +0.000 A 
ATOM     10  C   UNL     1      -3.857  12.372  19.787  0.00  0.00    +0.000 A 
ATOM     11  C   UNL     1      -3.929  11.506  18.678  0.00  0.00    +0.000 A 
BRANCH   6  13
ATOM     12  C   UNL     1      -3.041  11.130  15.565  0.00  0.00    +0.000 C 
ATOM     13  O   UNL     1      -2.811  10.479  16.813  0.00  0.00    +0.000 OA
ENDBRANCH   6  13
BRANCH  10  14
ATOM     14  O   UNL     1      -4.831  12.721  20.686  0.00  0.00    +0.000 OA
ATOM     15  C   UNL     1      -4.522  12.820  22.066  0.00  0.00    +0.000 C 
ENDBRANCH  10  14
BRANCH  11  16
ATOM     16  O   UNL     1      -5.164  10.974  18.419  0.00  0.00    +0.000 OA
ATOM     17  C   UNL     1      -6.125  11.712  17.680  0.00  0.00    +0.000 C 
ENDBRANCH  11  16
ENDBRANCH   1   8
BRANCH   5  18
ATOM     18  C   UNL     1       1.007  10.655  19.953  0.00  0.00    +0.000 A 
ATOM     19  C   UNL     1       1.458  10.310  18.675  0.00  0.00    +0.000 A 
ATOM     20  C   UNL     1       1.816   8.979  18.402  0.00  0.00    +0.000 A 
ATOM     21  C   UNL     1       1.704   7.981  19.385  0.00  0.00    +0.000 A 
ATOM     22  C   UNL     1       1.152   8.336  20.625  0.00  0.00    +0.000 A 
ATOM     23  C   UNL     1       0.779   9.651  20.898  0.00  0.00    +0.000 A 
BRANCH  21  24
ATOM     24  C   UNL     1       2.201   6.604  19.224  0.00  0.00    +0.000 A 
ATOM     25  N   UNL     1       2.831   6.195  18.139  0.00  0.00    +0.000 NA
ATOM     26  C   UNL     1       3.163   4.861  18.244  0.00  0.00    +0.000 A 
ATOM     27  C   UNL     1       3.810   4.097  17.245  0.00  0.00    +0.000 A 
ATOM     28  C   UNL     1       4.083   2.750  17.486  0.00  0.00    +0.000 A 
ATOM     29  C   UNL     1       3.727   2.177  18.694  0.00  0.00    +0.000 A 
ATOM     30  F   UNL     1       4.000   0.882  18.908  0.00  0.00    +0.000 F 
ATOM     31  C   UNL     1       3.086   2.902  19.701  0.00  0.00    +0.000 A 
ATOM     32  C   UNL     1       2.806   4.252  19.444  0.00  0.00    +0.000 A 
ATOM     33  S   UNL     1       2.026   5.413  20.450  0.00  0.00    +0.000 S 
ENDBRANCH  21  24
ENDBRANCH   5  18
TORSDOF 6
ENDMDL
MODEL 7
REMARK VINA RESULT:      -8.0      5.757     10.555
REMARK  Name = 
REMARK  9 active torsions:
REMARK  status: ('A' for Active; 'I' for Inactive)
REMARK    1  A    between atoms: C_1  and  O_2
REMARK    2  A    between atoms: O_2  and  C_3
REMARK    3  A    between atoms: C_5  and  C_6
REMARK    4  A    between atoms: N_10  and  C_11
REMARK    5  A    between atoms: C_14  and  C_15
REMARK    6  A    between atoms: C_28  and  O_29
REMARK    7  A    between atoms: O_29  and  C_30
REMARK    8  A    between atoms: C_31  and  O_32
REMARK    9  A    between atoms: O_32  and  C_33
REMARK                            x       y       z     vdW  Elec       q    Type
REMARK                         _______ _______ _______ _____ _____    ______ ____
ROOT
ATOM      1  C   UNL     1      -0.400  12.751  19.064  0.00  0.00    +0.000 A 
ATOM      2  N   UNL     1      -0.025  14.019  19.078  0.00  0.00    +0.000 NA
ATOM      3  N   UNL     1       1.310  14.028  19.390  0.00  0.00    +0.000 NA
ATOM      4  N   UNL     1       1.772  12.799  19.558  0.00  0.00    +0.000 NA
ATOM      5  N   UNL     1       0.753  11.976  19.224  0.00  0.00    +0.000 N 
ENDROOT
BRANCH   1   8
ATOM      6  C   UNL     1      -4.089  12.302  19.616  0.00  0.00    +0.000 A 
ATOM      7  C   UNL     1      -2.719  12.461  19.888  0.00  0.00    +0.000 A 
ATOM      8  C   UNL     1      -1.766  12.247  18.896  0.00  0.00    +0.000 A 
ATOM      9  C   UNL     1      -2.185  11.657  17.703  0.00  0.00    +0.000 A 
ATOM     10  C   UNL     1      -3.542  11.495  17.396  0.00  0.00    +0.000 A 
ATOM     11  C   UNL     1      -4.521  11.831  18.352  0.00  0.00    +0.000 A 
BRANCH   6  13
ATOM     12  C   UNL     1      -5.460  13.938  20.681  0.00  0.00    +0.000 C 
ATOM     13  O   UNL     1      -5.024  12.584  20.581  0.00  0.00    +0.000 OA
ENDBRANCH   6  13
BRANCH  10  14
ATOM     14  O   UNL     1      -3.698  11.062  16.104  0.00  0.00    +0.000 OA
ATOM     15  C   UNL     1      -2.701  10.254  15.501  0.00  0.00    +0.000 C 
ENDBRANCH  10  14
BRANCH  11  16
ATOM     16  O   UNL     1      -5.820  11.649  17.963  0.00  0.00    +0.000 OA
ATOM     17  C   UNL     1      -6.518  12.677  17.277  0.00  0.00    +0.000 C 
ENDBRANCH  11  16
ENDBRANCH   1   8
BRANCH   5  18
ATOM     18  C   UNL     1       0.931  10.574  19.100  0.00  0.00    +0.000 A 
ATOM     19  C   UNL     1       1.300  10.024  17.869  0.00  0.00    +0.000 A 
ATOM     20  C   UNL     1       1.723   8.685  17.807  0.00  0.00    +0.000 A 
ATOM     21  C   UNL     1       1.758   7.881  18.959  0.00  0.00    +0.000 A 
ATOM     22  C   UNL     1       1.285   8.429  20.160  0.00  0.00    +0.000 A 
ATOM     23  C   UNL     1       0.848   9.751  20.227  0.00  0.00    +0.000 A 
BRANCH  21  24
ATOM     24  C   UNL     1       2.332   6.526  19.001  0.00  0.00    +0.000 A 
ATOM     25  N   UNL     1       2.917   5.965  17.960  0.00  0.00    +0.000 NA
ATOM     26  C   UNL     1       3.341   4.690  18.268  0.00  0.00    +0.000 A 
ATOM     27  C   UNL     1       3.972   3.797  17.372  0.00  0.00    +0.000 A 
ATOM     28  C   UNL     1       4.346   2.529  17.820  0.00  0.00    +0.000 A 
ATOM     29  C   UNL     1       4.104   2.161  19.133  0.00  0.00    +0.000 A 
ATOM     30  F   UNL     1       4.473   0.940  19.546  0.00  0.00    +0.000 F 
ATOM     31  C   UNL     1       3.482   3.017  20.043  0.00  0.00    +0.000 A 
ATOM     32  C   UNL     1       3.100   4.285  19.579  0.00  0.00    +0.000 A 
ATOM     33  S   UNL     1       2.312   5.562  20.424  0.00  0.00    +0.000 S 
ENDBRANCH  21  24
ENDBRANCH   5  18
TORSDOF 6
ENDMDL
MODEL 8
REMARK VINA RESULT:      -7.9      1.642      3.107
REMARK  Name = 
REMARK  9 active torsions:
REMARK  status: ('A' for Active; 'I' for Inactive)
REMARK    1  A    between atoms: C_1  and  O_2
REMARK    2  A    between atoms: O_2  and  C_3
REMARK    3  A    between atoms: C_5  and  C_6
REMARK    4  A    between atoms: N_10  and  C_11
REMARK    5  A    between atoms: C_14  and  C_15
REMARK    6  A    between atoms: C_28  and  O_29
REMARK    7  A    between atoms: O_29  and  C_30
REMARK    8  A    between atoms: C_31  and  O_32
REMARK    9  A    between atoms: O_32  and  C_33
REMARK                            x       y       z     vdW  Elec       q    Type
REMARK                         _______ _______ _______ _____ _____    ______ ____
ROOT
ATOM      1  C   UNL     1       3.916   3.617  17.683  0.00  0.00    +0.000 A 
ATOM      2  N   UNL     1       3.672   2.323  17.798  0.00  0.00    +0.000 NA
ATOM      3  N   UNL     1       2.840   2.177  18.877  0.00  0.00    +0.000 NA
ATOM      4  N   UNL     1       2.554   3.348  19.426  0.00  0.00    +0.000 NA
ATOM      5  N   UNL     1       3.105   4.276  18.612  0.00  0.00    +0.000 N 
ENDROOT
BRANCH   1   8
ATOM      6  C   UNL     1       6.843   5.604  16.417  0.00  0.00    +0.000 A 
ATOM      7  C   UNL     1       5.727   5.235  17.188  0.00  0.00    +0.000 A 
ATOM      8  C   UNL     1       4.850   4.249  16.746  0.00  0.00    +0.000 A 
ATOM      9  C   UNL     1       4.976   3.803  15.429  0.00  0.00    +0.000 A 
ATOM     10  C   UNL     1       6.082   4.142  14.638  0.00  0.00    +0.000 A 
ATOM     11  C   UNL     1       7.045   5.044  15.131  0.00  0.00    +0.000 A 
BRANCH   6  13
ATOM     12  C   UNL     1       7.208   7.763  17.362  0.00  0.00    +0.000 C 
ATOM     13  O   UNL     1       7.741   6.526  16.894  0.00  0.00    +0.000 OA
ENDBRANCH   6  13
BRANCH  10  14
ATOM     14  O   UNL     1       6.066   3.441  13.459  0.00  0.00    +0.000 OA
ATOM     15  C   UNL     1       4.977   3.583  12.564  0.00  0.00    +0.000 C 
ENDBRANCH  10  14
BRANCH  11  16
ATOM     16  O   UNL     1       8.095   5.310  14.294  0.00  0.00    +0.000 OA
ATOM     17  C   UNL     1       7.863   5.709  12.952  0.00  0.00    +0.000 C 
ENDBRANCH  11  16
ENDBRANCH   1   8
BRANCH   5  18
ATOM     18  C   UNL     1       2.848   5.662  18.774  0.00  0.00    +0.000 A 
ATOM     19  C   UNL     1       2.782   6.494  17.652  0.00  0.00    +0.000 A 
ATOM     20  C   UNL     1       2.279   7.800  17.786  0.00  0.00    +0.000 A 
ATOM     21  C   UNL     1       1.864   8.293  19.036  0.00  0.00    +0.000 A 
ATOM     22  C   UNL     1       2.039   7.471  20.159  0.00  0.00    +0.000 A 
ATOM     23  C   UNL     1       2.552   6.182  20.037  0.00  0.00    +0.000 A 
BRANCH  21  24
ATOM     24  C   UNL     1       1.187   9.586  19.228  0.00  0.00    +0.000 A 
ATOM     25  N   UNL     1       1.480  10.659  18.518  0.00  0.00    +0.000 NA
ATOM     26  C   UNL     1       0.715  11.733  18.920  0.00  0.00    +0.000 A 
ATOM     27  C   UNL     1       0.801  13.042  18.395  0.00  0.00    +0.000 A 
ATOM     28  C   UNL     1      -0.036  14.038  18.902  0.00  0.00    +0.000 A 
ATOM     29  C   UNL     1      -0.943  13.735  19.903  0.00  0.00    +0.000 A 
ATOM     30  F   UNL     1      -1.741  14.705  20.375  0.00  0.00    +0.000 F 
ATOM     31  C   UNL     1      -1.053  12.454  20.445  0.00  0.00    +0.000 A 
ATOM     32  C   UNL     1      -0.199  11.463  19.937  0.00  0.00    +0.000 A 
ATOM     33  S   UNL     1      -0.067   9.805  20.383  0.00  0.00    +0.000 S 
ENDBRANCH  21  24
ENDBRANCH   5  18
TORSDOF 6
ENDMDL
MODEL 9
REMARK VINA RESULT:      -7.9      1.685      2.319
REMARK  Name = 
REMARK  9 active torsions:
REMARK  status: ('A' for Active; 'I' for Inactive)
REMARK    1  A    between atoms: C_1  and  O_2
REMARK    2  A    between atoms: O_2  and  C_3
REMARK    3  A    between atoms: C_5  and  C_6
REMARK    4  A    between atoms: N_10  and  C_11
REMARK    5  A    between atoms: C_14  and  C_15
REMARK    6  A    between atoms: C_28  and  O_29
REMARK    7  A    between atoms: O_29  and  C_30
REMARK    8  A    between atoms: C_31  and  O_32
REMARK    9  A    between atoms: O_32  and  C_33
REMARK                            x       y       z     vdW  Elec       q    Type
REMARK                         _______ _______ _______ _____ _____    ______ ____
ROOT
ATOM      1  C   UNL     1       3.846   3.195  18.384  0.00  0.00    +0.000 A 
ATOM      2  N   UNL     1       3.734   1.879  18.348  0.00  0.00    +0.000 NA
ATOM      3  N   UNL     1       2.557   1.570  18.980  0.00  0.00    +0.000 NA
ATOM      4  N   UNL     1       1.934   2.662  19.396  0.00  0.00    +0.000 NA
ATOM      5  N   UNL     1       2.654   3.699  18.913  0.00  0.00    +0.000 N 
ENDROOT
BRANCH   1   8
ATOM      6  C   UNL     1       6.032   5.322  16.190  0.00  0.00    +0.000 A 
ATOM      7  C   UNL     1       5.153   4.302  16.593  0.00  0.00    +0.000 A 
ATOM      8  C   UNL     1       4.998   3.985  17.939  0.00  0.00    +0.000 A 
ATOM      9  C   UNL     1       5.897   4.542  18.850  0.00  0.00    +0.000 A 
ATOM     10  C   UNL     1       6.777   5.569  18.484  0.00  0.00    +0.000 A 
ATOM     11  C   UNL     1       6.847   5.985  17.140  0.00  0.00    +0.000 A 
BRANCH   6  13
ATOM     12  C   UNL     1       6.881   4.814  14.019  0.00  0.00    +0.000 C 
ATOM     13  O   UNL     1       6.124   5.676  14.867  0.00  0.00    +0.000 OA
ENDBRANCH   6  13
BRANCH  10  14
ATOM     14  O   UNL     1       7.423   6.068  19.586  0.00  0.00    +0.000 OA
ATOM     15  C   UNL     1       8.475   5.332  20.186  0.00  0.00    +0.000 C 
ENDBRANCH  10  14
BRANCH  11  16
ATOM     16  O   UNL     1       7.728   6.999  16.876  0.00  0.00    +0.000 OA
ATOM     17  C   UNL     1       7.591   8.258  17.516  0.00  0.00    +0.000 C 
ENDBRANCH  11  16
ENDBRANCH   1   8
BRANCH   5  18
ATOM     18  C   UNL     1       2.189   5.037  18.996  0.00  0.00    +0.000 A 
ATOM     19  C   UNL     1       1.990   5.629  20.247  0.00  0.00    +0.000 A 
ATOM     20  C   UNL     1       1.782   7.016  20.333  0.00  0.00    +0.000 A 
ATOM     21  C   UNL     1       1.745   7.816  19.178  0.00  0.00    +0.000 A 
ATOM     22  C   UNL     1       1.845   7.181  17.931  0.00  0.00    +0.000 A 
ATOM     23  C   UNL     1       2.035   5.803  17.837  0.00  0.00    +0.000 A 
BRANCH  21  24
ATOM     24  C   UNL     1       1.687   9.288  19.196  0.00  0.00    +0.000 A 
ATOM     25  N   UNL     1       2.274  10.037  18.282  0.00  0.00    +0.000 NA
ATOM     26  C   UNL     1       2.080  11.375  18.552  0.00  0.00    +0.000 A 
ATOM     27  C   UNL     1       2.606  12.448  17.797  0.00  0.00    +0.000 A 
ATOM     28  C   UNL     1       2.332  13.760  18.190  0.00  0.00    +0.000 A 
ATOM     29  C   UNL     1       1.547  13.997  19.305  0.00  0.00    +0.000 A 
ATOM     30  F   UNL     1       1.293  15.264  19.665  0.00  0.00    +0.000 F 
ATOM     31  C   UNL     1       1.015  12.962  20.074  0.00  0.00    +0.000 A 
ATOM     32  C   UNL     1       1.306  11.648  19.677  0.00  0.00    +0.000 A 
ATOM     33  S   UNL     1       0.824  10.160  20.400  0.00  0.00    +0.000 S 
ENDBRANCH  21  24
ENDBRANCH   5  18
TORSDOF 6
ENDMDL
