MODEL 1
REMARK VINA RESULT:      -7.2      0.000      0.000
REMARK  Name = 
REMARK  5 active torsions:
REMARK  status: ('A' for Active; 'I' for Inactive)
REMARK    1  A    between atoms: C_1  and  N_2
REMARK    2  A    between atoms: C_7  and  S_8
REMARK    3  A    between atoms: S_8  and  C_9
REMARK    4  A    between atoms: C_9  and  C_10
REMARK    5  A    between atoms: C_17  and  C_18
REMARK                            x       y       z     vdW  Elec       q    Type
REMARK                         _______ _______ _______ _____ _____    ______ ____
ROOT
ATOM      1  C   UNL     1       0.738  11.302  20.196  0.00  0.00    +0.000 C 
ATOM      2  N   UNL     1       1.439  10.097  19.750  0.00  0.00    +0.000 NA
ATOM      3  C   UNL     1       1.159   9.805  18.337  0.00  0.00    +0.000 C 
ATOM      4  C   UNL     1       2.057   8.660  17.841  0.00  0.00    +0.000 C 
ATOM      5  C   UNL     1       2.057   7.471  18.773  0.00  0.00    +0.000 A 
ATOM      6  N   UNL     1       2.523   6.280  18.283  0.00  0.00    +0.000 NA
ATOM      7  C   UNL     1       2.535   5.207  19.117  0.00  0.00    +0.000 A 
ATOM      8  C   UNL     1       2.099   5.298  20.444  0.00  0.00    +0.000 A 
ATOM      9  C   UNL     1       1.640   6.529  20.924  0.00  0.00    +0.000 A 
ATOM     10  C   UNL     1       1.619   7.641  20.087  0.00  0.00    +0.000 A 
ATOM     11  C   UNL     1       1.052   8.949  20.581  0.00  0.00    +0.000 C 
ENDROOT
BRANCH   8  12
ATOM     12  C   UNL     1       2.091   4.178  21.336  0.00  0.00    +0.000 C 
ATOM     13  N   UNL     1       2.054   3.237  22.019  0.00  0.00    +0.000 NA
ENDBRANCH   8  12
BRANCH   7  14
ATOM     14  S   UNL     1       2.962   3.604  18.430  0.00  0.00    +0.000 S 
BRANCH  14  15
ATOM     15  C   UNL     1       4.685   3.361  18.973  0.00  0.00    +0.000 C 
BRANCH  15  16
ATOM     16  C   UNL     1       5.598   4.339  18.252  0.00  0.00    +0.000 A 
ATOM     17  C   UNL     1       6.298   5.334  18.956  0.00  0.00    +0.000 A 
ATOM     18  C   UNL     1       7.174   6.201  18.292  0.00  0.00    +0.000 A 
ATOM     19  C   UNL     1       7.368   6.084  16.917  0.00  0.00    +0.000 A 
ATOM     20  C   UNL     1       6.685   5.097  16.211  0.00  0.00    +0.000 A 
ATOM     21 BR   UNL     1       6.957   4.925  14.347  0.00  0.00    +0.000 Br
ATOM     22  C   UNL     1       5.807   4.229  16.867  0.00  0.00    +0.000 A 
ENDBRANCH  15  16
ENDBRANCH  14  15
ENDBRANCH   7  14
TORSDOF 4
ENDMDL
MODEL 2
REMARK VINA RESULT:      -7.1      1.062      1.499
REMARK  Name = 
REMARK  5 active torsions:
REMARK  status: ('A' for Active; 'I' for Inactive)
REMARK    1  A    between atoms: C_1  and  N_2
REMARK    2  A    between atoms: C_7  and  S_8
REMARK    3  A    between atoms: S_8  and  C_9
REMARK    4  A    between atoms: C_9  and  C_10
REMARK    5  A    between atoms: C_17  and  C_18
REMARK                            x       y       z     vdW  Elec       q    Type
REMARK                         _______ _______ _______ _____ _____    ______ ____
ROOT
ATOM      1  C   UNL     1       0.756  11.215  20.195  0.00  0.00    +0.000 C 
ATOM      2  N   UNL     1       1.440  10.007  19.730  0.00  0.00    +0.000 NA
ATOM      3  C   UNL     1       1.112   9.709  18.329  0.00  0.00    +0.000 C 
ATOM      4  C   UNL     1       1.991   8.562  17.806  0.00  0.00    +0.000 C 
ATOM      5  C   UNL     1       2.022   7.376  18.742  0.00  0.00    +0.000 A 
ATOM      6  N   UNL     1       2.469   6.183  18.242  0.00  0.00    +0.000 NA
ATOM      7  C   UNL     1       2.509   5.113  19.079  0.00  0.00    +0.000 A 
ATOM      8  C   UNL     1       2.118   5.210  20.419  0.00  0.00    +0.000 A 
ATOM      9  C   UNL     1       1.677   6.443  20.910  0.00  0.00    +0.000 A 
ATOM     10  C   UNL     1       1.629   7.552  20.070  0.00  0.00    +0.000 A 
ATOM     11  C   UNL     1       1.080   8.863  20.578  0.00  0.00    +0.000 C 
ENDROOT
BRANCH   8  12
ATOM     12  C   UNL     1       2.140   4.093  21.315  0.00  0.00    +0.000 C 
ATOM     13  N   UNL     1       2.135   3.222  22.087  0.00  0.00    +0.000 NA
ENDBRANCH   8  12
BRANCH   7  14
ATOM     14  S   UNL     1       2.911   3.507  18.383  0.00  0.00    +0.000 S 
BRANCH  14  15
ATOM     15  C   UNL     1       4.712   3.382  18.631  0.00  0.00    +0.000 C 
BRANCH  15  16
ATOM     16  C   UNL     1       5.435   4.244  17.608  0.00  0.00    +0.000 A 
ATOM     17  C   UNL     1       5.393   3.934  16.237  0.00  0.00    +0.000 A 
ATOM     18  C   UNL     1       6.020   4.758  15.296  0.00  0.00    +0.000 A 
ATOM     19  C   UNL     1       6.693   5.906  15.708  0.00  0.00    +0.000 A 
ATOM     20  C   UNL     1       6.735   6.227  17.063  0.00  0.00    +0.000 A 
ATOM     21 BR   UNL     1       7.634   7.794  17.624  0.00  0.00    +0.000 Br
ATOM     22  C   UNL     1       6.112   5.407  18.008  0.00  0.00    +0.000 A 
ENDBRANCH  15  16
ENDBRANCH  14  15
ENDBRANCH   7  14
TORSDOF 4
ENDMDL
MODEL 3
REMARK VINA RESULT:      -6.8      1.720      2.007
REMARK  Name = 
REMARK  5 active torsions:
REMARK  status: ('A' for Active; 'I' for Inactive)
REMARK    1  A    between atoms: C_1  and  N_2
REMARK    2  A    between atoms: C_7  and  S_8
REMARK    3  A    between atoms: S_8  and  C_9
REMARK    4  A    between atoms: C_9  and  C_10
REMARK    5  A    between atoms: C_17  and  C_18
REMARK                            x       y       z     vdW  Elec       q    Type
REMARK                         _______ _______ _______ _____ _____    ______ ____
ROOT
ATOM      1  C   UNL     1       0.083  11.705  20.720  0.00  0.00    +0.000 C 
ATOM      2  N   UNL     1       0.970  10.703  20.125  0.00  0.00    +0.000 NA
ATOM      3  C   UNL     1       0.838  10.671  18.661  0.00  0.00    +0.000 C 
ATOM      4  C   UNL     1       1.914   9.761  18.048  0.00  0.00    +0.000 C 
ATOM      5  C   UNL     1       2.002   8.417  18.732  0.00  0.00    +0.000 A 
ATOM      6  N   UNL     1       2.657   7.410  18.073  0.00  0.00    +0.000 NA
ATOM      7  C   UNL     1       2.749   6.201  18.685  0.00  0.00    +0.000 A 
ATOM      8  C   UNL     1       2.207   5.972  19.954  0.00  0.00    +0.000 A 
ATOM      9  C   UNL     1       1.554   7.019  20.612  0.00  0.00    +0.000 A 
ATOM     10  C   UNL     1       1.448   8.267  20.005  0.00  0.00    +0.000 A 
ATOM     11  C   UNL     1       0.677   9.374  20.680  0.00  0.00    +0.000 C 
ENDROOT
BRANCH   8  12
ATOM     12  C   UNL     1       2.281   4.702  20.612  0.00  0.00    +0.000 C 
ATOM     13  N   UNL     1       2.283   3.661  21.133  0.00  0.00    +0.000 NA
ENDBRANCH   8  12
BRANCH   7  14
ATOM     14  S   UNL     1       3.435   4.829  17.751  0.00  0.00    +0.000 S 
BRANCH  14  15
ATOM     15  C   UNL     1       4.650   5.634  16.656  0.00  0.00    +0.000 C 
BRANCH  15  16
ATOM     16  C   UNL     1       5.889   6.016  17.452  0.00  0.00    +0.000 A 
ATOM     17  C   UNL     1       6.544   5.080  18.270  0.00  0.00    +0.000 A 
ATOM     18  C   UNL     1       7.711   5.424  18.962  0.00  0.00    +0.000 A 
ATOM     19  C   UNL     1       8.244   6.705  18.842  0.00  0.00    +0.000 A 
ATOM     20  C   UNL     1       7.608   7.639  18.027  0.00  0.00    +0.000 A 
ATOM     21 BR   UNL     1       8.338   9.375  17.850  0.00  0.00    +0.000 Br
ATOM     22  C   UNL     1       6.441   7.302  17.335  0.00  0.00    +0.000 A 
ENDBRANCH  15  16
ENDBRANCH  14  15
ENDBRANCH   7  14
TORSDOF 4
ENDMDL
MODEL 4
REMARK VINA RESULT:      -6.8      2.314      3.139
REMARK  Name = 
REMARK  5 active torsions:
REMARK  status: ('A' for Active; 'I' for Inactive)
REMARK    1  A    between atoms: C_1  and  N_2
REMARK    2  A    between atoms: C_7  and  S_8
REMARK    3  A    between atoms: S_8  and  C_9
REMARK    4  A    between atoms: C_9  and  C_10
REMARK    5  A    between atoms: C_17  and  C_18
REMARK                            x       y       z     vdW  Elec       q    Type
REMARK                         _______ _______ _______ _____ _____    ______ ____
ROOT
ATOM      1  C   UNL     1       0.538   9.388  20.984  0.00  0.00    +0.000 C 
ATOM      2  N   UNL     1       1.570   8.721  20.188  0.00  0.00    +0.000 NA
ATOM      3  C   UNL     1       1.315   8.867  18.747  0.00  0.00    +0.000 C 
ATOM      4  C   UNL     1       2.509   8.337  17.937  0.00  0.00    +0.000 C 
ATOM      5  C   UNL     1       2.962   6.969  18.391  0.00  0.00    +0.000 A 
ATOM      6  N   UNL     1       3.765   6.252  17.545  0.00  0.00    +0.000 NA
ATOM      7  C   UNL     1       4.184   5.024  17.949  0.00  0.00    +0.000 A 
ATOM      8  C   UNL     1       3.826   4.494  19.193  0.00  0.00    +0.000 A 
ATOM      9  C   UNL     1       3.016   5.252  20.045  0.00  0.00    +0.000 A 
ATOM     10  C   UNL     1       2.575   6.512  19.652  0.00  0.00    +0.000 A 
ATOM     11  C   UNL     1       1.638   7.296  20.538  0.00  0.00    +0.000 C 
ENDROOT
BRANCH   8  12
ATOM     12  C   UNL     1       4.246   3.198  19.634  0.00  0.00    +0.000 C 
ATOM     13  N   UNL     1       4.631   2.147  19.951  0.00  0.00    +0.000 NA
ENDBRANCH   8  12
BRANCH   7  14
ATOM     14  S   UNL     1       5.075   4.003  16.770  0.00  0.00    +0.000 S 
BRANCH  14  15
ATOM     15  C   UNL     1       6.364   5.124  16.135  0.00  0.00    +0.000 C 
BRANCH  15  16
ATOM     16  C   UNL     1       6.587   4.868  14.653  0.00  0.00    +0.000 A 
ATOM     17  C   UNL     1       7.738   5.340  13.999  0.00  0.00    +0.000 A 
ATOM     18  C   UNL     1       7.961   5.059  12.646  0.00  0.00    +0.000 A 
ATOM     19  C   UNL     1       7.040   4.300  11.928  0.00  0.00    +0.000 A 
ATOM     20  C   UNL     1       5.900   3.820  12.568  0.00  0.00    +0.000 A 
ATOM     21 BR   UNL     1       4.656   2.774  11.599  0.00  0.00    +0.000 Br
ATOM     22  C   UNL     1       5.671   4.098  13.918  0.00  0.00    +0.000 A 
ENDBRANCH  15  16
ENDBRANCH  14  15
ENDBRANCH   7  14
TORSDOF 4
ENDMDL
MODEL 5
REMARK VINA RESULT:      -6.7      3.513      7.138
REMARK  Name = 
REMARK  5 active torsions:
REMARK  status: ('A' for Active; 'I' for Inactive)
REMARK    1  A    between atoms: C_1  and  N_2
REMARK    2  A    between atoms: C_7  and  S_8
REMARK    3  A    between atoms: S_8  and  C_9
REMARK    4  A    between atoms: C_9  and  C_10
REMARK    5  A    between atoms: C_17  and  C_18
REMARK                            x       y       z     vdW  Elec       q    Type
REMARK                         _______ _______ _______ _____ _____    ______ ____
ROOT
ATOM      1  C   UNL     1       6.265   3.996  14.320  0.00  0.00    +0.000 C 
ATOM      2  N   UNL     1       5.347   4.747  15.179  0.00  0.00    +0.000 NA
ATOM      3  C   UNL     1       6.002   5.927  15.761  0.00  0.00    +0.000 C 
ATOM      4  C   UNL     1       4.972   6.803  16.492  0.00  0.00    +0.000 C 
ATOM      5  C   UNL     1       4.090   6.010  17.427  0.00  0.00    +0.000 A 
ATOM      6  N   UNL     1       3.387   6.702  18.377  0.00  0.00    +0.000 NA
ATOM      7  C   UNL     1       2.584   5.998  19.217  0.00  0.00    +0.000 A 
ATOM      8  C   UNL     1       2.456   4.608  19.124  0.00  0.00    +0.000 A 
ATOM      9  C   UNL     1       3.174   3.925  18.137  0.00  0.00    +0.000 A 
ATOM     10  C   UNL     1       4.003   4.626  17.265  0.00  0.00    +0.000 A 
ATOM     11  C   UNL     1       4.837   3.882  16.252  0.00  0.00    +0.000 C 
ENDROOT
BRANCH   8  12
ATOM     12  C   UNL     1       1.625   3.845  20.006  0.00  0.00    +0.000 C 
ATOM     13  N   UNL     1       0.960   3.177  20.688  0.00  0.00    +0.000 NA
ENDBRANCH   8  12
BRANCH   7  14
ATOM     14  S   UNL     1       1.811   6.873  20.582  0.00  0.00    +0.000 S 
BRANCH  14  15
ATOM     15  C   UNL     1       1.437   8.510  19.873  0.00  0.00    +0.000 C 
BRANCH  15  16
ATOM     16  C   UNL     1       0.644   9.337  20.872  0.00  0.00    +0.000 A 
ATOM     17  C   UNL     1       0.386   8.858  22.169  0.00  0.00    +0.000 A 
ATOM     18  C   UNL     1      -0.302   9.645  23.100  0.00  0.00    +0.000 A 
ATOM     19  C   UNL     1      -0.737  10.922  22.752  0.00  0.00    +0.000 A 
ATOM     20  C   UNL     1      -0.480  11.409  21.473  0.00  0.00    +0.000 A 
ATOM     21 BR   UNL     1      -1.056  13.149  21.004  0.00  0.00    +0.000 Br
ATOM     22  C   UNL     1       0.205  10.628  20.538  0.00  0.00    +0.000 A 
ENDBRANCH  15  16
ENDBRANCH  14  15
ENDBRANCH   7  14
TORSDOF 4
ENDMDL
MODEL 6
REMARK VINA RESULT:      -6.5      2.890      4.726
REMARK  Name = 
REMARK  5 active torsions:
REMARK  status: ('A' for Active; 'I' for Inactive)
REMARK    1  A    between atoms: C_1  and  N_2
REMARK    2  A    between atoms: C_7  and  S_8
REMARK    3  A    between atoms: S_8  and  C_9
REMARK    4  A    between atoms: C_9  and  C_10
REMARK    5  A    between atoms: C_17  and  C_18
REMARK                            x       y       z     vdW  Elec       q    Type
REMARK                         _______ _______ _______ _____ _____    ______ ____
ROOT
ATOM      1  C   UNL     1      -0.407  10.504  19.434  0.00  0.00    +0.000 C 
ATOM      2  N   UNL     1       0.371   9.264  19.415  0.00  0.00    +0.000 NA
ATOM      3  C   UNL     1       0.961   8.980  20.731  0.00  0.00    +0.000 C 
ATOM      4  C   UNL     1       1.600   7.582  20.740  0.00  0.00    +0.000 C 
ATOM      5  C   UNL     1       2.498   7.342  19.549  0.00  0.00    +0.000 A 
ATOM      6  N   UNL     1       3.381   6.298  19.619  0.00  0.00    +0.000 NA
ATOM      7  C   UNL     1       4.186   6.070  18.548  0.00  0.00    +0.000 A 
ATOM      8  C   UNL     1       4.123   6.859  17.395  0.00  0.00    +0.000 A 
ATOM      9  C   UNL     1       3.204   7.912  17.343  0.00  0.00    +0.000 A 
ATOM     10  C   UNL     1       2.369   8.164  18.427  0.00  0.00    +0.000 A 
ATOM     11  C   UNL     1       1.431   9.346  18.402  0.00  0.00    +0.000 C 
ENDROOT
BRANCH   8  12
ATOM     12  C   UNL     1       4.971   6.644  16.261  0.00  0.00    +0.000 C 
ATOM     13  N   UNL     1       5.628   6.512  15.310  0.00  0.00    +0.000 NA
ENDBRANCH   8  12
BRANCH   7  14
ATOM     14  S   UNL     1       5.475   4.828  18.707  0.00  0.00    +0.000 S 
BRANCH  14  15
ATOM     15  C   UNL     1       4.718   3.343  17.970  0.00  0.00    +0.000 C 
BRANCH  15  16
ATOM     16  C   UNL     1       3.299   3.173  18.491  0.00  0.00    +0.000 A 
ATOM     17  C   UNL     1       2.198   3.189  17.617  0.00  0.00    +0.000 A 
ATOM     18  C   UNL     1       0.899   2.983  18.097  0.00  0.00    +0.000 A 
ATOM     19  C   UNL     1       0.681   2.755  19.454  0.00  0.00    +0.000 A 
ATOM     20  C   UNL     1       1.766   2.730  20.327  0.00  0.00    +0.000 A 
ATOM     21 BR   UNL     1       1.476   2.404  22.168  0.00  0.00    +0.000 Br
ATOM     22  C   UNL     1       3.065   2.936  19.855  0.00  0.00    +0.000 A 
ENDBRANCH  15  16
ENDBRANCH  14  15
ENDBRANCH   7  14
TORSDOF 4
ENDMDL
MODEL 7
REMARK VINA RESULT:      -6.5      1.220      1.604
REMARK  Name = 
REMARK  5 active torsions:
REMARK  status: ('A' for Active; 'I' for Inactive)
REMARK    1  A    between atoms: C_1  and  N_2
REMARK    2  A    between atoms: C_7  and  S_8
REMARK    3  A    between atoms: S_8  and  C_9
REMARK    4  A    between atoms: C_9  and  C_10
REMARK    5  A    between atoms: C_17  and  C_18
REMARK                            x       y       z     vdW  Elec       q    Type
REMARK                         _______ _______ _______ _____ _____    ______ ____
ROOT
ATOM      1  C   UNL     1       0.542  10.814  21.070  0.00  0.00    +0.000 C 
ATOM      2  N   UNL     1       1.311   9.800  20.346  0.00  0.00    +0.000 NA
ATOM      3  C   UNL     1       0.987   9.803  18.913  0.00  0.00    +0.000 C 
ATOM      4  C   UNL     1       1.945   8.877  18.146  0.00  0.00    +0.000 C 
ATOM      5  C   UNL     1       2.081   7.517  18.789  0.00  0.00    +0.000 A 
ATOM      6  N   UNL     1       2.613   6.506  18.033  0.00  0.00    +0.000 NA
ATOM      7  C   UNL     1       2.747   5.282  18.606  0.00  0.00    +0.000 A 
ATOM      8  C   UNL     1       2.370   5.041  19.932  0.00  0.00    +0.000 A 
ATOM      9  C   UNL     1       1.841   6.092  20.688  0.00  0.00    +0.000 A 
ATOM     10  C   UNL     1       1.695   7.355  20.121  0.00  0.00    +0.000 A 
ATOM     11  C   UNL     1       1.053   8.469  20.911  0.00  0.00    +0.000 C 
ENDROOT
BRANCH   8  12
ATOM     12  C   UNL     1       2.491   3.756  20.551  0.00  0.00    +0.000 C 
ATOM     13  N   UNL     1       2.553   2.689  21.012  0.00  0.00    +0.000 NA
ENDBRANCH   8  12
BRANCH   7  14
ATOM     14  S   UNL     1       3.263   3.912  17.565  0.00  0.00    +0.000 S 
BRANCH  14  15
ATOM     15  C   UNL     1       5.071   3.871  17.790  0.00  0.00    +0.000 C 
BRANCH  15  16
ATOM     16  C   UNL     1       5.762   4.242  16.488  0.00  0.00    +0.000 A 
ATOM     17  C   UNL     1       6.956   4.984  16.484  0.00  0.00    +0.000 A 
ATOM     18  C   UNL     1       7.613   5.280  15.284  0.00  0.00    +0.000 A 
ATOM     19  C   UNL     1       7.091   4.835  14.072  0.00  0.00    +0.000 A 
ATOM     20  C   UNL     1       5.913   4.092  14.064  0.00  0.00    +0.000 A 
ATOM     21 BR   UNL     1       5.210   3.472  12.420  0.00  0.00    +0.000 Br
ATOM     22  C   UNL     1       5.251   3.795  15.258  0.00  0.00    +0.000 A 
ENDBRANCH  15  16
ENDBRANCH  14  15
ENDBRANCH   7  14
TORSDOF 4
ENDMDL
MODEL 8
REMARK VINA RESULT:      -6.3      3.884      7.605
REMARK  Name = 
REMARK  5 active torsions:
REMARK  status: ('A' for Active; 'I' for Inactive)
REMARK    1  A    between atoms: C_1  and  N_2
REMARK    2  A    between atoms: C_7  and  S_8
REMARK    3  A    between atoms: S_8  and  C_9
REMARK    4  A    between atoms: C_9  and  C_10
REMARK    5  A    between atoms: C_17  and  C_18
REMARK                            x       y       z     vdW  Elec       q    Type
REMARK                         _______ _______ _______ _____ _____    ______ ____
ROOT
ATOM      1  C   UNL     1       3.105   1.826  17.838  0.00  0.00    +0.000 C 
ATOM      2  N   UNL     1       3.017   3.012  18.693  0.00  0.00    +0.000 NA
ATOM      3  C   UNL     1       1.993   2.848  19.734  0.00  0.00    +0.000 C 
ATOM      4  C   UNL     1       2.058   4.012  20.735  0.00  0.00    +0.000 C 
ATOM      5  C   UNL     1       2.100   5.363  20.058  0.00  0.00    +0.000 A 
ATOM      6  N   UNL     1       1.808   6.464  20.818  0.00  0.00    +0.000 NA
ATOM      7  C   UNL     1       1.853   7.683  20.219  0.00  0.00    +0.000 A 
ATOM      8  C   UNL     1       2.194   7.832  18.870  0.00  0.00    +0.000 A 
ATOM      9  C   UNL     1       2.501   6.693  18.119  0.00  0.00    +0.000 A 
ATOM     10  C   UNL     1       2.462   5.434  18.711  0.00  0.00    +0.000 A 
ATOM     11  C   UNL     1       2.716   4.199  17.882  0.00  0.00    +0.000 C 
ENDROOT
BRANCH   8  12
ATOM     12  C   UNL     1       2.235   9.105  18.217  0.00  0.00    +0.000 C 
ATOM     13  N   UNL     1       2.254  10.112  17.634  0.00  0.00    +0.000 NA
ENDBRANCH   8  12
BRANCH   7  14
ATOM     14  S   UNL     1       1.288   9.107  21.156  0.00  0.00    +0.000 S 
BRANCH  14  15
ATOM     15  C   UNL     1      -0.472   9.239  20.698  0.00  0.00    +0.000 C 
BRANCH  15  16
ATOM     16  C   UNL     1      -0.671  10.403  19.741  0.00  0.00    +0.000 A 
ATOM     17  C   UNL     1      -1.582  10.319  18.673  0.00  0.00    +0.000 A 
ATOM     18  C   UNL     1      -1.797  11.412  17.825  0.00  0.00    +0.000 A 
ATOM     19  C   UNL     1      -1.108  12.605  18.033  0.00  0.00    +0.000 A 
ATOM     20  C   UNL     1      -0.209  12.703  19.093  0.00  0.00    +0.000 A 
ATOM     21 BR   UNL     1       0.714  14.327  19.387  0.00  0.00    +0.000 Br
ATOM     22  C   UNL     1       0.011  11.615  19.942  0.00  0.00    +0.000 A 
ENDBRANCH  15  16
ENDBRANCH  14  15
ENDBRANCH   7  14
TORSDOF 4
ENDMDL
MODEL 9
REMARK VINA RESULT:      -6.3      2.855      5.083
REMARK  Name = 
REMARK  5 active torsions:
REMARK  status: ('A' for Active; 'I' for Inactive)
REMARK    1  A    between atoms: C_1  and  N_2
REMARK    2  A    between atoms: C_7  and  S_8
REMARK    3  A    between atoms: S_8  and  C_9
REMARK    4  A    between atoms: C_9  and  C_10
REMARK    5  A    between atoms: C_17  and  C_18
REMARK                            x       y       z     vdW  Elec       q    Type
REMARK                         _______ _______ _______ _____ _____    ______ ____
ROOT
ATOM      1  C   UNL     1       7.972   8.043  17.396  0.00  0.00    +0.000 C 
ATOM      2  N   UNL     1       7.183   6.829  17.181  0.00  0.00    +0.000 NA
ATOM      3  C   UNL     1       5.999   7.097  16.352  0.00  0.00    +0.000 C 
ATOM      4  C   UNL     1       5.301   5.781  15.976  0.00  0.00    +0.000 C 
ATOM      5  C   UNL     1       5.082   4.874  17.164  0.00  0.00    +0.000 A 
ATOM      6  N   UNL     1       4.178   3.855  17.029  0.00  0.00    +0.000 NA
ATOM      7  C   UNL     1       3.982   3.029  18.090  0.00  0.00    +0.000 A 
ATOM      8  C   UNL     1       4.680   3.192  19.291  0.00  0.00    +0.000 A 
ATOM      9  C   UNL     1       5.608   4.233  19.401  0.00  0.00    +0.000 A 
ATOM     10  C   UNL     1       5.826   5.090  18.326  0.00  0.00    +0.000 A 
ATOM     11  C   UNL     1       6.769   6.259  18.470  0.00  0.00    +0.000 C 
ENDROOT
BRANCH   8  12
ATOM     12  C   UNL     1       4.480   2.342  20.426  0.00  0.00    +0.000 C 
ATOM     13  N   UNL     1       4.364   1.678  21.374  0.00  0.00    +0.000 NA
ENDBRANCH   8  12
BRANCH   7  14
ATOM     14  S   UNL     1       2.664   1.814  17.985  0.00  0.00    +0.000 S 
BRANCH  14  15
ATOM     15  C   UNL     1       1.151   2.824  18.111  0.00  0.00    +0.000 C 
BRANCH  15  16
ATOM     16  C   UNL     1       1.448   4.104  18.876  0.00  0.00    +0.000 A 
ATOM     17  C   UNL     1       1.429   4.132  20.281  0.00  0.00    +0.000 A 
ATOM     18  C   UNL     1       1.750   5.301  20.980  0.00  0.00    +0.000 A 
ATOM     19  C   UNL     1       2.100   6.458  20.287  0.00  0.00    +0.000 A 
ATOM     20  C   UNL     1       2.130   6.440  18.894  0.00  0.00    +0.000 A 
ATOM     21 BR   UNL     1       2.620   8.004  17.951  0.00  0.00    +0.000 Br
ATOM     22  C   UNL     1       1.808   5.276  18.190  0.00  0.00    +0.000 A 
ENDBRANCH  15  16
ENDBRANCH  14  15
ENDBRANCH   7  14
TORSDOF 4
ENDMDL
