MODEL 1
REMARK VINA RESULT:      -7.5      0.000      0.000
REMARK  Name = 
REMARK  4 active torsions:
REMARK  status: ('A' for Active; 'I' for Inactive)
REMARK    1  A    between atoms: C_6  and  N_7
REMARK    2  A    between atoms: N_10  and  C_11
REMARK    3  A    between atoms: C_11  and  C_12
REMARK    4  A    between atoms: C_14  and  C_15
REMARK                            x       y       z     vdW  Elec       q    Type
REMARK                         _______ _______ _______ _____ _____    ______ ____
ROOT
ATOM      1  N   UNL     1       5.213   5.174  18.406  0.00  0.00    +0.000 N 
ATOM      2  C   UNL     1       6.489   4.796  19.000  0.00  0.00    +0.000 C 
ATOM      3  C   UNL     1       7.599   4.999  17.963  0.00  0.00    +0.000 C 
ATOM      4  N   UNL     1       7.625   6.381  17.440  0.00  0.00    +0.000 NA
ATOM      5  C   UNL     1       6.318   6.701  16.825  0.00  0.00    +0.000 C 
ATOM      6  C   UNL     1       5.163   6.517  17.826  0.00  0.00    +0.000 C 
ENDROOT
BRANCH   1  12
ATOM      7 CL   UNL     1       0.518   3.519  20.224  0.00  0.00    +0.000 Cl
ATOM      8  C   UNL     1       1.903   3.458  19.136  0.00  0.00    +0.000 A 
ATOM      9  C   UNL     1       1.893   2.502  18.121  0.00  0.00    +0.000 A 
ATOM     10  C   UNL     1       2.949   2.422  17.225  0.00  0.00    +0.000 A 
ATOM     11  C   UNL     1       4.030   3.296  17.331  0.00  0.00    +0.000 A 
ATOM     12  C   UNL     1       4.084   4.276  18.347  0.00  0.00    +0.000 A 
ATOM     13  C   UNL     1       2.986   4.352  19.263  0.00  0.00    +0.000 A 
ATOM     14 CL   UNL     1       2.848   5.592  20.520  0.00  0.00    +0.000 Cl
ENDBRANCH   1  12
BRANCH   4  15
ATOM     15  C   UNL     1       8.065   7.411  18.415  0.00  0.00    +0.000 C 
BRANCH  15  16
ATOM     16  C   UNL     1       8.456   8.731  17.722  0.00  0.00    +0.000 C 
ATOM     17  C   UNL     1       7.377   9.802  17.713  0.00  0.00    +0.000 C 
ATOM     18  C   UNL     1       8.586   9.933  18.655  0.00  0.00    +0.000 C 
BRANCH  18  19
ATOM     19  C   UNL     1       9.501  11.053  18.223  0.00  0.00    +0.000 A 
ATOM     20  C   UNL     1       8.976  12.272  17.754  0.00  0.00    +0.000 A 
ATOM     21  C   UNL     1       9.838  13.311  17.384  0.00  0.00    +0.000 A 
ATOM     22  C   UNL     1      11.222  13.151  17.491  0.00  0.00    +0.000 A 
ATOM     23  C   UNL     1      11.746  11.948  17.959  0.00  0.00    +0.000 A 
ATOM     24  C   UNL     1      10.894  10.910  18.322  0.00  0.00    +0.000 A 
ENDBRANCH  18  19
ENDBRANCH  15  16
ENDBRANCH   4  15
TORSDOF 4
ENDMDL
MODEL 2
REMARK VINA RESULT:      -7.4      0.714      1.049
REMARK  Name = 
REMARK  4 active torsions:
REMARK  status: ('A' for Active; 'I' for Inactive)
REMARK    1  A    between atoms: C_6  and  N_7
REMARK    2  A    between atoms: N_10  and  C_11
REMARK    3  A    between atoms: C_11  and  C_12
REMARK    4  A    between atoms: C_14  and  C_15
REMARK                            x       y       z     vdW  Elec       q    Type
REMARK                         _______ _______ _______ _____ _____    ______ ____
ROOT
ATOM      1  N   UNL     1       5.237   5.143  18.448  0.00  0.00    +0.000 N 
ATOM      2  C   UNL     1       6.589   4.713  18.779  0.00  0.00    +0.000 C 
ATOM      3  C   UNL     1       7.547   5.199  17.686  0.00  0.00    +0.000 C 
ATOM      4  N   UNL     1       7.469   6.661  17.489  0.00  0.00    +0.000 NA
ATOM      5  C   UNL     1       6.085   7.038  17.129  0.00  0.00    +0.000 C 
ATOM      6  C   UNL     1       5.077   6.576  18.197  0.00  0.00    +0.000 C 
ENDROOT
BRANCH   1  12
ATOM      7 CL   UNL     1       0.547   3.301  20.093  0.00  0.00    +0.000 Cl
ATOM      8  C   UNL     1       1.956   3.319  19.034  0.00  0.00    +0.000 A 
ATOM      9  C   UNL     1       1.992   2.404  17.982  0.00  0.00    +0.000 A 
ATOM     10  C   UNL     1       3.068   2.387  17.107  0.00  0.00    +0.000 A 
ATOM     11  C   UNL     1       4.124   3.282  17.272  0.00  0.00    +0.000 A 
ATOM     12  C   UNL     1       4.132   4.221  18.328  0.00  0.00    +0.000 A 
ATOM     13  C   UNL     1       3.013   4.233  19.222  0.00  0.00    +0.000 A 
ATOM     14 CL   UNL     1       2.817   5.417  20.524  0.00  0.00    +0.000 Cl
ENDBRANCH   1  12
BRANCH   4  15
ATOM     15  C   UNL     1       8.009   7.473  18.610  0.00  0.00    +0.000 C 
BRANCH  15  16
ATOM     16  C   UNL     1       8.727   8.741  18.108  0.00  0.00    +0.000 C 
ATOM     17  C   UNL     1       7.840   9.967  17.951  0.00  0.00    +0.000 C 
ATOM     18  C   UNL     1       8.822   9.872  19.131  0.00  0.00    +0.000 C 
BRANCH  18  19
ATOM     19  C   UNL     1       9.961  10.852  18.980  0.00  0.00    +0.000 A 
ATOM     20  C   UNL     1      10.629  11.360  20.108  0.00  0.00    +0.000 A 
ATOM     21  C   UNL     1      11.701  12.246  19.950  0.00  0.00    +0.000 A 
ATOM     22  C   UNL     1      12.124  12.620  18.671  0.00  0.00    +0.000 A 
ATOM     23  C   UNL     1      11.468  12.116  17.550  0.00  0.00    +0.000 A 
ATOM     24  C   UNL     1      10.397  11.240  17.703  0.00  0.00    +0.000 A 
ENDBRANCH  18  19
ENDBRANCH  15  16
ENDBRANCH   4  15
TORSDOF 4
ENDMDL
MODEL 3
REMARK VINA RESULT:      -7.3      3.985      7.014
REMARK  Name = 
REMARK  4 active torsions:
REMARK  status: ('A' for Active; 'I' for Inactive)
REMARK    1  A    between atoms: C_6  and  N_7
REMARK    2  A    between atoms: N_10  and  C_11
REMARK    3  A    between atoms: C_11  and  C_12
REMARK    4  A    between atoms: C_14  and  C_15
REMARK                            x       y       z     vdW  Elec       q    Type
REMARK                         _______ _______ _______ _____ _____    ______ ____
ROOT
ATOM      1  N   UNL     1       4.682   5.130  18.130  0.00  0.00    +0.000 N 
ATOM      2  C   UNL     1       4.415   5.298  16.708  0.00  0.00    +0.000 C 
ATOM      3  C   UNL     1       5.173   6.530  16.202  0.00  0.00    +0.000 C 
ATOM      4  N   UNL     1       6.621   6.446  16.482  0.00  0.00    +0.000 NA
ATOM      5  C   UNL     1       6.835   6.305  17.939  0.00  0.00    +0.000 C 
ATOM      6  C   UNL     1       6.096   5.078  18.503  0.00  0.00    +0.000 C 
ENDROOT
BRANCH   1  12
ATOM      7 CL   UNL     1       1.852   2.431  21.706  0.00  0.00    +0.000 Cl
ATOM      8  C   UNL     1       2.282   3.876  20.795  0.00  0.00    +0.000 A 
ATOM      9  C   UNL     1       1.586   5.052  21.072  0.00  0.00    +0.000 A 
ATOM     10  C   UNL     1       1.897   6.224  20.398  0.00  0.00    +0.000 A 
ATOM     11  C   UNL     1       2.905   6.236  19.436  0.00  0.00    +0.000 A 
ATOM     12  C   UNL     1       3.631   5.066  19.119  0.00  0.00    +0.000 A 
ATOM     13  C   UNL     1       3.305   3.864  19.825  0.00  0.00    +0.000 A 
ATOM     14 CL   UNL     1       4.192   2.345  19.627  0.00  0.00    +0.000 Cl
ENDBRANCH   1  12
BRANCH   4  15
ATOM     15  C   UNL     1       7.352   5.419  15.696  0.00  0.00    +0.000 C 
BRANCH  15  16
ATOM     16  C   UNL     1       6.716   5.195  14.310  0.00  0.00    +0.000 C 
ATOM     17  C   UNL     1       7.690   5.204  13.142  0.00  0.00    +0.000 C 
ATOM     18  C   UNL     1       7.092   3.876  13.637  0.00  0.00    +0.000 C 
BRANCH  18  19
ATOM     19  C   UNL     1       6.118   3.304  12.635  0.00  0.00    +0.000 A 
ATOM     20  C   UNL     1       4.870   3.915  12.415  0.00  0.00    +0.000 A 
ATOM     21  C   UNL     1       3.989   3.389  11.462  0.00  0.00    +0.000 A 
ATOM     22  C   UNL     1       4.349   2.265  10.713  0.00  0.00    +0.000 A 
ATOM     23  C   UNL     1       5.587   1.660  10.924  0.00  0.00    +0.000 A 
ATOM     24  C   UNL     1       6.462   2.174  11.876  0.00  0.00    +0.000 A 
ENDBRANCH  18  19
ENDBRANCH  15  16
ENDBRANCH   4  15
TORSDOF 4
ENDMDL
MODEL 4
REMARK VINA RESULT:      -7.1      4.452      7.085
REMARK  Name = 
REMARK  4 active torsions:
REMARK  status: ('A' for Active; 'I' for Inactive)
REMARK    1  A    between atoms: C_6  and  N_7
REMARK    2  A    between atoms: N_10  and  C_11
REMARK    3  A    between atoms: C_11  and  C_12
REMARK    4  A    between atoms: C_14  and  C_15
REMARK                            x       y       z     vdW  Elec       q    Type
REMARK                         _______ _______ _______ _____ _____    ______ ____
ROOT
ATOM      1  N   UNL     1       4.665   5.336  18.113  0.00  0.00    +0.000 N 
ATOM      2  C   UNL     1       6.006   5.813  18.426  0.00  0.00    +0.000 C 
ATOM      3  C   UNL     1       7.023   4.745  18.008  0.00  0.00    +0.000 C 
ATOM      4  N   UNL     1       6.889   4.378  16.583  0.00  0.00    +0.000 NA
ATOM      5  C   UNL     1       5.521   3.875  16.328  0.00  0.00    +0.000 C 
ATOM      6  C   UNL     1       4.455   4.912  16.729  0.00  0.00    +0.000 C 
ENDROOT
BRANCH   1  12
ATOM      7 CL   UNL     1       1.977   2.572  21.750  0.00  0.00    +0.000 Cl
ATOM      8  C   UNL     1       2.334   4.019  20.809  0.00  0.00    +0.000 A 
ATOM      9  C   UNL     1       1.581   5.164  21.065  0.00  0.00    +0.000 A 
ATOM     10  C   UNL     1       1.832   6.337  20.366  0.00  0.00    +0.000 A 
ATOM     11  C   UNL     1       2.838   6.379  19.401  0.00  0.00    +0.000 A 
ATOM     12  C   UNL     1       3.620   5.240  19.106  0.00  0.00    +0.000 A 
ATOM     13  C   UNL     1       3.355   4.038  19.837  0.00  0.00    +0.000 A 
ATOM     14 CL   UNL     1       4.316   2.560  19.666  0.00  0.00    +0.000 Cl
ENDBRANCH   1  12
BRANCH   4  15
ATOM     15  C   UNL     1       7.297   5.435  15.623  0.00  0.00    +0.000 C 
BRANCH  15  16
ATOM     16  C   UNL     1       6.693   5.206  14.223  0.00  0.00    +0.000 C 
ATOM     17  C   UNL     1       7.692   5.224  13.077  0.00  0.00    +0.000 C 
ATOM     18  C   UNL     1       7.095   3.890  13.559  0.00  0.00    +0.000 C 
BRANCH  18  19
ATOM     19  C   UNL     1       6.148   3.311  12.536  0.00  0.00    +0.000 A 
ATOM     20  C   UNL     1       6.492   2.158  11.807  0.00  0.00    +0.000 A 
ATOM     21  C   UNL     1       5.592   1.616  10.882  0.00  0.00    +0.000 A 
ATOM     22  C   UNL     1       4.340   2.207  10.688  0.00  0.00    +0.000 A 
ATOM     23  C   UNL     1       3.993   3.347  11.410  0.00  0.00    +0.000 A 
ATOM     24  C   UNL     1       4.888   3.893  12.325  0.00  0.00    +0.000 A 
ENDBRANCH  18  19
ENDBRANCH  15  16
ENDBRANCH   4  15
TORSDOF 4
ENDMDL
MODEL 5
REMARK VINA RESULT:      -7.1      6.882      9.926
REMARK  Name = 
REMARK  4 active torsions:
REMARK  status: ('A' for Active; 'I' for Inactive)
REMARK    1  A    between atoms: C_6  and  N_7
REMARK    2  A    between atoms: N_10  and  C_11
REMARK    3  A    between atoms: C_11  and  C_12
REMARK    4  A    between atoms: C_14  and  C_15
REMARK                            x       y       z     vdW  Elec       q    Type
REMARK                         _______ _______ _______ _____ _____    ______ ____
ROOT
ATOM      1  N   UNL     1      -0.229  11.375  20.249  0.00  0.00    +0.000 N 
ATOM      2  C   UNL     1      -0.444  10.014  19.776  0.00  0.00    +0.000 C 
ATOM      3  C   UNL     1      -0.037   9.930  18.301  0.00  0.00    +0.000 C 
ATOM      4  N   UNL     1       1.356  10.373  18.083  0.00  0.00    +0.000 NA
ATOM      5  C   UNL     1       1.511  11.767  18.555  0.00  0.00    +0.000 C 
ATOM      6  C   UNL     1       1.117  11.909  20.036  0.00  0.00    +0.000 C 
ENDROOT
BRANCH   1  12
ATOM      7 CL   UNL     1      -3.504  12.436  24.278  0.00  0.00    +0.000 Cl
ATOM      8  C   UNL     1      -2.822  12.720  22.679  0.00  0.00    +0.000 A 
ATOM      9  C   UNL     1      -3.299  13.809  21.951  0.00  0.00    +0.000 A 
ATOM     10  C   UNL     1      -2.784  14.091  20.694  0.00  0.00    +0.000 A 
ATOM     11  C   UNL     1      -1.786  13.286  20.146  0.00  0.00    +0.000 A 
ATOM     12  C   UNL     1      -1.278  12.169  20.846  0.00  0.00    +0.000 A 
ATOM     13  C   UNL     1      -1.814  11.891  22.145  0.00  0.00    +0.000 A 
ATOM     14 CL   UNL     1      -1.209  10.600  23.194  0.00  0.00    +0.000 Cl
ENDBRANCH   1  12
BRANCH   4  15
ATOM     15  C   UNL     1       2.394   9.465  18.635  0.00  0.00    +0.000 C 
BRANCH  15  16
ATOM     16  C   UNL     1       2.155   7.999  18.222  0.00  0.00    +0.000 C 
ATOM     17  C   UNL     1       3.391   7.251  17.748  0.00  0.00    +0.000 C 
ATOM     18  C   UNL     1       2.801   6.961  19.139  0.00  0.00    +0.000 C 
BRANCH  18  19
ATOM     19  C   UNL     1       2.167   5.592  19.193  0.00  0.00    +0.000 A 
ATOM     20  C   UNL     1       1.641   5.088  20.396  0.00  0.00    +0.000 A 
ATOM     21  C   UNL     1       1.031   3.828  20.423  0.00  0.00    +0.000 A 
ATOM     22  C   UNL     1       0.928   3.070  19.254  0.00  0.00    +0.000 A 
ATOM     23  C   UNL     1       1.444   3.566  18.058  0.00  0.00    +0.000 A 
ATOM     24  C   UNL     1       2.057   4.814  18.028  0.00  0.00    +0.000 A 
ENDBRANCH  18  19
ENDBRANCH  15  16
ENDBRANCH   4  15
TORSDOF 4
ENDMDL
MODEL 6
REMARK VINA RESULT:      -7.0      6.966      9.976
REMARK  Name = 
REMARK  4 active torsions:
REMARK  status: ('A' for Active; 'I' for Inactive)
REMARK    1  A    between atoms: C_6  and  N_7
REMARK    2  A    between atoms: N_10  and  C_11
REMARK    3  A    between atoms: C_11  and  C_12
REMARK    4  A    between atoms: C_14  and  C_15
REMARK                            x       y       z     vdW  Elec       q    Type
REMARK                         _______ _______ _______ _____ _____    ______ ____
ROOT
ATOM      1  N   UNL     1      -0.200  11.174  20.523  0.00  0.00    +0.000 N 
ATOM      2  C   UNL     1      -0.374   9.811  20.039  0.00  0.00    +0.000 C 
ATOM      3  C   UNL     1      -0.159   9.792  18.521  0.00  0.00    +0.000 C 
ATOM      4  N   UNL     1       1.155  10.347  18.139  0.00  0.00    +0.000 NA
ATOM      5  C   UNL     1       1.266  11.738  18.630  0.00  0.00    +0.000 C 
ATOM      6  C   UNL     1       1.061  11.817  20.154  0.00  0.00    +0.000 C 
ENDROOT
BRANCH   1  12
ATOM      7 CL   UNL     1      -4.878  13.651  20.792  0.00  0.00    +0.000 Cl
ATOM      8  C   UNL     1      -3.379  13.026  21.474  0.00  0.00    +0.000 A 
ATOM      9  C   UNL     1      -3.174  13.178  22.845  0.00  0.00    +0.000 A 
ATOM     10  C   UNL     1      -2.020  12.687  23.439  0.00  0.00    +0.000 A 
ATOM     11  C   UNL     1      -1.054  12.040  22.670  0.00  0.00    +0.000 A 
ATOM     12  C   UNL     1      -1.218  11.870  21.277  0.00  0.00    +0.000 A 
ATOM     13  C   UNL     1      -2.416  12.376  20.676  0.00  0.00    +0.000 A 
ATOM     14 CL   UNL     1      -2.823  12.146  18.969  0.00  0.00    +0.000 Cl
ENDBRANCH   1  12
BRANCH   4  15
ATOM     15  C   UNL     1       2.322   9.512  18.521  0.00  0.00    +0.000 C 
BRANCH  15  16
ATOM     16  C   UNL     1       2.110   8.028  18.163  0.00  0.00    +0.000 C 
ATOM     17  C   UNL     1       3.366   7.275  17.753  0.00  0.00    +0.000 C 
ATOM     18  C   UNL     1       2.741   7.036  19.139  0.00  0.00    +0.000 C 
BRANCH  18  19
ATOM     19  C   UNL     1       2.121   5.663  19.232  0.00  0.00    +0.000 A 
ATOM     20  C   UNL     1       1.968   4.861  18.086  0.00  0.00    +0.000 A 
ATOM     21  C   UNL     1       1.417   3.579  18.193  0.00  0.00    +0.000 A 
ATOM     22  C   UNL     1       1.029   3.081  19.440  0.00  0.00    +0.000 A 
ATOM     23  C   UNL     1       1.182   3.869  20.579  0.00  0.00    +0.000 A 
ATOM     24  C   UNL     1       1.723   5.147  20.476  0.00  0.00    +0.000 A 
ENDBRANCH  18  19
ENDBRANCH  15  16
ENDBRANCH   4  15
TORSDOF 4
ENDMDL
MODEL 7
REMARK VINA RESULT:      -6.9      7.290     10.082
REMARK  Name = 
REMARK  4 active torsions:
REMARK  status: ('A' for Active; 'I' for Inactive)
REMARK    1  A    between atoms: C_6  and  N_7
REMARK    2  A    between atoms: N_10  and  C_11
REMARK    3  A    between atoms: C_11  and  C_12
REMARK    4  A    between atoms: C_14  and  C_15
REMARK                            x       y       z     vdW  Elec       q    Type
REMARK                         _______ _______ _______ _____ _____    ______ ____
ROOT
ATOM      1  N   UNL     1      -1.369  11.298  18.733  0.00  0.00    +0.000 N 
ATOM      2  C   UNL     1      -0.167  12.099  18.541  0.00  0.00    +0.000 C 
ATOM      3  C   UNL     1       0.925  11.594  19.491  0.00  0.00    +0.000 C 
ATOM      4  N   UNL     1       1.192  10.152  19.312  0.00  0.00    +0.000 NA
ATOM      5  C   UNL     1      -0.052   9.386  19.546  0.00  0.00    +0.000 C 
ATOM      6  C   UNL     1      -1.185   9.851  18.614  0.00  0.00    +0.000 C 
ENDROOT
BRANCH   1  12
ATOM      7 CL   UNL     1      -6.519  12.030  17.722  0.00  0.00    +0.000 Cl
ATOM      8  C   UNL     1      -5.044  12.258  18.658  0.00  0.00    +0.000 A 
ATOM      9  C   UNL     1      -5.123  13.020  19.823  0.00  0.00    +0.000 A 
ATOM     10  C   UNL     1      -3.996  13.216  20.609  0.00  0.00    +0.000 A 
ATOM     11  C   UNL     1      -2.775  12.654  20.240  0.00  0.00    +0.000 A 
ATOM     12  C   UNL     1      -2.648  11.879  19.065  0.00  0.00    +0.000 A 
ATOM     13  C   UNL     1      -3.820  11.680  18.265  0.00  0.00    +0.000 A 
ATOM     14 CL   UNL     1      -3.855  10.647  16.828  0.00  0.00    +0.000 Cl
ENDBRANCH   1  12
BRANCH   4  15
ATOM     15  C   UNL     1       1.852   9.791  18.032  0.00  0.00    +0.000 C 
BRANCH  15  16
ATOM     16  C   UNL     1       1.932   8.264  17.835  0.00  0.00    +0.000 C 
ATOM     17  C   UNL     1       3.340   7.698  17.729  0.00  0.00    +0.000 C 
ATOM     18  C   UNL     1       2.521   7.495  19.016  0.00  0.00    +0.000 C 
BRANCH  18  19
ATOM     19  C   UNL     1       2.107   6.053  19.182  0.00  0.00    +0.000 A 
ATOM     20  C   UNL     1       1.879   5.511  20.459  0.00  0.00    +0.000 A 
ATOM     21  C   UNL     1       1.468   4.179  20.595  0.00  0.00    +0.000 A 
ATOM     22  C   UNL     1       1.267   3.385  19.463  0.00  0.00    +0.000 A 
ATOM     23  C   UNL     1       1.487   3.918  18.194  0.00  0.00    +0.000 A 
ATOM     24  C   UNL     1       1.903   5.239  18.055  0.00  0.00    +0.000 A 
ENDBRANCH  18  19
ENDBRANCH  15  16
ENDBRANCH   4  15
TORSDOF 4
ENDMDL
MODEL 8
REMARK VINA RESULT:      -6.8      5.500      6.598
REMARK  Name = 
REMARK  4 active torsions:
REMARK  status: ('A' for Active; 'I' for Inactive)
REMARK    1  A    between atoms: C_6  and  N_7
REMARK    2  A    between atoms: N_10  and  C_11
REMARK    3  A    between atoms: C_11  and  C_12
REMARK    4  A    between atoms: C_14  and  C_15
REMARK                            x       y       z     vdW  Elec       q    Type
REMARK                         _______ _______ _______ _____ _____    ______ ____
ROOT
ATOM      1  N   UNL     1       2.355   7.550  18.613  0.00  0.00    +0.000 N 
ATOM      2  C   UNL     1       2.242   8.694  17.718  0.00  0.00    +0.000 C 
ATOM      3  C   UNL     1       0.866   9.342  17.910  0.00  0.00    +0.000 C 
ATOM      4  N   UNL     1       0.622   9.721  19.317  0.00  0.00    +0.000 NA
ATOM      5  C   UNL     1       0.721   8.520  20.176  0.00  0.00    +0.000 C 
ATOM      6  C   UNL     1       2.088   7.829  20.025  0.00  0.00    +0.000 C 
ENDROOT
BRANCH   1  12
ATOM      7 CL   UNL     1       5.687   4.085  16.382  0.00  0.00    +0.000 Cl
ATOM      8  C   UNL     1       4.158   4.558  17.120  0.00  0.00    +0.000 A 
ATOM      9  C   UNL     1       3.189   3.572  17.299  0.00  0.00    +0.000 A 
ATOM     10  C   UNL     1       1.974   3.885  17.892  0.00  0.00    +0.000 A 
ATOM     11  C   UNL     1       1.711   5.188  18.312  0.00  0.00    +0.000 A 
ATOM     12  C   UNL     1       2.662   6.219  18.144  0.00  0.00    +0.000 A 
ATOM     13  C   UNL     1       3.914   5.883  17.536  0.00  0.00    +0.000 A 
ATOM     14 CL   UNL     1       5.250   7.030  17.355  0.00  0.00    +0.000 Cl
ENDBRANCH   1  12
BRANCH   4  15
ATOM     15  C   UNL     1       1.451  10.848  19.814  0.00  0.00    +0.000 C 
BRANCH  15  16
ATOM     16  C   UNL     1       1.416  12.055  18.855  0.00  0.00    +0.000 C 
ATOM     17  C   UNL     1       0.107  12.828  18.835  0.00  0.00    +0.000 C 
ATOM     18  C   UNL     1       1.339  13.418  19.541  0.00  0.00    +0.000 C 
BRANCH  18  19
ATOM     19  C   UNL     1       1.888  14.606  18.789  0.00  0.00    +0.000 A 
ATOM     20  C   UNL     1       1.249  15.858  18.854  0.00  0.00    +0.000 A 
ATOM     21  C   UNL     1       1.785  16.957  18.174  0.00  0.00    +0.000 A 
ATOM     22  C   UNL     1       2.966  16.823  17.438  0.00  0.00    +0.000 A 
ATOM     23  C   UNL     1       3.605  15.586  17.373  0.00  0.00    +0.000 A 
ATOM     24  C   UNL     1       3.071  14.489  18.042  0.00  0.00    +0.000 A 
ENDBRANCH  18  19
ENDBRANCH  15  16
ENDBRANCH   4  15
TORSDOF 4
ENDMDL
MODEL 9
REMARK VINA RESULT:      -6.8      5.809      6.932
REMARK  Name = 
REMARK  4 active torsions:
REMARK  status: ('A' for Active; 'I' for Inactive)
REMARK    1  A    between atoms: C_6  and  N_7
REMARK    2  A    between atoms: N_10  and  C_11
REMARK    3  A    between atoms: C_11  and  C_12
REMARK    4  A    between atoms: C_14  and  C_15
REMARK                            x       y       z     vdW  Elec       q    Type
REMARK                         _______ _______ _______ _____ _____    ______ ____
ROOT
ATOM      1  N   UNL     1       1.899   7.922  19.818  0.00  0.00    +0.000 N 
ATOM      2  C   UNL     1       1.981   8.895  18.737  0.00  0.00    +0.000 C 
ATOM      3  C   UNL     1       0.625   9.595  18.594  0.00  0.00    +0.000 C 
ATOM      4  N   UNL     1       0.185  10.217  19.859  0.00  0.00    +0.000 NA
ATOM      5  C   UNL     1       0.092   9.182  20.913  0.00  0.00    +0.000 C 
ATOM      6  C   UNL     1       1.431   8.446  21.101  0.00  0.00    +0.000 C 
ENDROOT
BRANCH   1  12
ATOM      7 CL   UNL     1       4.490   4.051  17.289  0.00  0.00    +0.000 Cl
ATOM      8  C   UNL     1       3.383   4.678  18.509  0.00  0.00    +0.000 A 
ATOM      9  C   UNL     1       2.794   3.767  19.384  0.00  0.00    +0.000 A 
ATOM     10  C   UNL     1       1.929   4.209  20.376  0.00  0.00    +0.000 A 
ATOM     11  C   UNL     1       1.640   5.566  20.504  0.00  0.00    +0.000 A 
ATOM     12  C   UNL     1       2.210   6.523  19.635  0.00  0.00    +0.000 A 
ATOM     13  C   UNL     1       3.105   6.056  18.619  0.00  0.00    +0.000 A 
ATOM     14 CL   UNL     1       3.986   7.134  17.524  0.00  0.00    +0.000 Cl
ENDBRANCH   1  12
BRANCH   4  15
ATOM     15  C   UNL     1       0.981  11.396  20.287  0.00  0.00    +0.000 C 
BRANCH  15  16
ATOM     16  C   UNL     1       1.078  12.459  19.174  0.00  0.00    +0.000 C 
ATOM     17  C   UNL     1      -0.191  13.261  18.931  0.00  0.00    +0.000 C 
ATOM     18  C   UNL     1       1.002  13.905  19.659  0.00  0.00    +0.000 C 
BRANCH  18  19
ATOM     19  C   UNL     1       1.662  14.961  18.804  0.00  0.00    +0.000 A 
ATOM     20  C   UNL     1       1.122  16.257  18.715  0.00  0.00    +0.000 A 
ATOM     21  C   UNL     1       1.761  17.232  17.941  0.00  0.00    +0.000 A 
ATOM     22  C   UNL     1       2.946  16.930  17.264  0.00  0.00    +0.000 A 
ATOM     23  C   UNL     1       3.488  15.649  17.353  0.00  0.00    +0.000 A 
ATOM     24  C   UNL     1       2.851  14.674  18.115  0.00  0.00    +0.000 A 
ENDBRANCH  18  19
ENDBRANCH  15  16
ENDBRANCH   4  15
TORSDOF 4
ENDMDL
