MODEL 1
REMARK VINA RESULT:      -8.5      0.000      0.000
REMARK  Name = 
REMARK  6 active torsions:
REMARK  status: ('A' for Active; 'I' for Inactive)
REMARK    1  A    between atoms: C_2  and  C_3
REMARK    2  A    between atoms: C_13  and  C_14
REMARK    3  A    between atoms: C_14  and  N_15
REMARK    4  A    between atoms: N_15  and  C_16
REMARK    5  A    between atoms: C_16  and  C_17
REMARK    6  A    between atoms: C_21  and  N_22
REMARK                            x       y       z     vdW  Elec       q    Type
REMARK                         _______ _______ _______ _____ _____    ______ ____
ROOT
ATOM      1  O   UNL     1       7.761   5.577  13.583  0.00  0.00    +0.000 OA
ATOM      2  C   UNL     1       6.929   4.759  13.929  0.00  0.00    +0.000 C 
ATOM      3  N   UNL     1       6.411   4.680  15.220  0.00  0.00    +0.000 N 
ATOM      4  C   UNL     1       5.508   3.659  15.769  0.00  0.00    +0.000 C 
ATOM      5  C   UNL     1       4.168   4.310  16.126  0.00  0.00    +0.000 C 
ATOM      6  C   UNL     1       4.372   5.466  17.110  0.00  0.00    +0.000 C 
ATOM      7  C   UNL     1       5.414   6.461  16.551  0.00  0.00    +0.000 C 
ATOM      8  C   UNL     1       6.713   5.765  16.142  0.00  0.00    +0.000 C 
ENDROOT
BRANCH   2   9
ATOM      9  C   UNL     1       6.438   3.810  12.891  0.00  0.00    +0.000 A 
ATOM     10  C   UNL     1       7.317   2.906  12.284  0.00  0.00    +0.000 A 
ATOM     11  C   UNL     1       6.826   2.009  11.332  0.00  0.00    +0.000 A 
ATOM     12  C   UNL     1       5.470   1.979  11.024  0.00  0.00    +0.000 A 
ATOM     13  C   UNL     1       4.615   2.905  11.599  0.00  0.00    +0.000 A 
ATOM     14  F   UNL     1       3.311   2.905  11.305  0.00  0.00    +0.000 F 
ATOM     15  C   UNL     1       5.099   3.841  12.464  0.00  0.00    +0.000 A 
ENDBRANCH   2   9
BRANCH   6  16
ATOM     16  C   UNL     1       4.763   4.955  18.510  0.00  0.00    +0.000 C 
BRANCH  16  17
ATOM     17  N   UNL     1       4.354   5.847  19.592  0.00  0.00    +0.000 NA
ATOM     18  H   UNL     1       4.650   6.807  19.394  0.00  0.00    +0.000 HD
BRANCH  17  19
ATOM     19  C   UNL     1       2.902   5.865  19.775  0.00  0.00    +0.000 C 
BRANCH  19  20
ATOM     20  C   UNL     1       2.332   7.241  19.490  0.00  0.00    +0.000 A 
ATOM     21  C   UNL     1       2.440   7.778  18.224  0.00  0.00    +0.000 A 
ATOM     22  C   UNL     1       1.847   9.006  17.957  0.00  0.00    +0.000 A 
ATOM     23  C   UNL     1       1.136   9.647  18.973  0.00  0.00    +0.000 A 
ATOM     24  C   UNL     1       1.067   9.041  20.228  0.00  0.00    +0.000 A 
ATOM     25  N   UNL     1       1.669   7.852  20.507  0.00  0.00    +0.000 NA
BRANCH  24  26
ATOM     26  N   UNL     1       0.322   9.686  21.260  0.00  0.00    +0.000 N 
ATOM     27  C   UNL     1      -0.071  11.008  21.280  0.00  0.00    +0.000 A 
ATOM     28  C   UNL     1      -0.723  11.218  22.471  0.00  0.00    +0.000 A 
ATOM     29  C   UNL     1      -0.679   9.974  23.119  0.00  0.00    +0.000 A 
ATOM     30  N   UNL     1      -0.074   9.034  22.390  0.00  0.00    +0.000 NA
ENDBRANCH  24  26
ENDBRANCH  19  20
ENDBRANCH  17  19
ENDBRANCH  16  17
ENDBRANCH   6  16
TORSDOF 6
ENDMDL
MODEL 2
REMARK VINA RESULT:      -8.0      3.119      4.957
REMARK  Name = 
REMARK  6 active torsions:
REMARK  status: ('A' for Active; 'I' for Inactive)
REMARK    1  A    between atoms: C_2  and  C_3
REMARK    2  A    between atoms: C_13  and  C_14
REMARK    3  A    between atoms: C_14  and  N_15
REMARK    4  A    between atoms: N_15  and  C_16
REMARK    5  A    between atoms: C_16  and  C_17
REMARK    6  A    between atoms: C_21  and  N_22
REMARK                            x       y       z     vdW  Elec       q    Type
REMARK                         _______ _______ _______ _____ _____    ______ ____
ROOT
ATOM      1  O   UNL     1       2.711   2.793  16.666  0.00  0.00    +0.000 OA
ATOM      2  C   UNL     1       3.238   3.825  17.037  0.00  0.00    +0.000 C 
ATOM      3  N   UNL     1       2.641   4.726  17.917  0.00  0.00    +0.000 N 
ATOM      4  C   UNL     1       3.132   6.049  18.324  0.00  0.00    +0.000 C 
ATOM      5  C   UNL     1       3.458   6.029  19.821  0.00  0.00    +0.000 C 
ATOM      6  C   UNL     1       2.231   5.610  20.637  0.00  0.00    +0.000 C 
ATOM      7  C   UNL     1       1.673   4.270  20.106  0.00  0.00    +0.000 C 
ATOM      8  C   UNL     1       1.424   4.308  18.598  0.00  0.00    +0.000 C 
ENDROOT
BRANCH   2   9
ATOM      9  C   UNL     1       4.606   4.113  16.522  0.00  0.00    +0.000 A 
ATOM     10  C   UNL     1       4.810   4.380  15.164  0.00  0.00    +0.000 A 
ATOM     11  C   UNL     1       6.099   4.672  14.711  0.00  0.00    +0.000 A 
ATOM     12  C   UNL     1       7.162   4.744  15.606  0.00  0.00    +0.000 A 
ATOM     13  C   UNL     1       6.957   4.437  16.940  0.00  0.00    +0.000 A 
ATOM     14  F   UNL     1       7.968   4.484  17.814  0.00  0.00    +0.000 F 
ATOM     15  C   UNL     1       5.720   4.067  17.377  0.00  0.00    +0.000 A 
ENDBRANCH   2   9
BRANCH   6  16
ATOM     16  C   UNL     1       1.156   6.713  20.648  0.00  0.00    +0.000 C 
BRANCH  16  17
ATOM     17  N   UNL     1       1.651   8.005  21.116  0.00  0.00    +0.000 NA
ATOM     18  H   UNL     1       2.066   8.530  20.341  0.00  0.00    +0.000 HD
BRANCH  17  19
ATOM     19  C   UNL     1       0.585   8.832  21.685  0.00  0.00    +0.000 C 
BRANCH  19  20
ATOM     20  C   UNL     1       0.290  10.028  20.800  0.00  0.00    +0.000 A 
ATOM     21  C   UNL     1       1.038  11.179  20.933  0.00  0.00    +0.000 A 
ATOM     22  C   UNL     1       0.808  12.240  20.066  0.00  0.00    +0.000 A 
ATOM     23  C   UNL     1      -0.157  12.097  19.066  0.00  0.00    +0.000 A 
ATOM     24  C   UNL     1      -0.872  10.902  18.991  0.00  0.00    +0.000 A 
ATOM     25  N   UNL     1      -0.674   9.868  19.855  0.00  0.00    +0.000 NA
BRANCH  24  26
ATOM     26  N   UNL     1      -1.842  10.748  17.956  0.00  0.00    +0.000 N 
ATOM     27  C   UNL     1      -2.981  11.508  17.785  0.00  0.00    +0.000 A 
ATOM     28  C   UNL     1      -3.649  10.993  16.700  0.00  0.00    +0.000 A 
ATOM     29  C   UNL     1      -2.852   9.921  16.272  0.00  0.00    +0.000 A 
ATOM     30  N   UNL     1      -1.747   9.776  17.006  0.00  0.00    +0.000 NA
ENDBRANCH  24  26
ENDBRANCH  19  20
ENDBRANCH  17  19
ENDBRANCH  16  17
ENDBRANCH   6  16
TORSDOF 6
ENDMDL
MODEL 3
REMARK VINA RESULT:      -8.0      1.695      3.084
REMARK  Name = 
REMARK  6 active torsions:
REMARK  status: ('A' for Active; 'I' for Inactive)
REMARK    1  A    between atoms: C_2  and  C_3
REMARK    2  A    between atoms: C_13  and  C_14
REMARK    3  A    between atoms: C_14  and  N_15
REMARK    4  A    between atoms: N_15  and  C_16
REMARK    5  A    between atoms: C_16  and  C_17
REMARK    6  A    between atoms: C_21  and  N_22
REMARK                            x       y       z     vdW  Elec       q    Type
REMARK                         _______ _______ _______ _____ _____    ______ ____
ROOT
ATOM      1  O   UNL     1       7.728   5.468  13.426  0.00  0.00    +0.000 OA
ATOM      2  C   UNL     1       6.933   4.658  13.867  0.00  0.00    +0.000 C 
ATOM      3  N   UNL     1       6.670   4.490  15.225  0.00  0.00    +0.000 N 
ATOM      4  C   UNL     1       5.835   3.463  15.862  0.00  0.00    +0.000 C 
ATOM      5  C   UNL     1       4.628   4.136  16.525  0.00  0.00    +0.000 C 
ATOM      6  C   UNL     1       5.084   5.194  17.534  0.00  0.00    +0.000 C 
ATOM      7  C   UNL     1       6.053   6.190  16.857  0.00  0.00    +0.000 C 
ATOM      8  C   UNL     1       7.206   5.479  16.149  0.00  0.00    +0.000 C 
ENDROOT
BRANCH   2   9
ATOM      9  C   UNL     1       6.197   3.821  12.877  0.00  0.00    +0.000 A 
ATOM     10  C   UNL     1       4.860   4.096  12.572  0.00  0.00    +0.000 A 
ATOM     11  C   UNL     1       4.200   3.313  11.621  0.00  0.00    +0.000 A 
ATOM     12  C   UNL     1       4.878   2.301  10.949  0.00  0.00    +0.000 A 
ATOM     13  C   UNL     1       6.189   2.010  11.288  0.00  0.00    +0.000 A 
ATOM     14  F   UNL     1       6.853   1.030  10.666  0.00  0.00    +0.000 F 
ATOM     15  C   UNL     1       6.814   2.712  12.275  0.00  0.00    +0.000 A 
ENDBRANCH   2   9
BRANCH   6  16
ATOM     16  C   UNL     1       5.708   4.550  18.786  0.00  0.00    +0.000 C 
BRANCH  16  17
ATOM     17  N   UNL     1       5.338   3.149  18.968  0.00  0.00    +0.000 NA
ATOM     18  H   UNL     1       6.170   2.553  18.938  0.00  0.00    +0.000 HD
BRANCH  17  19
ATOM     19  C   UNL     1       4.678   2.914  20.254  0.00  0.00    +0.000 C 
BRANCH  19  20
ATOM     20  C   UNL     1       3.261   3.454  20.247  0.00  0.00    +0.000 A 
ATOM     21  C   UNL     1       2.197   2.584  20.371  0.00  0.00    +0.000 A 
ATOM     22  C   UNL     1       0.908   3.098  20.440  0.00  0.00    +0.000 A 
ATOM     23  C   UNL     1       0.730   4.483  20.410  0.00  0.00    +0.000 A 
ATOM     24  C   UNL     1       1.854   5.299  20.286  0.00  0.00    +0.000 A 
ATOM     25  N   UNL     1       3.119   4.804  20.189  0.00  0.00    +0.000 NA
BRANCH  24  26
ATOM     26  N   UNL     1       1.675   6.715  20.277  0.00  0.00    +0.000 N 
ATOM     27  C   UNL     1       2.100   7.585  19.295  0.00  0.00    +0.000 A 
ATOM     28  C   UNL     1       1.763   8.853  19.706  0.00  0.00    +0.000 A 
ATOM     29  C   UNL     1       1.142   8.665  20.949  0.00  0.00    +0.000 A 
ATOM     30  N   UNL     1       1.060   7.379  21.296  0.00  0.00    +0.000 NA
ENDBRANCH  24  26
ENDBRANCH  19  20
ENDBRANCH  17  19
ENDBRANCH  16  17
ENDBRANCH   6  16
TORSDOF 6
ENDMDL
MODEL 4
REMARK VINA RESULT:      -7.8      1.463      2.892
REMARK  Name = 
REMARK  6 active torsions:
REMARK  status: ('A' for Active; 'I' for Inactive)
REMARK    1  A    between atoms: C_2  and  C_3
REMARK    2  A    between atoms: C_13  and  C_14
REMARK    3  A    between atoms: C_14  and  N_15
REMARK    4  A    between atoms: N_15  and  C_16
REMARK    5  A    between atoms: C_16  and  C_17
REMARK    6  A    between atoms: C_21  and  N_22
REMARK                            x       y       z     vdW  Elec       q    Type
REMARK                         _______ _______ _______ _____ _____    ______ ____
ROOT
ATOM      1  O   UNL     1       7.773   5.514  13.309  0.00  0.00    +0.000 OA
ATOM      2  C   UNL     1       6.992   4.686  13.738  0.00  0.00    +0.000 C 
ATOM      3  N   UNL     1       6.639   4.576  15.081  0.00  0.00    +0.000 N 
ATOM      4  C   UNL     1       5.814   3.540  15.716  0.00  0.00    +0.000 C 
ATOM      5  C   UNL     1       4.528   4.178  16.253  0.00  0.00    +0.000 C 
ATOM      6  C   UNL     1       4.853   5.313  17.229  0.00  0.00    +0.000 C 
ATOM      7  C   UNL     1       5.815   6.324  16.565  0.00  0.00    +0.000 C 
ATOM      8  C   UNL     1       7.053   5.642  15.983  0.00  0.00    +0.000 C 
ENDROOT
BRANCH   2   9
ATOM      9  C   UNL     1       6.376   3.757  12.749  0.00  0.00    +0.000 A 
ATOM     10  C   UNL     1       7.147   2.767  12.131  0.00  0.00    +0.000 A 
ATOM     11  C   UNL     1       6.540   1.892  11.226  0.00  0.00    +0.000 A 
ATOM     12  C   UNL     1       5.173   1.973  10.977  0.00  0.00    +0.000 A 
ATOM     13  C   UNL     1       4.427   2.982  11.561  0.00  0.00    +0.000 A 
ATOM     14  F   UNL     1       3.116   3.087  11.322  0.00  0.00    +0.000 F 
ATOM     15  C   UNL     1       5.027   3.894  12.378  0.00  0.00    +0.000 A 
ENDBRANCH   2   9
BRANCH   6  16
ATOM     16  C   UNL     1       5.416   4.774  18.557  0.00  0.00    +0.000 C 
BRANCH  16  17
ATOM     17  N   UNL     1       5.368   3.318  18.663  0.00  0.00    +0.000 NA
ATOM     18  H   UNL     1       6.312   2.925  18.614  0.00  0.00    +0.000 HD
BRANCH  17  19
ATOM     19  C   UNL     1       4.773   2.875  19.925  0.00  0.00    +0.000 C 
BRANCH  19  20
ATOM     20  C   UNL     1       3.362   3.405  20.081  0.00  0.00    +0.000 A 
ATOM     21  C   UNL     1       2.331   2.536  20.372  0.00  0.00    +0.000 A 
ATOM     22  C   UNL     1       1.057   3.044  20.588  0.00  0.00    +0.000 A 
ATOM     23  C   UNL     1       0.862   4.426  20.529  0.00  0.00    +0.000 A 
ATOM     24  C   UNL     1       1.953   5.243  20.232  0.00  0.00    +0.000 A 
ATOM     25  N   UNL     1       3.199   4.752  19.991  0.00  0.00    +0.000 NA
BRANCH  24  26
ATOM     26  N   UNL     1       1.759   6.656  20.193  0.00  0.00    +0.000 N 
ATOM     27  C   UNL     1       2.185   7.512  19.197  0.00  0.00    +0.000 A 
ATOM     28  C   UNL     1       1.831   8.784  19.580  0.00  0.00    +0.000 A 
ATOM     29  C   UNL     1       1.198   8.614  20.820  0.00  0.00    +0.000 A 
ATOM     30  N   UNL     1       1.126   7.334  21.191  0.00  0.00    +0.000 NA
ENDBRANCH  24  26
ENDBRANCH  19  20
ENDBRANCH  17  19
ENDBRANCH  16  17
ENDBRANCH   6  16
TORSDOF 6
ENDMDL
MODEL 5
REMARK VINA RESULT:      -7.7      6.061      8.256
REMARK  Name = 
REMARK  6 active torsions:
REMARK  status: ('A' for Active; 'I' for Inactive)
REMARK    1  A    between atoms: C_2  and  C_3
REMARK    2  A    between atoms: C_13  and  C_14
REMARK    3  A    between atoms: C_14  and  N_15
REMARK    4  A    between atoms: N_15  and  C_16
REMARK    5  A    between atoms: C_16  and  C_17
REMARK    6  A    between atoms: C_21  and  N_22
REMARK                            x       y       z     vdW  Elec       q    Type
REMARK                         _______ _______ _______ _____ _____    ______ ____
ROOT
ATOM      1  O   UNL     1       3.471   2.858  16.576  0.00  0.00    +0.000 OA
ATOM      2  C   UNL     1       3.748   3.577  17.519  0.00  0.00    +0.000 C 
ATOM      3  N   UNL     1       4.851   4.429  17.545  0.00  0.00    +0.000 N 
ATOM      4  C   UNL     1       5.342   5.234  18.671  0.00  0.00    +0.000 C 
ATOM      5  C   UNL     1       5.203   6.721  18.327  0.00  0.00    +0.000 C 
ATOM      6  C   UNL     1       5.954   7.049  17.033  0.00  0.00    +0.000 C 
ATOM      7  C   UNL     1       5.494   6.106  15.899  0.00  0.00    +0.000 C 
ATOM      8  C   UNL     1       5.582   4.634  16.303  0.00  0.00    +0.000 C 
ENDROOT
BRANCH   2   9
ATOM      9  C   UNL     1       2.831   3.541  18.692  0.00  0.00    +0.000 A 
ATOM     10  C   UNL     1       2.486   2.321  19.284  0.00  0.00    +0.000 A 
ATOM     11  C   UNL     1       1.644   2.316  20.400  0.00  0.00    +0.000 A 
ATOM     12  C   UNL     1       1.193   3.513  20.947  0.00  0.00    +0.000 A 
ATOM     13  C   UNL     1       1.506   4.712  20.330  0.00  0.00    +0.000 A 
ATOM     14  F   UNL     1       1.069   5.872  20.830  0.00  0.00    +0.000 F 
ATOM     15  C   UNL     1       2.255   4.722  19.191  0.00  0.00    +0.000 A 
ENDBRANCH   2   9
BRANCH   6  16
ATOM     16  C   UNL     1       7.480   6.999  17.236  0.00  0.00    +0.000 C 
BRANCH  16  17
ATOM     17  N   UNL     1       7.985   8.037  18.130  0.00  0.00    +0.000 NA
ATOM     18  H   UNL     1       8.850   7.729  18.582  0.00  0.00    +0.000 HD
BRANCH  17  19
ATOM     19  C   UNL     1       8.281   9.283  17.420  0.00  0.00    +0.000 C 
BRANCH  19  20
ATOM     20  C   UNL     1       8.858  10.324  18.359  0.00  0.00    +0.000 A 
ATOM     21  C   UNL     1       9.162   9.978  19.660  0.00  0.00    +0.000 A 
ATOM     22  C   UNL     1       9.761  10.920  20.488  0.00  0.00    +0.000 A 
ATOM     23  C   UNL     1      10.062  12.180  19.969  0.00  0.00    +0.000 A 
ATOM     24  C   UNL     1       9.728  12.456  18.643  0.00  0.00    +0.000 A 
ATOM     25  N   UNL     1       9.115  11.550  17.833  0.00  0.00    +0.000 NA
BRANCH  24  26
ATOM     26  N   UNL     1      10.055  13.737  18.106  0.00  0.00    +0.000 N 
ATOM     27  C   UNL     1       9.412  14.927  18.381  0.00  0.00    +0.000 A 
ATOM     28  C   UNL     1      10.018  15.898  17.621  0.00  0.00    +0.000 A 
ATOM     29  C   UNL     1      11.016  15.216  16.910  0.00  0.00    +0.000 A 
ATOM     30  N   UNL     1      11.066  13.916  17.210  0.00  0.00    +0.000 NA
ENDBRANCH  24  26
ENDBRANCH  19  20
ENDBRANCH  17  19
ENDBRANCH  16  17
ENDBRANCH   6  16
TORSDOF 6
ENDMDL
MODEL 6
REMARK VINA RESULT:      -7.7      3.404      5.374
REMARK  Name = 
REMARK  6 active torsions:
REMARK  status: ('A' for Active; 'I' for Inactive)
REMARK    1  A    between atoms: C_2  and  C_3
REMARK    2  A    between atoms: C_13  and  C_14
REMARK    3  A    between atoms: C_14  and  N_15
REMARK    4  A    between atoms: N_15  and  C_16
REMARK    5  A    between atoms: C_16  and  C_17
REMARK    6  A    between atoms: C_21  and  N_22
REMARK                            x       y       z     vdW  Elec       q    Type
REMARK                         _______ _______ _______ _____ _____    ______ ____
ROOT
ATOM      1  O   UNL     1       3.085   2.385  17.557  0.00  0.00    +0.000 OA
ATOM      2  C   UNL     1       3.415   3.554  17.640  0.00  0.00    +0.000 C 
ATOM      3  N   UNL     1       2.657   4.528  18.287  0.00  0.00    +0.000 N 
ATOM      4  C   UNL     1       2.899   5.976  18.333  0.00  0.00    +0.000 C 
ATOM      5  C   UNL     1       3.208   6.391  19.775  0.00  0.00    +0.000 C 
ATOM      6  C   UNL     1       2.067   5.982  20.713  0.00  0.00    +0.000 C 
ATOM      7  C   UNL     1       1.764   4.475  20.553  0.00  0.00    +0.000 C 
ATOM      8  C   UNL     1       1.528   4.087  19.094  0.00  0.00    +0.000 C 
ENDROOT
BRANCH   2   9
ATOM      9  C   UNL     1       4.714   3.938  17.021  0.00  0.00    +0.000 A 
ATOM     10  C   UNL     1       4.838   4.030  15.630  0.00  0.00    +0.000 A 
ATOM     11  C   UNL     1       6.060   4.417  15.076  0.00  0.00    +0.000 A 
ATOM     12  C   UNL     1       7.131   4.756  15.897  0.00  0.00    +0.000 A 
ATOM     13  C   UNL     1       7.012   4.622  17.271  0.00  0.00    +0.000 A 
ATOM     14  F   UNL     1       8.034   4.927  18.077  0.00  0.00    +0.000 F 
ATOM     15  C   UNL     1       5.851   4.162  17.817  0.00  0.00    +0.000 A 
ENDBRANCH   2   9
BRANCH   6  16
ATOM     16  C   UNL     1       0.812   6.845  20.486  0.00  0.00    +0.000 C 
BRANCH  16  17
ATOM     17  N   UNL     1       0.916   8.187  21.053  0.00  0.00    +0.000 NA
ATOM     18  H   UNL     1       1.715   8.244  21.691  0.00  0.00    +0.000 HD
BRANCH  17  19
ATOM     19  C   UNL     1       1.104   9.210  20.023  0.00  0.00    +0.000 C 
BRANCH  19  20
ATOM     20  C   UNL     1      -0.029  10.217  20.039  0.00  0.00    +0.000 A 
ATOM     21  C   UNL     1      -0.095  11.158  21.046  0.00  0.00    +0.000 A 
ATOM     22  C   UNL     1      -1.094  12.122  21.007  0.00  0.00    +0.000 A 
ATOM     23  C   UNL     1      -1.987  12.126  19.933  0.00  0.00    +0.000 A 
ATOM     24  C   UNL     1      -1.857  11.145  18.951  0.00  0.00    +0.000 A 
ATOM     25  N   UNL     1      -0.899  10.179  18.995  0.00  0.00    +0.000 NA
BRANCH  24  26
ATOM     26  N   UNL     1      -2.755  11.162  17.842  0.00  0.00    +0.000 N 
ATOM     27  C   UNL     1      -2.457  10.803  16.543  0.00  0.00    +0.000 A 
ATOM     28  C   UNL     1      -3.591  11.011  15.797  0.00  0.00    +0.000 A 
ATOM     29  C   UNL     1      -4.532  11.501  16.716  0.00  0.00    +0.000 A 
ATOM     30  N   UNL     1      -4.049  11.574  17.957  0.00  0.00    +0.000 NA
ENDBRANCH  24  26
ENDBRANCH  19  20
ENDBRANCH  17  19
ENDBRANCH  16  17
ENDBRANCH   6  16
TORSDOF 6
ENDMDL
MODEL 7
REMARK VINA RESULT:      -7.6      2.973      4.929
REMARK  Name = 
REMARK  6 active torsions:
REMARK  status: ('A' for Active; 'I' for Inactive)
REMARK    1  A    between atoms: C_2  and  C_3
REMARK    2  A    between atoms: C_13  and  C_14
REMARK    3  A    between atoms: C_14  and  N_15
REMARK    4  A    between atoms: N_15  and  C_16
REMARK    5  A    between atoms: C_16  and  C_17
REMARK    6  A    between atoms: C_21  and  N_22
REMARK                            x       y       z     vdW  Elec       q    Type
REMARK                         _______ _______ _______ _____ _____    ______ ____
ROOT
ATOM      1  O   UNL     1       3.035   2.575  16.951  0.00  0.00    +0.000 OA
ATOM      2  C   UNL     1       3.457   3.679  17.244  0.00  0.00    +0.000 C 
ATOM      3  N   UNL     1       2.760   4.588  18.038  0.00  0.00    +0.000 N 
ATOM      4  C   UNL     1       3.119   5.980  18.342  0.00  0.00    +0.000 C 
ATOM      5  C   UNL     1       3.411   6.110  19.841  0.00  0.00    +0.000 C 
ATOM      6  C   UNL     1       2.209   5.646  20.669  0.00  0.00    +0.000 C 
ATOM      7  C   UNL     1       1.788   4.222  20.242  0.00  0.00    +0.000 C 
ATOM      8  C   UNL     1       1.571   4.115  18.732  0.00  0.00    +0.000 C 
ENDROOT
BRANCH   2   9
ATOM      9  C   UNL     1       4.804   4.050  16.729  0.00  0.00    +0.000 A 
ATOM     10  C   UNL     1       5.868   4.261  17.613  0.00  0.00    +0.000 A 
ATOM     11  C   UNL     1       7.128   4.583  17.102  0.00  0.00    +0.000 A 
ATOM     12  C   UNL     1       7.337   4.646  15.728  0.00  0.00    +0.000 A 
ATOM     13  C   UNL     1       6.269   4.476  14.863  0.00  0.00    +0.000 A 
ATOM     14  F   UNL     1       6.445   4.548  13.539  0.00  0.00    +0.000 F 
ATOM     15  C   UNL     1       5.018   4.247  15.354  0.00  0.00    +0.000 A 
ENDBRANCH   2   9
BRANCH   6  16
ATOM     16  C   UNL     1       1.038   6.642  20.573  0.00  0.00    +0.000 C 
BRANCH  16  17
ATOM     17  N   UNL     1       1.399   8.006  20.951  0.00  0.00    +0.000 NA
ATOM     18  H   UNL     1       2.337   8.026  21.362  0.00  0.00    +0.000 HD
BRANCH  17  19
ATOM     19  C   UNL     1       1.402   8.915  19.804  0.00  0.00    +0.000 C 
BRANCH  19  20
ATOM     20  C   UNL     1       0.313   9.962  19.934  0.00  0.00    +0.000 A 
ATOM     21  C   UNL     1       0.358  10.873  20.969  0.00  0.00    +0.000 A 
ATOM     22  C   UNL     1      -0.603  11.874  21.032  0.00  0.00    +0.000 A 
ATOM     23  C   UNL     1      -1.572  11.944  20.029  0.00  0.00    +0.000 A 
ATOM     24  C   UNL     1      -1.552  10.990  19.012  0.00  0.00    +0.000 A 
ATOM     25  N   UNL     1      -0.632   9.988  18.957  0.00  0.00    +0.000 NA
BRANCH  24  26
ATOM     26  N   UNL     1      -2.529  11.074  17.975  0.00  0.00    +0.000 N 
ATOM     27  C   UNL     1      -2.358  10.694  16.659  0.00  0.00    +0.000 A 
ATOM     28  C   UNL     1      -3.527  10.987  16.000  0.00  0.00    +0.000 A 
ATOM     29  C   UNL     1      -4.355  11.546  16.984  0.00  0.00    +0.000 A 
ATOM     30  N   UNL     1      -3.775  11.583  18.185  0.00  0.00    +0.000 NA
ENDBRANCH  24  26
ENDBRANCH  19  20
ENDBRANCH  17  19
ENDBRANCH  16  17
ENDBRANCH   6  16
TORSDOF 6
ENDMDL
MODEL 8
REMARK VINA RESULT:      -7.6      5.743      7.591
REMARK  Name = 
REMARK  6 active torsions:
REMARK  status: ('A' for Active; 'I' for Inactive)
REMARK    1  A    between atoms: C_2  and  C_3
REMARK    2  A    between atoms: C_13  and  C_14
REMARK    3  A    between atoms: C_14  and  N_15
REMARK    4  A    between atoms: N_15  and  C_16
REMARK    5  A    between atoms: C_16  and  C_17
REMARK    6  A    between atoms: C_21  and  N_22
REMARK                            x       y       z     vdW  Elec       q    Type
REMARK                         _______ _______ _______ _____ _____    ______ ____
ROOT
ATOM      1  O   UNL     1       4.299   2.381  17.237  0.00  0.00    +0.000 OA
ATOM      2  C   UNL     1       4.270   3.360  17.960  0.00  0.00    +0.000 C 
ATOM      3  N   UNL     1       5.197   4.398  17.895  0.00  0.00    +0.000 N 
ATOM      4  C   UNL     1       5.327   5.550  18.797  0.00  0.00    +0.000 C 
ATOM      5  C   UNL     1       5.024   6.836  18.020  0.00  0.00    +0.000 C 
ATOM      6  C   UNL     1       5.950   6.967  16.807  0.00  0.00    +0.000 C 
ATOM      7  C   UNL     1       5.874   5.688  15.942  0.00  0.00    +0.000 C 
ATOM      8  C   UNL     1       6.115   4.422  16.764  0.00  0.00    +0.000 C 
ENDROOT
BRANCH   2   9
ATOM      9  C   UNL     1       3.160   3.440  18.950  0.00  0.00    +0.000 A 
ATOM     10  C   UNL     1       2.025   4.214  18.682  0.00  0.00    +0.000 A 
ATOM     11  C   UNL     1       0.987   4.251  19.617  0.00  0.00    +0.000 A 
ATOM     12  C   UNL     1       1.057   3.491  20.780  0.00  0.00    +0.000 A 
ATOM     13  C   UNL     1       2.202   2.762  21.055  0.00  0.00    +0.000 A 
ATOM     14  F   UNL     1       2.297   2.037  22.175  0.00  0.00    +0.000 F 
ATOM     15  C   UNL     1       3.256   2.787  20.191  0.00  0.00    +0.000 A 
ENDBRANCH   2   9
BRANCH   6  16
ATOM     16  C   UNL     1       7.396   7.286  17.231  0.00  0.00    +0.000 C 
BRANCH  16  17
ATOM     17  N   UNL     1       7.540   8.584  17.885  0.00  0.00    +0.000 NA
ATOM     18  H   UNL     1       6.762   8.746  18.531  0.00  0.00    +0.000 HD
BRANCH  17  19
ATOM     19  C   UNL     1       8.779   8.680  18.658  0.00  0.00    +0.000 C 
BRANCH  19  20
ATOM     20  C   UNL     1       9.163  10.127  18.898  0.00  0.00    +0.000 A 
ATOM     21  C   UNL     1       9.622  10.897  17.849  0.00  0.00    +0.000 A 
ATOM     22  C   UNL     1       9.897  12.241  18.066  0.00  0.00    +0.000 A 
ATOM     23  C   UNL     1       9.675  12.779  19.335  0.00  0.00    +0.000 A 
ATOM     24  C   UNL     1       9.208  11.939  20.346  0.00  0.00    +0.000 A 
ATOM     25  N   UNL     1       8.962  10.615  20.151  0.00  0.00    +0.000 NA
BRANCH  24  26
ATOM     26  N   UNL     1       8.960  12.494  21.638  0.00  0.00    +0.000 N 
ATOM     27  C   UNL     1       8.325  11.864  22.689  0.00  0.00    +0.000 A 
ATOM     28  C   UNL     1       8.260  12.769  23.721  0.00  0.00    +0.000 A 
ATOM     29  C   UNL     1       8.874  13.924  23.214  0.00  0.00    +0.000 A 
ATOM     30  N   UNL     1       9.323  13.765  21.968  0.00  0.00    +0.000 NA
ENDBRANCH  24  26
ENDBRANCH  19  20
ENDBRANCH  17  19
ENDBRANCH  16  17
ENDBRANCH   6  16
TORSDOF 6
ENDMDL
MODEL 9
REMARK VINA RESULT:      -7.6      5.100      7.540
REMARK  Name = 
REMARK  6 active torsions:
REMARK  status: ('A' for Active; 'I' for Inactive)
REMARK    1  A    between atoms: C_2  and  C_3
REMARK    2  A    between atoms: C_13  and  C_14
REMARK    3  A    between atoms: C_14  and  N_15
REMARK    4  A    between atoms: N_15  and  C_16
REMARK    5  A    between atoms: C_16  and  C_17
REMARK    6  A    between atoms: C_21  and  N_22
REMARK                            x       y       z     vdW  Elec       q    Type
REMARK                         _______ _______ _______ _____ _____    ______ ____
ROOT
ATOM      1  O   UNL     1       3.045   6.410  17.737  0.00  0.00    +0.000 OA
ATOM      2  C   UNL     1       2.472   6.502  18.807  0.00  0.00    +0.000 C 
ATOM      3  N   UNL     1       2.151   7.716  19.412  0.00  0.00    +0.000 N 
ATOM      4  C   UNL     1       1.582   7.936  20.748  0.00  0.00    +0.000 C 
ATOM      5  C   UNL     1       0.184   8.546  20.607  0.00  0.00    +0.000 C 
ATOM      6  C   UNL     1       0.239   9.847  19.800  0.00  0.00    +0.000 C 
ATOM      7  C   UNL     1       0.948   9.602  18.448  0.00  0.00    +0.000 C 
ATOM      8  C   UNL     1       2.310   8.931  18.625  0.00  0.00    +0.000 C 
ENDROOT
BRANCH   2   9
ATOM      9  C   UNL     1       2.086   5.231  19.482  0.00  0.00    +0.000 A 
ATOM     10  C   UNL     1       2.437   5.003  20.817  0.00  0.00    +0.000 A 
ATOM     11  C   UNL     1       2.040   3.814  21.435  0.00  0.00    +0.000 A 
ATOM     12  C   UNL     1       1.264   2.887  20.747  0.00  0.00    +0.000 A 
ATOM     13  C   UNL     1       0.958   3.103  19.414  0.00  0.00    +0.000 A 
ATOM     14  F   UNL     1       0.227   2.217  18.729  0.00  0.00    +0.000 F 
ATOM     15  C   UNL     1       1.413   4.219  18.777  0.00  0.00    +0.000 A 
ENDBRANCH   2   9
BRANCH   6  16
ATOM     16  C   UNL     1       0.908  10.980  20.599  0.00  0.00    +0.000 C 
BRANCH  16  17
ATOM     17  N   UNL     1       0.226  11.293  21.852  0.00  0.00    +0.000 NA
ATOM     18  H   UNL     1       0.871  11.201  22.642  0.00  0.00    +0.000 HD
BRANCH  17  19
ATOM     19  C   UNL     1      -0.299  12.660  21.870  0.00  0.00    +0.000 C 
BRANCH  19  20
ATOM     20  C   UNL     1      -1.804  12.669  21.688  0.00  0.00    +0.000 A 
ATOM     21  C   UNL     1      -2.615  13.118  22.710  0.00  0.00    +0.000 A 
ATOM     22  C   UNL     1      -3.986  13.194  22.502  0.00  0.00    +0.000 A 
ATOM     23  C   UNL     1      -4.501  12.839  21.253  0.00  0.00    +0.000 A 
ATOM     24  C   UNL     1      -3.619  12.397  20.267  0.00  0.00    +0.000 A 
ATOM     25  N   UNL     1      -2.277  12.292  20.470  0.00  0.00    +0.000 NA
BRANCH  24  26
ATOM     26  N   UNL     1      -4.141  12.054  18.984  0.00  0.00    +0.000 N 
ATOM     27  C   UNL     1      -3.422  11.560  17.915  0.00  0.00    +0.000 A 
ATOM     28  C   UNL     1      -4.303  11.413  16.870  0.00  0.00    +0.000 A 
ATOM     29  C   UNL     1      -5.535  11.842  17.386  0.00  0.00    +0.000 A 
ATOM     30  N   UNL     1      -5.458  12.209  18.667  0.00  0.00    +0.000 NA
ENDBRANCH  24  26
ENDBRANCH  19  20
ENDBRANCH  17  19
ENDBRANCH  16  17
ENDBRANCH   6  16
TORSDOF 6
ENDMDL
