MODEL 1
REMARK VINA RESULT:      -7.6      0.000      0.000
REMARK  Name = 
REMARK  5 active torsions:
REMARK  status: ('A' for Active; 'I' for Inactive)
REMARK    1  A    between atoms: C_1  and  O_2
REMARK    2  A    between atoms: O_2  and  C_3
REMARK    3  A    between atoms: C_8  and  O_9
REMARK    4  A    between atoms: O_9  and  C_10
REMARK    5  A    between atoms: C_11  and  C_12
REMARK                            x       y       z     vdW  Elec       q    Type
REMARK                         _______ _______ _______ _____ _____    ______ ____
ROOT
ATOM      1  C   UNL     1       6.383   5.205  17.193  0.00  0.00    +0.000 A 
ATOM      2  C   UNL     1       5.397   4.248  17.495  0.00  0.00    +0.000 A 
ATOM      3  C   UNL     1       4.088   4.657  17.701  0.00  0.00    +0.000 A 
ATOM      4  C   UNL     1       3.747   6.005  17.582  0.00  0.00    +0.000 A 
ATOM      5  C   UNL     1       4.697   6.952  17.209  0.00  0.00    +0.000 A 
ATOM      6  C   UNL     1       6.031   6.565  17.029  0.00  0.00    +0.000 A 
ATOM      7  C   UNL     1       2.272   6.229  17.834  0.00  0.00    +0.000 C 
ATOM      8  C   UNL     1       1.842   4.862  18.473  0.00  0.00    +0.000 C 
ATOM      9  C   UNL     1       1.784   4.878  20.014  0.00  0.00    +0.000 C 
ATOM     10  C   UNL     1       1.834   3.479  20.605  0.00  0.00    +0.000 C 
ATOM     11  C   UNL     1       3.086   2.775  20.110  0.00  0.00    +0.000 C 
ATOM     12  N   UNL     1       3.035   2.581  18.663  0.00  0.00    +0.000 NA
ATOM     13  C   UNL     1       2.856   3.820  17.913  0.00  0.00    +0.000 C 
ATOM     14  H   UNL     1       2.249   1.966  18.455  0.00  0.00    +0.000 HD
ENDROOT
BRANCH   7  15
ATOM     15  C   UNL     1       1.931   7.460  18.648  0.00  0.00    +0.000 A 
ATOM     16  C   UNL     1       1.913   7.465  20.052  0.00  0.00    +0.000 A 
ATOM     17  C   UNL     1       1.528   8.606  20.747  0.00  0.00    +0.000 A 
ATOM     18  C   UNL     1       1.172   9.721  20.013  0.00  0.00    +0.000 A 
ATOM     19  N   UNL     1       1.187   9.768  18.664  0.00  0.00    +0.000 NA
ATOM     20  C   UNL     1       1.561   8.641  18.015  0.00  0.00    +0.000 A 
ENDBRANCH   7  15
BRANCH   1  22
ATOM     21  C   UNL     1       8.392   4.418  18.189  0.00  0.00    +0.000 C 
ATOM     22  O   UNL     1       7.630   4.657  17.013  0.00  0.00    +0.000 OA
ENDBRANCH   1  22
BRANCH   6  23
ATOM     23  O   UNL     1       7.016   7.448  16.668  0.00  0.00    +0.000 OA
ATOM     24  C   UNL     1       7.766   8.074  17.701  0.00  0.00    +0.000 C 
ENDBRANCH   6  23
TORSDOF 3
ENDMDL
MODEL 2
REMARK VINA RESULT:      -7.5      0.950      1.080
REMARK  Name = 
REMARK  5 active torsions:
REMARK  status: ('A' for Active; 'I' for Inactive)
REMARK    1  A    between atoms: C_1  and  O_2
REMARK    2  A    between atoms: O_2  and  C_3
REMARK    3  A    between atoms: C_8  and  O_9
REMARK    4  A    between atoms: O_9  and  C_10
REMARK    5  A    between atoms: C_11  and  C_12
REMARK                            x       y       z     vdW  Elec       q    Type
REMARK                         _______ _______ _______ _____ _____    ______ ____
ROOT
ATOM      1  C   UNL     1       6.168   5.220  16.632  0.00  0.00    +0.000 A 
ATOM      2  C   UNL     1       5.209   4.201  16.777  0.00  0.00    +0.000 A 
ATOM      3  C   UNL     1       3.932   4.521  17.211  0.00  0.00    +0.000 A 
ATOM      4  C   UNL     1       3.594   5.848  17.477  0.00  0.00    +0.000 A 
ATOM      5  C   UNL     1       4.509   6.875  17.265  0.00  0.00    +0.000 A 
ATOM      6  C   UNL     1       5.815   6.570  16.858  0.00  0.00    +0.000 A 
ATOM      7  C   UNL     1       2.154   5.975  17.925  0.00  0.00    +0.000 C 
ATOM      8  C   UNL     1       1.778   4.483  18.232  0.00  0.00    +0.000 C 
ATOM      9  C   UNL     1       1.878   4.104  19.724  0.00  0.00    +0.000 C 
ATOM     10  C   UNL     1       1.975   2.602  19.929  0.00  0.00    +0.000 C 
ATOM     11  C   UNL     1       3.163   2.069  19.147  0.00  0.00    +0.000 C 
ATOM     12  N   UNL     1       2.964   2.250  17.711  0.00  0.00    +0.000 NA
ATOM     13  C   UNL     1       2.720   3.636  17.325  0.00  0.00    +0.000 C 
ATOM     14  H   UNL     1       2.154   1.696  17.433  0.00  0.00    +0.000 HD
ENDROOT
BRANCH   7  15
ATOM     15  C   UNL     1       1.909   6.951  19.057  0.00  0.00    +0.000 A 
ATOM     16  C   UNL     1       1.843   6.557  20.402  0.00  0.00    +0.000 A 
ATOM     17  C   UNL     1       1.549   7.486  21.395  0.00  0.00    +0.000 A 
ATOM     18  C   UNL     1       1.332   8.796  21.011  0.00  0.00    +0.000 A 
ATOM     19  N   UNL     1       1.398   9.223  19.733  0.00  0.00    +0.000 NA
ATOM     20  C   UNL     1       1.681   8.296  18.789  0.00  0.00    +0.000 A 
ENDBRANCH   7  15
BRANCH   1  22
ATOM     21  C   UNL     1       7.571   4.700  14.785  0.00  0.00    +0.000 C 
ATOM     22  O   UNL     1       7.386   4.758  16.193  0.00  0.00    +0.000 OA
ENDBRANCH   1  22
BRANCH   6  23
ATOM     23  O   UNL     1       6.766   7.533  16.637  0.00  0.00    +0.000 OA
ATOM     24  C   UNL     1       7.678   7.826  17.688  0.00  0.00    +0.000 C 
ENDBRANCH   6  23
TORSDOF 3
ENDMDL
MODEL 3
REMARK VINA RESULT:      -7.4      0.595      1.017
REMARK  Name = 
REMARK  5 active torsions:
REMARK  status: ('A' for Active; 'I' for Inactive)
REMARK    1  A    between atoms: C_1  and  O_2
REMARK    2  A    between atoms: O_2  and  C_3
REMARK    3  A    between atoms: C_8  and  O_9
REMARK    4  A    between atoms: O_9  and  C_10
REMARK    5  A    between atoms: C_11  and  C_12
REMARK                            x       y       z     vdW  Elec       q    Type
REMARK                         _______ _______ _______ _____ _____    ______ ____
ROOT
ATOM      1  C   UNL     1       6.446   5.234  17.387  0.00  0.00    +0.000 A 
ATOM      2  C   UNL     1       5.484   4.270  17.738  0.00  0.00    +0.000 A 
ATOM      3  C   UNL     1       4.156   4.648  17.874  0.00  0.00    +0.000 A 
ATOM      4  C   UNL     1       3.775   5.969  17.637  0.00  0.00    +0.000 A 
ATOM      5  C   UNL     1       4.704   6.916  17.215  0.00  0.00    +0.000 A 
ATOM      6  C   UNL     1       6.055   6.563  17.104  0.00  0.00    +0.000 A 
ATOM      7  C   UNL     1       2.286   6.160  17.828  0.00  0.00    +0.000 C 
ATOM      8  C   UNL     1       1.882   4.834  18.564  0.00  0.00    +0.000 C 
ATOM      9  C   UNL     1       1.776   4.972  20.096  0.00  0.00    +0.000 C 
ATOM     10  C   UNL     1       1.855   3.628  20.800  0.00  0.00    +0.000 C 
ATOM     11  C   UNL     1       3.144   2.931  20.399  0.00  0.00    +0.000 C 
ATOM     12  N   UNL     1       3.144   2.620  18.972  0.00  0.00    +0.000 NA
ATOM     13  C   UNL     1       2.946   3.787  18.118  0.00  0.00    +0.000 C 
ATOM     14  H   UNL     1       2.384   1.963  18.793  0.00  0.00    +0.000 HD
ENDROOT
BRANCH   7  15
ATOM     15  C   UNL     1       1.880   7.440  18.530  0.00  0.00    +0.000 A 
ATOM     16  C   UNL     1       1.515   8.605  17.838  0.00  0.00    +0.000 A 
ATOM     17  C   UNL     1       1.216   9.772  18.533  0.00  0.00    +0.000 A 
ATOM     18  C   UNL     1       1.288   9.740  19.913  0.00  0.00    +0.000 A 
ATOM     19  N   UNL     1       1.622   8.640  20.621  0.00  0.00    +0.000 NA
ATOM     20  C   UNL     1       1.912   7.521  19.917  0.00  0.00    +0.000 A 
ENDBRANCH   7  15
BRANCH   1  22
ATOM     21  C   UNL     1       8.433   4.562  18.505  0.00  0.00    +0.000 C 
ATOM     22  O   UNL     1       7.716   4.718  17.287  0.00  0.00    +0.000 OA
ENDBRANCH   1  22
BRANCH   6  23
ATOM     23  O   UNL     1       7.021   7.448  16.699  0.00  0.00    +0.000 OA
ATOM     24  C   UNL     1       7.714   8.186  17.699  0.00  0.00    +0.000 C 
ENDBRANCH   6  23
TORSDOF 3
ENDMDL
MODEL 4
REMARK VINA RESULT:      -7.0      4.473      8.300
REMARK  Name = 
REMARK  5 active torsions:
REMARK  status: ('A' for Active; 'I' for Inactive)
REMARK    1  A    between atoms: C_1  and  O_2
REMARK    2  A    between atoms: O_2  and  C_3
REMARK    3  A    between atoms: C_8  and  O_9
REMARK    4  A    between atoms: O_9  and  C_10
REMARK    5  A    between atoms: C_11  and  C_12
REMARK                            x       y       z     vdW  Elec       q    Type
REMARK                         _______ _______ _______ _____ _____    ______ ____
ROOT
ATOM      1  C   UNL     1       0.913  14.459  18.859  0.00  0.00    +0.000 A 
ATOM      2  C   UNL     1      -0.355  13.880  18.678  0.00  0.00    +0.000 A 
ATOM      3  C   UNL     1      -0.541  12.537  18.969  0.00  0.00    +0.000 A 
ATOM      4  C   UNL     1       0.517  11.773  19.462  0.00  0.00    +0.000 A 
ATOM      5  C   UNL     1       1.757  12.351  19.718  0.00  0.00    +0.000 A 
ATOM      6  C   UNL     1       1.976  13.698  19.400  0.00  0.00    +0.000 A 
ATOM      7  C   UNL     1       0.096  10.343  19.723  0.00  0.00    +0.000 C 
ATOM      8  C   UNL     1      -1.282  10.271  18.975  0.00  0.00    +0.000 C 
ATOM      9  C   UNL     1      -1.200   9.656  17.564  0.00  0.00    +0.000 C 
ATOM     10  C   UNL     1      -2.401  10.021  16.708  0.00  0.00    +0.000 C 
ATOM     11  C   UNL     1      -2.524  11.534  16.642  0.00  0.00    +0.000 C 
ATOM     12  N   UNL     1      -2.807  12.091  17.963  0.00  0.00    +0.000 NA
ATOM     13  C   UNL     1      -1.815  11.735  18.972  0.00  0.00    +0.000 C 
ATOM     14  H   UNL     1      -3.712  11.734  18.267  0.00  0.00    +0.000 HD
ENDROOT
BRANCH   7  15
ATOM     15  C   UNL     1       1.105   9.286  19.325  0.00  0.00    +0.000 A 
ATOM     16  C   UNL     1       1.732   9.265  18.070  0.00  0.00    +0.000 A 
ATOM     17  C   UNL     1       2.601   8.232  17.734  0.00  0.00    +0.000 A 
ATOM     18  C   UNL     1       2.822   7.242  18.671  0.00  0.00    +0.000 A 
ATOM     19  N   UNL     1       2.252   7.226  19.895  0.00  0.00    +0.000 NA
ATOM     20  C   UNL     1       1.408   8.242  20.192  0.00  0.00    +0.000 A 
ENDBRANCH   7  15
BRANCH   1  22
ATOM     21  C   UNL     1      -0.287  16.493  18.590  0.00  0.00    +0.000 C 
ATOM     22  O   UNL     1       0.950  15.794  18.533  0.00  0.00    +0.000 OA
ENDBRANCH   1  22
BRANCH   6  23
ATOM     23  O   UNL     1       3.174  14.326  19.620  0.00  0.00    +0.000 OA
ATOM     24  C   UNL     1       3.560  14.578  20.966  0.00  0.00    +0.000 C 
ENDBRANCH   6  23
TORSDOF 3
ENDMDL
MODEL 5
REMARK VINA RESULT:      -6.9      1.116      1.415
REMARK  Name = 
REMARK  5 active torsions:
REMARK  status: ('A' for Active; 'I' for Inactive)
REMARK    1  A    between atoms: C_1  and  O_2
REMARK    2  A    between atoms: O_2  and  C_3
REMARK    3  A    between atoms: C_8  and  O_9
REMARK    4  A    between atoms: O_9  and  C_10
REMARK    5  A    between atoms: C_11  and  C_12
REMARK                            x       y       z     vdW  Elec       q    Type
REMARK                         _______ _______ _______ _____ _____    ______ ____
ROOT
ATOM      1  C   UNL     1       6.158   5.297  16.695  0.00  0.00    +0.000 A 
ATOM      2  C   UNL     1       5.210   4.270  16.843  0.00  0.00    +0.000 A 
ATOM      3  C   UNL     1       3.917   4.583  17.235  0.00  0.00    +0.000 A 
ATOM      4  C   UNL     1       3.554   5.913  17.453  0.00  0.00    +0.000 A 
ATOM      5  C   UNL     1       4.460   6.946  17.236  0.00  0.00    +0.000 A 
ATOM      6  C   UNL     1       5.780   6.649  16.873  0.00  0.00    +0.000 A 
ATOM      7  C   UNL     1       2.100   6.032  17.858  0.00  0.00    +0.000 C 
ATOM      8  C   UNL     1       1.737   4.543  18.199  0.00  0.00    +0.000 C 
ATOM      9  C   UNL     1       1.801   4.208  19.702  0.00  0.00    +0.000 C 
ATOM     10  C   UNL     1       1.913   2.714  19.953  0.00  0.00    +0.000 C 
ATOM     11  C   UNL     1       3.130   2.176  19.218  0.00  0.00    +0.000 C 
ATOM     12  N   UNL     1       2.966   2.314  17.773  0.00  0.00    +0.000 NA
ATOM     13  C   UNL     1       2.714   3.685  17.341  0.00  0.00    +0.000 C 
ATOM     14  H   UNL     1       2.172   1.740  17.490  0.00  0.00    +0.000 HD
ENDROOT
BRANCH   7  15
ATOM     15  C   UNL     1       1.812   7.036  18.955  0.00  0.00    +0.000 A 
ATOM     16  C   UNL     1       1.499   8.379  18.696  0.00  0.00    +0.000 A 
ATOM     17  C   UNL     1       1.310   9.273  19.744  0.00  0.00    +0.000 A 
ATOM     18  C   UNL     1       1.436   8.794  21.034  0.00  0.00    +0.000 A 
ATOM     19  N   UNL     1       1.722   7.509  21.332  0.00  0.00    +0.000 NA
ATOM     20  C   UNL     1       1.906   6.663  20.292  0.00  0.00    +0.000 A 
ENDBRANCH   7  15
BRANCH   1  22
ATOM     21  C   UNL     1       7.625   4.766  14.901  0.00  0.00    +0.000 C 
ATOM     22  O   UNL     1       7.393   4.841  16.302  0.00  0.00    +0.000 OA
ENDBRANCH   1  22
BRANCH   6  23
ATOM     23  O   UNL     1       6.724   7.618  16.650  0.00  0.00    +0.000 OA
ATOM     24  C   UNL     1       7.663   7.889  17.684  0.00  0.00    +0.000 C 
ENDBRANCH   6  23
TORSDOF 3
ENDMDL
MODEL 6
REMARK VINA RESULT:      -6.9      2.715      5.430
REMARK  Name = 
REMARK  5 active torsions:
REMARK  status: ('A' for Active; 'I' for Inactive)
REMARK    1  A    between atoms: C_1  and  O_2
REMARK    2  A    between atoms: O_2  and  C_3
REMARK    3  A    between atoms: C_8  and  O_9
REMARK    4  A    between atoms: O_9  and  C_10
REMARK    5  A    between atoms: C_11  and  C_12
REMARK                            x       y       z     vdW  Elec       q    Type
REMARK                         _______ _______ _______ _____ _____    ______ ____
ROOT
ATOM      1  C   UNL     1       1.956   7.806  18.909  0.00  0.00    +0.000 A 
ATOM      2  C   UNL     1       2.251   6.623  19.610  0.00  0.00    +0.000 A 
ATOM      3  C   UNL     1       3.366   5.879  19.258  0.00  0.00    +0.000 A 
ATOM      4  C   UNL     1       4.205   6.317  18.232  0.00  0.00    +0.000 A 
ATOM      5  C   UNL     1       3.969   7.524  17.581  0.00  0.00    +0.000 A 
ATOM      6  C   UNL     1       2.829   8.274  17.899  0.00  0.00    +0.000 A 
ATOM      7  C   UNL     1       5.365   5.367  18.020  0.00  0.00    +0.000 C 
ATOM      8  C   UNL     1       4.903   4.106  18.832  0.00  0.00    +0.000 C 
ATOM      9  C   UNL     1       4.254   3.005  17.969  0.00  0.00    +0.000 C 
ATOM     10  C   UNL     1       3.415   2.047  18.797  0.00  0.00    +0.000 C 
ATOM     11  C   UNL     1       2.364   2.837  19.559  0.00  0.00    +0.000 C 
ATOM     12  N   UNL     1       2.991   3.736  20.526  0.00  0.00    +0.000 NA
ATOM     13  C   UNL     1       3.946   4.663  19.929  0.00  0.00    +0.000 C 
ATOM     14  H   UNL     1       3.486   3.165  21.210  0.00  0.00    +0.000 HD
ENDROOT
BRANCH   7  15
ATOM     15  C   UNL     1       5.735   5.107  16.575  0.00  0.00    +0.000 A 
ATOM     16  C   UNL     1       4.849   4.526  15.653  0.00  0.00    +0.000 A 
ATOM     17  C   UNL     1       5.265   4.249  14.356  0.00  0.00    +0.000 A 
ATOM     18  C   UNL     1       6.565   4.565  14.011  0.00  0.00    +0.000 A 
ATOM     19  N   UNL     1       7.448   5.135  14.858  0.00  0.00    +0.000 NA
ATOM     20  C   UNL     1       7.017   5.390  16.115  0.00  0.00    +0.000 A 
ENDBRANCH   7  15
BRANCH   1  22
ATOM     21  C   UNL     1       0.773   8.712  20.761  0.00  0.00    +0.000 C 
ATOM     22  O   UNL     1       0.826   8.439  19.367  0.00  0.00    +0.000 OA
ENDBRANCH   1  22
BRANCH   6  23
ATOM     23  O   UNL     1       2.534   9.468  17.293  0.00  0.00    +0.000 OA
ATOM     24  C   UNL     1       2.372  10.615  18.117  0.00  0.00    +0.000 C 
ENDBRANCH   6  23
TORSDOF 3
ENDMDL
MODEL 7
REMARK VINA RESULT:      -6.9      3.345      5.764
REMARK  Name = 
REMARK  5 active torsions:
REMARK  status: ('A' for Active; 'I' for Inactive)
REMARK    1  A    between atoms: C_1  and  O_2
REMARK    2  A    between atoms: O_2  and  C_3
REMARK    3  A    between atoms: C_8  and  O_9
REMARK    4  A    between atoms: O_9  and  C_10
REMARK    5  A    between atoms: C_11  and  C_12
REMARK                            x       y       z     vdW  Elec       q    Type
REMARK                         _______ _______ _______ _____ _____    ______ ____
ROOT
ATOM      1  C   UNL     1       2.624   4.184  17.905  0.00  0.00    +0.000 A 
ATOM      2  C   UNL     1       3.507   3.597  16.980  0.00  0.00    +0.000 A 
ATOM      3  C   UNL     1       4.848   3.948  16.998  0.00  0.00    +0.000 A 
ATOM      4  C   UNL     1       5.323   4.857  17.944  0.00  0.00    +0.000 A 
ATOM      5  C   UNL     1       4.476   5.387  18.913  0.00  0.00    +0.000 A 
ATOM      6  C   UNL     1       3.111   5.072  18.892  0.00  0.00    +0.000 A 
ATOM      7  C   UNL     1       6.811   5.088  17.795  0.00  0.00    +0.000 C 
ATOM      8  C   UNL     1       7.097   4.453  16.389  0.00  0.00    +0.000 C 
ATOM      9  C   UNL     1       7.143   5.475  15.235  0.00  0.00    +0.000 C 
ATOM     10  C   UNL     1       6.949   4.819  13.879  0.00  0.00    +0.000 C 
ATOM     11  C   UNL     1       5.637   4.052  13.881  0.00  0.00    +0.000 C 
ATOM     12  N   UNL     1       5.680   2.951  14.840  0.00  0.00    +0.000 NA
ATOM     13  C   UNL     1       5.989   3.373  16.202  0.00  0.00    +0.000 C 
ATOM     14  H   UNL     1       6.403   2.298  14.538  0.00  0.00    +0.000 HD
ENDROOT
BRANCH   7  15
ATOM     15  C   UNL     1       7.266   6.523  17.963  0.00  0.00    +0.000 A 
ATOM     16  C   UNL     1       6.736   7.583  17.211  0.00  0.00    +0.000 A 
ATOM     17  C   UNL     1       7.238   8.871  17.360  0.00  0.00    +0.000 A 
ATOM     18  C   UNL     1       8.263   9.066  18.266  0.00  0.00    +0.000 A 
ATOM     19  N   UNL     1       8.796   8.080  19.019  0.00  0.00    +0.000 NA
ATOM     20  C   UNL     1       8.290   6.837  18.850  0.00  0.00    +0.000 A 
ENDBRANCH   7  15
BRANCH   1  22
ATOM     21  C   UNL     1       0.971   2.596  18.533  0.00  0.00    +0.000 C 
ATOM     22  O   UNL     1       1.330   3.742  17.772  0.00  0.00    +0.000 OA
ENDBRANCH   1  22
BRANCH   6  23
ATOM     23  O   UNL     1       2.222   5.565  19.813  0.00  0.00    +0.000 OA
ATOM     24  C   UNL     1       2.134   4.912  21.073  0.00  0.00    +0.000 C 
ENDBRANCH   6  23
TORSDOF 3
ENDMDL
MODEL 8
REMARK VINA RESULT:      -6.8      5.139      9.060
REMARK  Name = 
REMARK  5 active torsions:
REMARK  status: ('A' for Active; 'I' for Inactive)
REMARK    1  A    between atoms: C_1  and  O_2
REMARK    2  A    between atoms: O_2  and  C_3
REMARK    3  A    between atoms: C_8  and  O_9
REMARK    4  A    between atoms: O_9  and  C_10
REMARK    5  A    between atoms: C_11  and  C_12
REMARK                            x       y       z     vdW  Elec       q    Type
REMARK                         _______ _______ _______ _____ _____    ______ ____
ROOT
ATOM      1  C   UNL     1      -3.848  11.147  17.686  0.00  0.00    +0.000 A 
ATOM      2  C   UNL     1      -3.457  11.954  18.769  0.00  0.00    +0.000 A 
ATOM      3  C   UNL     1      -2.166  11.853  19.266  0.00  0.00    +0.000 A 
ATOM      4  C   UNL     1      -1.255  10.976  18.676  0.00  0.00    +0.000 A 
ATOM      5  C   UNL     1      -1.605  10.228  17.556  0.00  0.00    +0.000 A 
ATOM      6  C   UNL     1      -2.913  10.290  17.059  0.00  0.00    +0.000 A 
ATOM      7  C   UNL     1       0.094  11.033  19.362  0.00  0.00    +0.000 C 
ATOM      8  C   UNL     1      -0.247  11.814  20.679  0.00  0.00    +0.000 C 
ATOM      9  C   UNL     1      -0.479  10.908  21.905  0.00  0.00    +0.000 C 
ATOM     10  C   UNL     1      -1.246  11.620  23.007  0.00  0.00    +0.000 C 
ATOM     11  C   UNL     1      -2.562  12.132  22.446  0.00  0.00    +0.000 C 
ATOM     12  N   UNL     1      -2.329  13.146  21.420  0.00  0.00    +0.000 NA
ATOM     13  C   UNL     1      -1.488  12.684  20.321  0.00  0.00    +0.000 C 
ATOM     14  H   UNL     1      -1.868  13.940  21.862  0.00  0.00    +0.000 HD
ENDROOT
BRANCH   7  15
ATOM     15  C   UNL     1       0.778   9.696  19.559  0.00  0.00    +0.000 A 
ATOM     16  C   UNL     1       0.664   8.949  20.742  0.00  0.00    +0.000 A 
ATOM     17  C   UNL     1       1.368   7.760  20.894  0.00  0.00    +0.000 A 
ATOM     18  C   UNL     1       2.172   7.345  19.849  0.00  0.00    +0.000 A 
ATOM     19  N   UNL     1       2.304   8.023  18.690  0.00  0.00    +0.000 NA
ATOM     20  C   UNL     1       1.610   9.179  18.572  0.00  0.00    +0.000 A 
ENDBRANCH   7  15
BRANCH   1  22
ATOM     21  C   UNL     1      -6.154  11.012  18.248  0.00  0.00    +0.000 C 
ATOM     22  O   UNL     1      -5.150  11.354  17.300  0.00  0.00    +0.000 OA
ENDBRANCH   1  22
BRANCH   6  23
ATOM     23  O   UNL     1      -3.325   9.575  15.964  0.00  0.00    +0.000 OA
ATOM     24  C   UNL     1      -3.047  10.106  14.675  0.00  0.00    +0.000 C 
ENDBRANCH   6  23
TORSDOF 3
ENDMDL
MODEL 9
REMARK VINA RESULT:      -6.8      3.156      5.670
REMARK  Name = 
REMARK  5 active torsions:
REMARK  status: ('A' for Active; 'I' for Inactive)
REMARK    1  A    between atoms: C_1  and  O_2
REMARK    2  A    between atoms: O_2  and  C_3
REMARK    3  A    between atoms: C_8  and  O_9
REMARK    4  A    between atoms: O_9  and  C_10
REMARK    5  A    between atoms: C_11  and  C_12
REMARK                            x       y       z     vdW  Elec       q    Type
REMARK                         _______ _______ _______ _____ _____    ______ ____
ROOT
ATOM      1  C   UNL     1       2.678   4.280  17.897  0.00  0.00    +0.000 A 
ATOM      2  C   UNL     1       3.542   3.661  16.977  0.00  0.00    +0.000 A 
ATOM      3  C   UNL     1       4.888   3.993  16.972  0.00  0.00    +0.000 A 
ATOM      4  C   UNL     1       5.386   4.916  17.893  0.00  0.00    +0.000 A 
ATOM      5  C   UNL     1       4.557   5.480  18.859  0.00  0.00    +0.000 A 
ATOM      6  C   UNL     1       3.188   5.183  18.859  0.00  0.00    +0.000 A 
ATOM      7  C   UNL     1       6.875   5.123  17.723  0.00  0.00    +0.000 C 
ATOM      8  C   UNL     1       7.137   4.454  16.328  0.00  0.00    +0.000 C 
ATOM      9  C   UNL     1       7.185   5.449  15.152  0.00  0.00    +0.000 C 
ATOM     10  C   UNL     1       6.966   4.766  13.812  0.00  0.00    +0.000 C 
ATOM     11  C   UNL     1       5.644   4.018  13.845  0.00  0.00    +0.000 C 
ATOM     12  N   UNL     1       5.683   2.938  14.828  0.00  0.00    +0.000 NA
ATOM     13  C   UNL     1       6.012   3.386  16.177  0.00  0.00    +0.000 C 
ATOM     14  H   UNL     1       6.394   2.269  14.533  0.00  0.00    +0.000 HD
ENDROOT
BRANCH   7  15
ATOM     15  C   UNL     1       7.352   6.555  17.854  0.00  0.00    +0.000 A 
ATOM     16  C   UNL     1       8.341   6.949  18.768  0.00  0.00    +0.000 A 
ATOM     17  C   UNL     1       8.692   8.289  18.892  0.00  0.00    +0.000 A 
ATOM     18  C   UNL     1       8.040   9.205  18.089  0.00  0.00    +0.000 A 
ATOM     19  N   UNL     1       7.093   8.873  17.187  0.00  0.00    +0.000 NA
ATOM     20  C   UNL     1       6.769   7.562  17.092  0.00  0.00    +0.000 A 
ENDBRANCH   7  15
BRANCH   1  22
ATOM     21  C   UNL     1       1.043   2.655  18.476  0.00  0.00    +0.000 C 
ATOM     22  O   UNL     1       1.376   3.854  17.788  0.00  0.00    +0.000 OA
ENDBRANCH   1  22
BRANCH   6  23
ATOM     23  O   UNL     1       2.316   5.708  19.778  0.00  0.00    +0.000 OA
ATOM     24  C   UNL     1       2.119   4.999  20.995  0.00  0.00    +0.000 C 
ENDBRANCH   6  23
TORSDOF 3
ENDMDL
