MODEL 1
REMARK VINA RESULT:      -8.0      0.000      0.000
REMARK  Name = 
REMARK  12 active torsions:
REMARK  status: ('A' for Active; 'I' for Inactive)
REMARK    1  A    between atoms: C_1  and  C_2
REMARK    2  A    between atoms: C_6  and  C_7
REMARK    3  A    between atoms: C_10  and  N_11
REMARK    4  A    between atoms: C_12  and  C_14
REMARK    5  A    between atoms: C_14  and  C_15
REMARK    6  A    between atoms: C_15  and  C_16
REMARK    7  A    between atoms: C_16  and  C_17
REMARK    8  A    between atoms: C_17  and  C_18
REMARK    9  A    between atoms: C_18  and  C_19
REMARK   10  A    between atoms: C_19  and  C_20
REMARK   11  A    between atoms: C_20  and  C_21
REMARK   12  A    between atoms: N_23  and  O_24
REMARK                            x       y       z     vdW  Elec       q    Type
REMARK                         _______ _______ _______ _____ _____    ______ ____
ROOT
ATOM      1  N   UNL     1       3.785   3.449  18.525  0.00  0.00    +0.000 N 
ATOM      2  C   UNL     1       2.497   3.151  18.115  0.00  0.00    +0.000 C 
ATOM      3  O   UNL     1       1.931   3.661  17.147  0.00  0.00    +0.000 OA
ATOM      4  H   UNL     1       4.172   2.969  19.329  0.00  0.00    +0.000 HD
ENDROOT
BRANCH   1  14
ATOM      5  C   UNL     1       6.434   4.148  14.360  0.00  0.00    +0.000 C 
ATOM      6  C   UNL     1       5.986   4.788  15.678  0.00  0.00    +0.000 C 
ATOM      7  C   UNL     1       5.130   6.044  15.400  0.00  0.00    +0.000 C 
ATOM      8  C   UNL     1       4.686   6.700  16.717  0.00  0.00    +0.000 C 
ATOM      9  C   UNL     1       5.915   7.080  17.549  0.00  0.00    +0.000 C 
ATOM     10  C   UNL     1       6.758   5.824  17.865  0.00  0.00    +0.000 C 
ATOM     11  C   UNL     1       7.986   6.221  18.688  0.00  0.00    +0.000 C 
ATOM     12  C   UNL     1       7.208   5.188  16.529  0.00  0.00    +0.000 C 
ATOM     13  C   UNL     1       5.874   4.805  18.639  0.00  0.00    +0.000 C 
ATOM     14  C   UNL     1       4.626   4.410  17.800  0.00  0.00    +0.000 C 
ATOM     15  C   UNL     1       3.833   5.708  17.511  0.00  0.00    +0.000 C 
ATOM     16  C   UNL     1       5.141   3.782  16.480  0.00  0.00    +0.000 C 
ENDBRANCH   1  14
BRANCH   2  17
ATOM     17  C   UNL     1       1.770   2.164  18.981  0.00  0.00    +0.000 C 
BRANCH  17  18
ATOM     18  C   UNL     1       1.423   2.810  20.317  0.00  0.00    +0.000 C 
BRANCH  18  19
ATOM     19  C   UNL     1       0.873   4.228  20.160  0.00  0.00    +0.000 C 
BRANCH  19  20
ATOM     20  C   UNL     1       1.769   5.246  20.860  0.00  0.00    +0.000 C 
BRANCH  20  21
ATOM     21  C   UNL     1       1.785   6.579  20.126  0.00  0.00    +0.000 C 
BRANCH  21  22
ATOM     22  C   UNL     1       1.605   7.731  21.112  0.00  0.00    +0.000 C 
BRANCH  22  23
ATOM     23  C   UNL     1       0.909   8.919  20.457  0.00  0.00    +0.000 C 
BRANCH  23  24
ATOM     24  C   UNL     1       0.674  10.038  21.444  0.00  0.00    +0.000 C 
ATOM     25  O   UNL     1       1.147  11.170  21.347  0.00  0.00    +0.000 OA
ATOM     26  N   UNL     1      -0.133   9.684  22.491  0.00  0.00    +0.000 N 
ATOM     27  H   UNL     1      -0.571   8.780  22.625  0.00  0.00    +0.000 HD
BRANCH  26  28
ATOM     28  O   UNL     1      -0.398  10.685  23.451  0.00  0.00    +0.000 OA
ATOM     29  H   UNL     1      -1.180  11.141  23.062  0.00  0.00    +0.000 HD
ENDBRANCH  26  28
ENDBRANCH  23  24
ENDBRANCH  22  23
ENDBRANCH  21  22
ENDBRANCH  20  21
ENDBRANCH  19  20
ENDBRANCH  18  19
ENDBRANCH  17  18
ENDBRANCH   2  17
TORSDOF 10
ENDMDL
MODEL 2
REMARK VINA RESULT:      -7.8      0.831      1.105
REMARK  Name = 
REMARK  12 active torsions:
REMARK  status: ('A' for Active; 'I' for Inactive)
REMARK    1  A    between atoms: C_1  and  C_2
REMARK    2  A    between atoms: C_6  and  C_7
REMARK    3  A    between atoms: C_10  and  N_11
REMARK    4  A    between atoms: C_12  and  C_14
REMARK    5  A    between atoms: C_14  and  C_15
REMARK    6  A    between atoms: C_15  and  C_16
REMARK    7  A    between atoms: C_16  and  C_17
REMARK    8  A    between atoms: C_17  and  C_18
REMARK    9  A    between atoms: C_18  and  C_19
REMARK   10  A    between atoms: C_19  and  C_20
REMARK   11  A    between atoms: C_20  and  C_21
REMARK   12  A    between atoms: N_23  and  O_24
REMARK                            x       y       z     vdW  Elec       q    Type
REMARK                         _______ _______ _______ _____ _____    ______ ____
ROOT
ATOM      1  N   UNL     1       3.762   3.536  18.421  0.00  0.00    +0.000 N 
ATOM      2  C   UNL     1       2.530   3.156  17.917  0.00  0.00    +0.000 C 
ATOM      3  O   UNL     1       2.049   3.560  16.858  0.00  0.00    +0.000 OA
ATOM      4  H   UNL     1       4.080   3.141  19.298  0.00  0.00    +0.000 HD
ENDROOT
BRANCH   1  14
ATOM      5  C   UNL     1       6.583   4.058  14.345  0.00  0.00    +0.000 C 
ATOM      6  C   UNL     1       6.091   4.749  15.620  0.00  0.00    +0.000 C 
ATOM      7  C   UNL     1       5.264   6.004  15.265  0.00  0.00    +0.000 C 
ATOM      8  C   UNL     1       4.776   6.711  16.540  0.00  0.00    +0.000 C 
ATOM      9  C   UNL     1       5.976   7.106  17.407  0.00  0.00    +0.000 C 
ATOM     10  C   UNL     1       6.789   5.852  17.800  0.00  0.00    +0.000 C 
ATOM     11  C   UNL     1       7.988   6.264  18.658  0.00  0.00    +0.000 C 
ATOM     12  C   UNL     1       7.283   5.165  16.506  0.00  0.00    +0.000 C 
ATOM     13  C   UNL     1       5.862   4.871  18.572  0.00  0.00    +0.000 C 
ATOM     14  C   UNL     1       4.644   4.461  17.698  0.00  0.00    +0.000 C 
ATOM     15  C   UNL     1       3.879   5.757  17.333  0.00  0.00    +0.000 C 
ATOM     16  C   UNL     1       5.203   3.781  16.422  0.00  0.00    +0.000 C 
ENDBRANCH   1  14
BRANCH   2  17
ATOM     17  C   UNL     1       1.749   2.221  18.794  0.00  0.00    +0.000 C 
BRANCH  17  18
ATOM     18  C   UNL     1       0.747   3.012  19.626  0.00  0.00    +0.000 C 
BRANCH  18  19
ATOM     19  C   UNL     1       1.408   3.780  20.771  0.00  0.00    +0.000 C 
BRANCH  19  20
ATOM     20  C   UNL     1       1.132   5.277  20.661  0.00  0.00    +0.000 C 
BRANCH  20  21
ATOM     21  C   UNL     1       2.359   6.041  20.186  0.00  0.00    +0.000 C 
BRANCH  21  22
ATOM     22  C   UNL     1       2.043   7.530  20.062  0.00  0.00    +0.000 C 
BRANCH  22  23
ATOM     23  C   UNL     1       1.119   7.996  21.182  0.00  0.00    +0.000 C 
BRANCH  23  24
ATOM     24  C   UNL     1       0.909   9.492  21.141  0.00  0.00    +0.000 C 
ATOM     25  O   UNL     1       0.729  10.201  22.130  0.00  0.00    +0.000 OA
ATOM     26  N   UNL     1       0.932  10.014  19.876  0.00  0.00    +0.000 N 
ATOM     27  H   UNL     1       1.094   9.495  19.021  0.00  0.00    +0.000 HD
BRANCH  26  28
ATOM     28  O   UNL     1       0.746  11.410  19.767  0.00  0.00    +0.000 OA
ATOM     29  H   UNL     1      -0.050  11.467  19.190  0.00  0.00    +0.000 HD
ENDBRANCH  26  28
ENDBRANCH  23  24
ENDBRANCH  22  23
ENDBRANCH  21  22
ENDBRANCH  20  21
ENDBRANCH  19  20
ENDBRANCH  18  19
ENDBRANCH  17  18
ENDBRANCH   2  17
TORSDOF 10
ENDMDL
MODEL 3
REMARK VINA RESULT:      -7.8      1.452      1.886
REMARK  Name = 
REMARK  12 active torsions:
REMARK  status: ('A' for Active; 'I' for Inactive)
REMARK    1  A    between atoms: C_1  and  C_2
REMARK    2  A    between atoms: C_6  and  C_7
REMARK    3  A    between atoms: C_10  and  N_11
REMARK    4  A    between atoms: C_12  and  C_14
REMARK    5  A    between atoms: C_14  and  C_15
REMARK    6  A    between atoms: C_15  and  C_16
REMARK    7  A    between atoms: C_16  and  C_17
REMARK    8  A    between atoms: C_17  and  C_18
REMARK    9  A    between atoms: C_18  and  C_19
REMARK   10  A    between atoms: C_19  and  C_20
REMARK   11  A    between atoms: C_20  and  C_21
REMARK   12  A    between atoms: N_23  and  O_24
REMARK                            x       y       z     vdW  Elec       q    Type
REMARK                         _______ _______ _______ _____ _____    ______ ____
ROOT
ATOM      1  N   UNL     1       4.500   3.429  18.534  0.00  0.00    +0.000 N 
ATOM      2  C   UNL     1       3.238   2.927  18.265  0.00  0.00    +0.000 C 
ATOM      3  O   UNL     1       2.507   3.316  17.354  0.00  0.00    +0.000 OA
ATOM      4  H   UNL     1       5.034   3.038  19.301  0.00  0.00    +0.000 HD
ENDROOT
BRANCH   1  14
ATOM      5  C   UNL     1       6.844   4.330  14.228  0.00  0.00    +0.000 C 
ATOM      6  C   UNL     1       6.307   4.965  15.515  0.00  0.00    +0.000 C 
ATOM      7  C   UNL     1       5.205   5.996  15.184  0.00  0.00    +0.000 C 
ATOM      8  C   UNL     1       4.668   6.647  16.469  0.00  0.00    +0.000 C 
ATOM      9  C   UNL     1       5.813   7.331  17.223  0.00  0.00    +0.000 C 
ATOM     10  C   UNL     1       6.904   6.301  17.592  0.00  0.00    +0.000 C 
ATOM     11  C   UNL     1       8.044   7.001  18.336  0.00  0.00    +0.000 C 
ATOM     12  C   UNL     1       7.441   5.669  16.287  0.00  0.00    +0.000 C 
ATOM     13  C   UNL     1       6.268   5.186  18.470  0.00  0.00    +0.000 C 
ATOM     14  C   UNL     1       5.108   4.482  17.711  0.00  0.00    +0.000 C 
ATOM     15  C   UNL     1       4.057   5.566  17.364  0.00  0.00    +0.000 C 
ATOM     16  C   UNL     1       5.707   3.873  16.419  0.00  0.00    +0.000 C 
ENDBRANCH   1  14
BRANCH   2  17
ATOM     17  C   UNL     1       2.762   1.869  19.217  0.00  0.00    +0.000 C 
BRANCH  17  18
ATOM     18  C   UNL     1       2.486   2.492  20.581  0.00  0.00    +0.000 C 
BRANCH  18  19
ATOM     19  C   UNL     1       1.047   2.988  20.721  0.00  0.00    +0.000 C 
BRANCH  19  20
ATOM     20  C   UNL     1       0.945   4.478  20.406  0.00  0.00    +0.000 C 
BRANCH  20  21
ATOM     21  C   UNL     1       2.213   5.224  20.795  0.00  0.00    +0.000 C 
BRANCH  21  22
ATOM     22  C   UNL     1       2.351   6.503  19.973  0.00  0.00    +0.000 C 
BRANCH  22  23
ATOM     23  C   UNL     1       1.484   7.623  20.538  0.00  0.00    +0.000 C 
BRANCH  23  24
ATOM     24  C   UNL     1       1.452   8.819  19.616  0.00  0.00    +0.000 C 
ATOM     25  O   UNL     1       1.036   9.934  19.929  0.00  0.00    +0.000 OA
ATOM     26  N   UNL     1       1.937   8.558  18.363  0.00  0.00    +0.000 N 
ATOM     27  H   UNL     1       2.312   7.673  18.043  0.00  0.00    +0.000 HD
BRANCH  26  28
ATOM     28  O   UNL     1       1.940   9.636  17.451  0.00  0.00    +0.000 OA
ATOM     29  H   UNL     1       0.978   9.815  17.341  0.00  0.00    +0.000 HD
ENDBRANCH  26  28
ENDBRANCH  23  24
ENDBRANCH  22  23
ENDBRANCH  21  22
ENDBRANCH  20  21
ENDBRANCH  19  20
ENDBRANCH  18  19
ENDBRANCH  17  18
ENDBRANCH   2  17
TORSDOF 10
ENDMDL
MODEL 4
REMARK VINA RESULT:      -7.6      1.642      1.868
REMARK  Name = 
REMARK  12 active torsions:
REMARK  status: ('A' for Active; 'I' for Inactive)
REMARK    1  A    between atoms: C_1  and  C_2
REMARK    2  A    between atoms: C_6  and  C_7
REMARK    3  A    between atoms: C_10  and  N_11
REMARK    4  A    between atoms: C_12  and  C_14
REMARK    5  A    between atoms: C_14  and  C_15
REMARK    6  A    between atoms: C_15  and  C_16
REMARK    7  A    between atoms: C_16  and  C_17
REMARK    8  A    between atoms: C_17  and  C_18
REMARK    9  A    between atoms: C_18  and  C_19
REMARK   10  A    between atoms: C_19  and  C_20
REMARK   11  A    between atoms: C_20  and  C_21
REMARK   12  A    between atoms: N_23  and  O_24
REMARK                            x       y       z     vdW  Elec       q    Type
REMARK                         _______ _______ _______ _____ _____    ______ ____
ROOT
ATOM      1  N   UNL     1       3.455   3.462  18.239  0.00  0.00    +0.000 N 
ATOM      2  C   UNL     1       2.142   3.447  17.799  0.00  0.00    +0.000 C 
ATOM      3  O   UNL     1       1.700   4.137  16.880  0.00  0.00    +0.000 OA
ATOM      4  H   UNL     1       3.729   2.849  18.997  0.00  0.00    +0.000 HD
ENDROOT
BRANCH   1  14
ATOM      5  C   UNL     1       6.413   3.913  14.252  0.00  0.00    +0.000 C 
ATOM      6  C   UNL     1       5.995   4.559  15.577  0.00  0.00    +0.000 C 
ATOM      7  C   UNL     1       5.361   5.945  15.321  0.00  0.00    +0.000 C 
ATOM      8  C   UNL     1       4.949   6.605  16.647  0.00  0.00    +0.000 C 
ATOM      9  C   UNL     1       6.173   6.751  17.557  0.00  0.00    +0.000 C 
ATOM     10  C   UNL     1       6.792   5.366  17.850  0.00  0.00    +0.000 C 
ATOM     11  C   UNL     1       8.018   5.529  18.753  0.00  0.00    +0.000 C 
ATOM     12  C   UNL     1       7.213   4.725  16.508  0.00  0.00    +0.000 C 
ATOM     13  C   UNL     1       5.718   4.466  18.526  0.00  0.00    +0.000 C 
ATOM     14  C   UNL     1       4.474   4.308  17.607  0.00  0.00    +0.000 C 
ATOM     15  C   UNL     1       3.909   5.726  17.346  0.00  0.00    +0.000 C 
ATOM     16  C   UNL     1       4.960   3.665  16.284  0.00  0.00    +0.000 C 
ENDBRANCH   1  14
BRANCH   2  17
ATOM     17  C   UNL     1       1.227   2.540  18.569  0.00  0.00    +0.000 C 
BRANCH  17  18
ATOM     18  C   UNL     1       1.918   2.080  19.848  0.00  0.00    +0.000 C 
BRANCH  18  19
ATOM     19  C   UNL     1       1.664   3.021  21.026  0.00  0.00    +0.000 C 
BRANCH  19  20
ATOM     20  C   UNL     1       0.983   4.308  20.566  0.00  0.00    +0.000 C 
BRANCH  20  21
ATOM     21  C   UNL     1       1.714   5.543  21.071  0.00  0.00    +0.000 C 
BRANCH  21  22
ATOM     22  C   UNL     1       2.080   6.458  19.904  0.00  0.00    +0.000 C 
BRANCH  22  23
ATOM     23  C   UNL     1       1.753   7.914  20.216  0.00  0.00    +0.000 C 
BRANCH  23  24
ATOM     24  C   UNL     1       1.631   8.738  18.956  0.00  0.00    +0.000 C 
ATOM     25  O   UNL     1       1.753   8.295  17.815  0.00  0.00    +0.000 OA
ATOM     26  N   UNL     1       1.367  10.060  19.190  0.00  0.00    +0.000 N 
ATOM     27  H   UNL     1       1.236  10.489  20.099  0.00  0.00    +0.000 HD
BRANCH  26  28
ATOM     28  O   UNL     1       1.236  10.888  18.053  0.00  0.00    +0.000 OA
ATOM     29  H   UNL     1       2.064  11.420  18.090  0.00  0.00    +0.000 HD
ENDBRANCH  26  28
ENDBRANCH  23  24
ENDBRANCH  22  23
ENDBRANCH  21  22
ENDBRANCH  20  21
ENDBRANCH  19  20
ENDBRANCH  18  19
ENDBRANCH  17  18
ENDBRANCH   2  17
TORSDOF 10
ENDMDL
MODEL 5
REMARK VINA RESULT:      -7.5      1.713      2.064
REMARK  Name = 
REMARK  12 active torsions:
REMARK  status: ('A' for Active; 'I' for Inactive)
REMARK    1  A    between atoms: C_1  and  C_2
REMARK    2  A    between atoms: C_6  and  C_7
REMARK    3  A    between atoms: C_10  and  N_11
REMARK    4  A    between atoms: C_12  and  C_14
REMARK    5  A    between atoms: C_14  and  C_15
REMARK    6  A    between atoms: C_15  and  C_16
REMARK    7  A    between atoms: C_16  and  C_17
REMARK    8  A    between atoms: C_17  and  C_18
REMARK    9  A    between atoms: C_18  and  C_19
REMARK   10  A    between atoms: C_19  and  C_20
REMARK   11  A    between atoms: C_20  and  C_21
REMARK   12  A    between atoms: N_23  and  O_24
REMARK                            x       y       z     vdW  Elec       q    Type
REMARK                         _______ _______ _______ _____ _____    ______ ____
ROOT
ATOM      1  N   UNL     1       3.059   4.219  18.311  0.00  0.00    +0.000 N 
ATOM      2  C   UNL     1       3.179   3.189  19.229  0.00  0.00    +0.000 C 
ATOM      3  O   UNL     1       4.243   2.669  19.568  0.00  0.00    +0.000 OA
ATOM      4  H   UNL     1       2.141   4.591  18.104  0.00  0.00    +0.000 HD
ENDROOT
BRANCH   1  14
ATOM      5  C   UNL     1       6.238   3.750  14.500  0.00  0.00    +0.000 C 
ATOM      6  C   UNL     1       5.867   4.599  15.721  0.00  0.00    +0.000 C 
ATOM      7  C   UNL     1       5.479   6.029  15.282  0.00  0.00    +0.000 C 
ATOM      8  C   UNL     1       5.117   6.890  16.502  0.00  0.00    +0.000 C 
ATOM      9  C   UNL     1       6.303   6.946  17.470  0.00  0.00    +0.000 C 
ATOM     10  C   UNL     1       6.675   5.524  17.945  0.00  0.00    +0.000 C 
ATOM     11  C   UNL     1       7.867   5.595  18.903  0.00  0.00    +0.000 C 
ATOM     12  C   UNL     1       7.051   4.678  16.706  0.00  0.00    +0.000 C 
ATOM     13  C   UNL     1       5.440   4.884  18.639  0.00  0.00    +0.000 C 
ATOM     14  C   UNL     1       4.232   4.819  17.663  0.00  0.00    +0.000 C 
ATOM     15  C   UNL     1       3.916   6.269  17.219  0.00  0.00    +0.000 C 
ATOM     16  C   UNL     1       4.669   3.962  16.448  0.00  0.00    +0.000 C 
ENDBRANCH   1  14
BRANCH   2  17
ATOM     17  C   UNL     1       1.880   2.679  19.781  0.00  0.00    +0.000 C 
BRANCH  17  18
ATOM     18  C   UNL     1       1.261   3.731  20.694  0.00  0.00    +0.000 C 
BRANCH  18  19
ATOM     19  C   UNL     1       2.145   4.969  20.851  0.00  0.00    +0.000 C 
BRANCH  19  20
ATOM     20  C   UNL     1       1.311   6.247  20.837  0.00  0.00    +0.000 C 
BRANCH  20  21
ATOM     21  C   UNL     1       2.020   7.373  20.097  0.00  0.00    +0.000 C 
BRANCH  21  22
ATOM     22  C   UNL     1       1.429   8.724  20.495  0.00  0.00    +0.000 C 
BRANCH  22  23
ATOM     23  C   UNL     1       0.636   9.342  19.349  0.00  0.00    +0.000 C 
BRANCH  23  24
ATOM     24  C   UNL     1       1.184  10.696  18.962  0.00  0.00    +0.000 C 
ATOM     25  O   UNL     1       0.919  11.749  19.539  0.00  0.00    +0.000 OA
ATOM     26  N   UNL     1       2.024  10.658  17.882  0.00  0.00    +0.000 N 
ATOM     27  H   UNL     1       2.301   9.826  17.373  0.00  0.00    +0.000 HD
BRANCH  26  28
ATOM     28  O   UNL     1       2.577  11.890  17.469  0.00  0.00    +0.000 OA
ATOM     29  H   UNL     1       3.543  11.706  17.509  0.00  0.00    +0.000 HD
ENDBRANCH  26  28
ENDBRANCH  23  24
ENDBRANCH  22  23
ENDBRANCH  21  22
ENDBRANCH  20  21
ENDBRANCH  19  20
ENDBRANCH  18  19
ENDBRANCH  17  18
ENDBRANCH   2  17
TORSDOF 10
ENDMDL
MODEL 6
REMARK VINA RESULT:      -7.5      4.672      7.201
REMARK  Name = 
REMARK  12 active torsions:
REMARK  status: ('A' for Active; 'I' for Inactive)
REMARK    1  A    between atoms: C_1  and  C_2
REMARK    2  A    between atoms: C_6  and  C_7
REMARK    3  A    between atoms: C_10  and  N_11
REMARK    4  A    between atoms: C_12  and  C_14
REMARK    5  A    between atoms: C_14  and  C_15
REMARK    6  A    between atoms: C_15  and  C_16
REMARK    7  A    between atoms: C_16  and  C_17
REMARK    8  A    between atoms: C_17  and  C_18
REMARK    9  A    between atoms: C_18  and  C_19
REMARK   10  A    between atoms: C_19  and  C_20
REMARK   11  A    between atoms: C_20  and  C_21
REMARK   12  A    between atoms: N_23  and  O_24
REMARK                            x       y       z     vdW  Elec       q    Type
REMARK                         _______ _______ _______ _____ _____    ______ ____
ROOT
ATOM      1  N   UNL     1       5.968   5.968  18.191  0.00  0.00    +0.000 N 
ATOM      2  C   UNL     1       7.066   5.963  19.035  0.00  0.00    +0.000 C 
ATOM      3  O   UNL     1       7.170   5.270  20.048  0.00  0.00    +0.000 OA
ATOM      4  H   UNL     1       5.977   6.565  17.373  0.00  0.00    +0.000 HD
ENDROOT
BRANCH   1  14
ATOM      5  C   UNL     1       1.595   5.624  20.559  0.00  0.00    +0.000 C 
ATOM      6  C   UNL     1       2.569   4.901  19.623  0.00  0.00    +0.000 C 
ATOM      7  C   UNL     1       1.902   4.637  18.255  0.00  0.00    +0.000 C 
ATOM      8  C   UNL     1       2.869   3.902  17.313  0.00  0.00    +0.000 C 
ATOM      9  C   UNL     1       3.303   2.575  17.946  0.00  0.00    +0.000 C 
ATOM     10  C   UNL     1       4.006   2.831  19.297  0.00  0.00    +0.000 C 
ATOM     11  C   UNL     1       4.426   1.497  19.921  0.00  0.00    +0.000 C 
ATOM     12  C   UNL     1       3.014   3.557  20.235  0.00  0.00    +0.000 C 
ATOM     13  C   UNL     1       5.240   3.747  19.059  0.00  0.00    +0.000 C 
ATOM     14  C   UNL     1       4.809   5.098  18.421  0.00  0.00    +0.000 C 
ATOM     15  C   UNL     1       4.106   4.772  17.080  0.00  0.00    +0.000 C 
ATOM     16  C   UNL     1       3.819   5.773  19.404  0.00  0.00    +0.000 C 
ENDBRANCH   1  14
BRANCH   2  17
ATOM     17  C   UNL     1       8.153   6.928  18.664  0.00  0.00    +0.000 C 
BRANCH  17  18
ATOM     18  C   UNL     1       7.696   7.793  17.495  0.00  0.00    +0.000 C 
BRANCH  18  19
ATOM     19  C   UNL     1       8.053   9.268  17.679  0.00  0.00    +0.000 C 
BRANCH  19  20
ATOM     20  C   UNL     1       8.850   9.485  18.963  0.00  0.00    +0.000 C 
BRANCH  20  21
ATOM     21  C   UNL     1       9.946  10.525  18.775  0.00  0.00    +0.000 C 
BRANCH  21  22
ATOM     22  C   UNL     1       9.396  11.927  19.022  0.00  0.00    +0.000 C 
BRANCH  22  23
ATOM     23  C   UNL     1      10.311  12.995  18.434  0.00  0.00    +0.000 C 
BRANCH  23  24
ATOM     24  C   UNL     1       9.527  14.187  17.939  0.00  0.00    +0.000 C 
ATOM     25  O   UNL     1       9.995  15.312  17.768  0.00  0.00    +0.000 OA
ATOM     26  N   UNL     1       8.211  13.911  17.687  0.00  0.00    +0.000 N 
ATOM     27  H   UNL     1       7.763  13.007  17.786  0.00  0.00    +0.000 HD
BRANCH  26  28
ATOM     28  O   UNL     1       7.420  14.982  17.217  0.00  0.00    +0.000 OA
ATOM     29  H   UNL     1       8.102  15.633  16.934  0.00  0.00    +0.000 HD
ENDBRANCH  26  28
ENDBRANCH  23  24
ENDBRANCH  22  23
ENDBRANCH  21  22
ENDBRANCH  20  21
ENDBRANCH  19  20
ENDBRANCH  18  19
ENDBRANCH  17  18
ENDBRANCH   2  17
TORSDOF 10
ENDMDL
MODEL 7
REMARK VINA RESULT:      -7.4      0.995      1.042
REMARK  Name = 
REMARK  12 active torsions:
REMARK  status: ('A' for Active; 'I' for Inactive)
REMARK    1  A    between atoms: C_1  and  C_2
REMARK    2  A    between atoms: C_6  and  C_7
REMARK    3  A    between atoms: C_10  and  N_11
REMARK    4  A    between atoms: C_12  and  C_14
REMARK    5  A    between atoms: C_14  and  C_15
REMARK    6  A    between atoms: C_15  and  C_16
REMARK    7  A    between atoms: C_16  and  C_17
REMARK    8  A    between atoms: C_17  and  C_18
REMARK    9  A    between atoms: C_18  and  C_19
REMARK   10  A    between atoms: C_19  and  C_20
REMARK   11  A    between atoms: C_20  and  C_21
REMARK   12  A    between atoms: N_23  and  O_24
REMARK                            x       y       z     vdW  Elec       q    Type
REMARK                         _______ _______ _______ _____ _____    ______ ____
ROOT
ATOM      1  N   UNL     1       2.946   4.483  18.113  0.00  0.00    +0.000 N 
ATOM      2  C   UNL     1       2.891   3.296  18.824  0.00  0.00    +0.000 C 
ATOM      3  O   UNL     1       3.852   2.551  19.023  0.00  0.00    +0.000 OA
ATOM      4  H   UNL     1       2.104   5.036  18.010  0.00  0.00    +0.000 HD
ENDROOT
BRANCH   1  14
ATOM      5  C   UNL     1       6.294   3.779  14.487  0.00  0.00    +0.000 C 
ATOM      6  C   UNL     1       5.924   4.646  15.695  0.00  0.00    +0.000 C 
ATOM      7  C   UNL     1       5.684   6.107  15.254  0.00  0.00    +0.000 C 
ATOM      8  C   UNL     1       5.324   6.986  16.462  0.00  0.00    +0.000 C 
ATOM      9  C   UNL     1       6.452   6.932  17.498  0.00  0.00    +0.000 C 
ATOM     10  C   UNL     1       6.674   5.480  17.975  0.00  0.00    +0.000 C 
ATOM     11  C   UNL     1       7.809   5.442  19.002  0.00  0.00    +0.000 C 
ATOM     12  C   UNL     1       7.050   4.615  16.749  0.00  0.00    +0.000 C 
ATOM     13  C   UNL     1       5.350   4.941  18.587  0.00  0.00    +0.000 C 
ATOM     14  C   UNL     1       4.201   4.987  17.541  0.00  0.00    +0.000 C 
ATOM     15  C   UNL     1       4.035   6.462  17.100  0.00  0.00    +0.000 C 
ATOM     16  C   UNL     1       4.636   4.107  16.343  0.00  0.00    +0.000 C 
ENDBRANCH   1  14
BRANCH   2  17
ATOM     17  C   UNL     1       1.526   2.918  19.320  0.00  0.00    +0.000 C 
BRANCH  17  18
ATOM     18  C   UNL     1       1.334   3.441  20.740  0.00  0.00    +0.000 C 
BRANCH  18  19
ATOM     19  C   UNL     1       2.194   4.669  21.037  0.00  0.00    +0.000 C 
BRANCH  19  20
ATOM     20  C   UNL     1       1.364   5.949  20.982  0.00  0.00    +0.000 C 
BRANCH  20  21
ATOM     21  C   UNL     1       2.041   7.022  20.141  0.00  0.00    +0.000 C 
BRANCH  21  22
ATOM     22  C   UNL     1       1.522   8.405  20.527  0.00  0.00    +0.000 C 
BRANCH  22  23
ATOM     23  C   UNL     1       0.320   8.307  21.461  0.00  0.00    +0.000 C 
BRANCH  23  24
ATOM     24  C   UNL     1      -0.228   9.672  21.806  0.00  0.00    +0.000 C 
ATOM     25  O   UNL     1      -0.281  10.622  21.027  0.00  0.00    +0.000 OA
ATOM     26  N   UNL     1      -0.675   9.772  23.095  0.00  0.00    +0.000 N 
ATOM     27  H   UNL     1      -0.679   9.028  23.783  0.00  0.00    +0.000 HD
BRANCH  26  28
ATOM     28  O   UNL     1      -1.205  11.022  23.484  0.00  0.00    +0.000 OA
ATOM     29  H   UNL     1      -0.541  11.650  23.117  0.00  0.00    +0.000 HD
ENDBRANCH  26  28
ENDBRANCH  23  24
ENDBRANCH  22  23
ENDBRANCH  21  22
ENDBRANCH  20  21
ENDBRANCH  19  20
ENDBRANCH  18  19
ENDBRANCH  17  18
ENDBRANCH   2  17
TORSDOF 10
ENDMDL
MODEL 8
REMARK VINA RESULT:      -7.3      1.082      2.447
REMARK  Name = 
REMARK  12 active torsions:
REMARK  status: ('A' for Active; 'I' for Inactive)
REMARK    1  A    between atoms: C_1  and  C_2
REMARK    2  A    between atoms: C_6  and  C_7
REMARK    3  A    between atoms: C_10  and  N_11
REMARK    4  A    between atoms: C_12  and  C_14
REMARK    5  A    between atoms: C_14  and  C_15
REMARK    6  A    between atoms: C_15  and  C_16
REMARK    7  A    between atoms: C_16  and  C_17
REMARK    8  A    between atoms: C_17  and  C_18
REMARK    9  A    between atoms: C_18  and  C_19
REMARK   10  A    between atoms: C_19  and  C_20
REMARK   11  A    between atoms: C_20  and  C_21
REMARK   12  A    between atoms: N_23  and  O_24
REMARK                            x       y       z     vdW  Elec       q    Type
REMARK                         _______ _______ _______ _____ _____    ______ ____
ROOT
ATOM      1  N   UNL     1       4.287   3.053  18.208  0.00  0.00    +0.000 N 
ATOM      2  C   UNL     1       2.992   2.713  17.857  0.00  0.00    +0.000 C 
ATOM      3  O   UNL     1       2.339   3.257  16.966  0.00  0.00    +0.000 OA
ATOM      4  H   UNL     1       4.750   2.540  18.949  0.00  0.00    +0.000 HD
ENDROOT
BRANCH   1  14
ATOM      5  C   UNL     1       4.152   7.842  16.829  0.00  0.00    +0.000 C 
ATOM      6  C   UNL     1       4.981   6.554  16.791  0.00  0.00    +0.000 C 
ATOM      7  C   UNL     1       6.322   6.756  17.531  0.00  0.00    +0.000 C 
ATOM      8  C   UNL     1       7.165   5.471  17.488  0.00  0.00    +0.000 C 
ATOM      9  C   UNL     1       7.428   5.072  16.032  0.00  0.00    +0.000 C 
ATOM     10  C   UNL     1       6.093   4.829  15.293  0.00  0.00    +0.000 C 
ATOM     11  C   UNL     1       6.372   4.440  13.839  0.00  0.00    +0.000 C 
ATOM     12  C   UNL     1       5.267   6.136  15.334  0.00  0.00    +0.000 C 
ATOM     13  C   UNL     1       5.305   3.708  16.028  0.00  0.00    +0.000 C 
ATOM     14  C   UNL     1       5.029   4.107  17.505  0.00  0.00    +0.000 C 
ATOM     15  C   UNL     1       6.401   4.343  18.185  0.00  0.00    +0.000 C 
ATOM     16  C   UNL     1       4.203   5.418  17.480  0.00  0.00    +0.000 C 
ENDBRANCH   1  14
BRANCH   2  17
ATOM     17  C   UNL     1       2.375   1.628  18.691  0.00  0.00    +0.000 C 
BRANCH  17  18
ATOM     18  C   UNL     1       1.405   2.241  19.694  0.00  0.00    +0.000 C 
BRANCH  18  19
ATOM     19  C   UNL     1       2.075   2.591  21.023  0.00  0.00    +0.000 C 
BRANCH  19  20
ATOM     20  C   UNL     1       1.834   4.052  21.393  0.00  0.00    +0.000 C 
BRANCH  20  21
ATOM     21  C   UNL     1       1.813   4.947  20.162  0.00  0.00    +0.000 C 
BRANCH  21  22
ATOM     22  C   UNL     1       2.411   6.314  20.490  0.00  0.00    +0.000 C 
BRANCH  22  23
ATOM     23  C   UNL     1       1.750   7.419  19.673  0.00  0.00    +0.000 C 
BRANCH  23  24
ATOM     24  C   UNL     1       1.362   8.594  20.541  0.00  0.00    +0.000 C 
ATOM     25  O   UNL     1       0.789   9.604  20.136  0.00  0.00    +0.000 OA
ATOM     26  N   UNL     1       1.709   8.442  21.856  0.00  0.00    +0.000 N 
ATOM     27  H   UNL     1       2.164   7.632  22.261  0.00  0.00    +0.000 HD
BRANCH  26  28
ATOM     28  O   UNL     1       1.371   9.503  22.724  0.00  0.00    +0.000 OA
ATOM     29  H   UNL     1       2.156   9.541  23.318  0.00  0.00    +0.000 HD
ENDBRANCH  26  28
ENDBRANCH  23  24
ENDBRANCH  22  23
ENDBRANCH  21  22
ENDBRANCH  20  21
ENDBRANCH  19  20
ENDBRANCH  18  19
ENDBRANCH  17  18
ENDBRANCH   2  17
TORSDOF 10
ENDMDL
MODEL 9
REMARK VINA RESULT:      -7.3      1.835      2.013
REMARK  Name = 
REMARK  12 active torsions:
REMARK  status: ('A' for Active; 'I' for Inactive)
REMARK    1  A    between atoms: C_1  and  C_2
REMARK    2  A    between atoms: C_6  and  C_7
REMARK    3  A    between atoms: C_10  and  N_11
REMARK    4  A    between atoms: C_12  and  C_14
REMARK    5  A    between atoms: C_14  and  C_15
REMARK    6  A    between atoms: C_15  and  C_16
REMARK    7  A    between atoms: C_16  and  C_17
REMARK    8  A    between atoms: C_17  and  C_18
REMARK    9  A    between atoms: C_18  and  C_19
REMARK   10  A    between atoms: C_19  and  C_20
REMARK   11  A    between atoms: C_20  and  C_21
REMARK   12  A    between atoms: N_23  and  O_24
REMARK                            x       y       z     vdW  Elec       q    Type
REMARK                         _______ _______ _______ _____ _____    ______ ____
ROOT
ATOM      1  N   UNL     1       3.520   3.508  17.812  0.00  0.00    +0.000 N 
ATOM      2  C   UNL     1       3.691   2.802  18.990  0.00  0.00    +0.000 C 
ATOM      3  O   UNL     1       4.721   2.801  19.666  0.00  0.00    +0.000 OA
ATOM      4  H   UNL     1       2.631   3.457  17.329  0.00  0.00    +0.000 HD
ENDROOT
BRANCH   1  14
ATOM      5  C   UNL     1       6.705   4.056  14.016  0.00  0.00    +0.000 C 
ATOM      6  C   UNL     1       6.212   4.668  15.331  0.00  0.00    +0.000 C 
ATOM      7  C   UNL     1       5.596   6.062  15.077  0.00  0.00    +0.000 C 
ATOM      8  C   UNL     1       5.109   6.688  16.393  0.00  0.00    +0.000 C 
ATOM      9  C   UNL     1       6.278   6.806  17.377  0.00  0.00    +0.000 C 
ATOM     10  C   UNL     1       6.877   5.412  17.668  0.00  0.00    +0.000 C 
ATOM     11  C   UNL     1       8.049   5.547  18.644  0.00  0.00    +0.000 C 
ATOM     12  C   UNL     1       7.374   4.806  16.335  0.00  0.00    +0.000 C 
ATOM     13  C   UNL     1       5.765   4.498  18.256  0.00  0.00    +0.000 C 
ATOM     14  C   UNL     1       4.576   4.368  17.263  0.00  0.00    +0.000 C 
ATOM     15  C   UNL     1       4.029   5.794  17.007  0.00  0.00    +0.000 C 
ATOM     16  C   UNL     1       5.137   3.758  15.953  0.00  0.00    +0.000 C 
ENDBRANCH   1  14
BRANCH   2  17
ATOM     17  C   UNL     1       2.519   1.957  19.397  0.00  0.00    +0.000 C 
BRANCH  17  18
ATOM     18  C   UNL     1       1.405   2.849  19.933  0.00  0.00    +0.000 C 
BRANCH  18  19
ATOM     19  C   UNL     1       1.879   3.776  21.052  0.00  0.00    +0.000 C 
BRANCH  19  20
ATOM     20  C   UNL     1       1.379   5.202  20.834  0.00  0.00    +0.000 C 
BRANCH  20  21
ATOM     21  C   UNL     1       2.180   5.920  19.758  0.00  0.00    +0.000 C 
BRANCH  21  22
ATOM     22  C   UNL     1       2.104   7.432  19.960  0.00  0.00    +0.000 C 
BRANCH  22  23
ATOM     23  C   UNL     1       2.091   8.170  18.626  0.00  0.00    +0.000 C 
BRANCH  23  24
ATOM     24  C   UNL     1       1.340   9.477  18.722  0.00  0.00    +0.000 C 
ATOM     25  O   UNL     1       0.344   9.663  19.419  0.00  0.00    +0.000 OA
ATOM     26  N   UNL     1       1.870  10.472  17.946  0.00  0.00    +0.000 N 
ATOM     27  H   UNL     1       2.696  10.396  17.364  0.00  0.00    +0.000 HD
BRANCH  26  28
ATOM     28  O   UNL     1       1.218  11.724  17.993  0.00  0.00    +0.000 OA
ATOM     29  H   UNL     1       1.868  12.312  17.543  0.00  0.00    +0.000 HD
ENDBRANCH  26  28
ENDBRANCH  23  24
ENDBRANCH  22  23
ENDBRANCH  21  22
ENDBRANCH  20  21
ENDBRANCH  19  20
ENDBRANCH  18  19
ENDBRANCH  17  18
ENDBRANCH   2  17
TORSDOF 10
ENDMDL
