MODEL 1
REMARK VINA RESULT:      -8.0      0.000      0.000
REMARK  Name = 
REMARK  7 active torsions:
REMARK  status: ('A' for Active; 'I' for Inactive)
REMARK    1  A    between atoms: C_2  and  C_14
REMARK    2  A    between atoms: N_3  and  CA_4
REMARK    3  A    between atoms: CA_4  and  C_5
REMARK    4  A    between atoms: CA_4  and  CB_7
REMARK    5  A    between atoms: C_5  and  O_6
REMARK    6  A    between atoms: CB_7  and  CG_8
REMARK    7  A    between atoms: C_17  and  C_18
REMARK                            x       y       z     vdW  Elec       q    Type
REMARK                         _______ _______ _______ _____ _____    ______ ____
ROOT
ATOM      1  O   UNK A   0       2.850   5.968  17.462  0.00  0.00    +0.000 OA
ATOM      2  C   UNK A   0       3.102   6.341  18.603  0.00  0.00    +0.000 C 
ATOM      3  N   PHE A   1       4.177   5.858  19.306  0.00  0.00    +0.000 N 
ATOM      4  H   PHE A   1       4.398   6.262  20.210  0.00  0.00    +0.000 HD
ENDROOT
BRANCH   2   5
ATOM      5  C   UNK A   0       2.268   7.382  19.260  0.00  0.00    +0.000 A 
ATOM      6  C   UNK A   0       1.820   7.164  20.566  0.00  0.00    +0.000 A 
ATOM      7  C   UNK A   0       1.001   8.106  21.203  0.00  0.00    +0.000 A 
ATOM      8  C   UNK A   0       0.618   9.302  20.562  0.00  0.00    +0.000 A 
ATOM      9  C   UNK A   0       1.096   9.508  19.259  0.00  0.00    +0.000 A 
ATOM     10  C   UNK A   0       1.898   8.563  18.621  0.00  0.00    +0.000 A 
ATOM     11  F   UNK A   0       2.288   8.827  17.363  0.00  0.00    +0.000 F 
BRANCH   8  12
ATOM     12  C   UNK A   0      -0.248  10.302  21.225  0.00  0.00    +0.000 A 
ATOM     13  C   UNK A   0      -0.569  10.217  22.587  0.00  0.00    +0.000 A 
ATOM     14  C   UNK A   0      -1.378  11.186  23.159  0.00  0.00    +0.000 A 
ATOM     15  N   UNK A   0      -1.884  12.238  22.485  0.00  0.00    +0.000 NA
ATOM     16  C   UNK A   0      -1.573  12.317  21.177  0.00  0.00    +0.000 A 
ATOM     17  C   UNK A   0      -0.783  11.389  20.515  0.00  0.00    +0.000 A 
ENDBRANCH   8  12
ENDBRANCH   2   5
BRANCH   3  18
ATOM     18  CA  PHE A   1       5.078   4.830  18.779  0.00  0.00    +0.000 C 
BRANCH  18  19
ATOM     19  C   PHE A   1       6.549   5.204  19.061  0.00  0.00    +0.000 C 
BRANCH  19  20
ATOM     20  O   PHE A   1       7.481   4.366  18.380  0.00  0.00    +0.000 OA
ATOM     21  H   PHE A   1       8.290   4.890  18.203  0.00  0.00    +0.000 HD
ENDBRANCH  19  20
ENDBRANCH  18  19
BRANCH  18  22
ATOM     22  CB  PHE A   1       4.758   3.456  19.403  0.00  0.00    +0.000 C 
BRANCH  22  23
ATOM     23  CG  PHE A   1       3.280   3.160  19.551  0.00  0.00    +0.000 A 
ATOM     24  CD1 PHE A   1       2.531   2.668  18.473  0.00  0.00    +0.000 A 
ATOM     25  CE1 PHE A   1       1.177   2.362  18.629  0.00  0.00    +0.000 A 
ATOM     26  CZ  PHE A   1       0.558   2.540  19.864  0.00  0.00    +0.000 A 
ATOM     27  CE2 PHE A   1       1.290   3.032  20.943  0.00  0.00    +0.000 A 
ATOM     28  CD2 PHE A   1       2.642   3.341  20.788  0.00  0.00    +0.000 A 
ENDBRANCH  22  23
ENDBRANCH  18  22
ENDBRANCH   3  18
TORSDOF 7
ENDMDL
MODEL 2
REMARK VINA RESULT:      -7.9      1.312      1.887
REMARK  Name = 
REMARK  7 active torsions:
REMARK  status: ('A' for Active; 'I' for Inactive)
REMARK    1  A    between atoms: C_2  and  C_14
REMARK    2  A    between atoms: N_3  and  CA_4
REMARK    3  A    between atoms: CA_4  and  C_5
REMARK    4  A    between atoms: CA_4  and  CB_7
REMARK    5  A    between atoms: C_5  and  O_6
REMARK    6  A    between atoms: CB_7  and  CG_8
REMARK    7  A    between atoms: C_17  and  C_18
REMARK                            x       y       z     vdW  Elec       q    Type
REMARK                         _______ _______ _______ _____ _____    ______ ____
ROOT
ATOM      1  O   UNK A   0       4.407   7.040  16.942  0.00  0.00    +0.000 OA
ATOM      2  C   UNK A   0       3.558   6.610  17.715  0.00  0.00    +0.000 C 
ATOM      3  N   PHE A   1       3.440   5.271  17.993  0.00  0.00    +0.000 N 
ATOM      4  H   PHE A   1       2.784   4.971  18.707  0.00  0.00    +0.000 HD
ENDROOT
BRANCH   2   5
ATOM      5  C   UNK A   0       2.642   7.539  18.428  0.00  0.00    +0.000 A 
ATOM      6  C   UNK A   0       2.189   8.683  17.763  0.00  0.00    +0.000 A 
ATOM      7  C   UNK A   0       1.356   9.601  18.416  0.00  0.00    +0.000 A 
ATOM      8  C   UNK A   0       0.935   9.396  19.746  0.00  0.00    +0.000 A 
ATOM      9  C   UNK A   0       1.387   8.232  20.387  0.00  0.00    +0.000 A 
ATOM     10  C   UNK A   0       2.228   7.328  19.740  0.00  0.00    +0.000 A 
ATOM     11  F   UNK A   0       2.636   6.253  20.436  0.00  0.00    +0.000 F 
BRANCH   8  12
ATOM     12  C   UNK A   0       0.057  10.360  20.446  0.00  0.00    +0.000 A 
ATOM     13  C   UNK A   0      -0.101  10.344  21.839  0.00  0.00    +0.000 A 
ATOM     14  C   UNK A   0      -0.929  11.276  22.443  0.00  0.00    +0.000 A 
ATOM     15  N   UNK A   0      -1.606  12.229  21.771  0.00  0.00    +0.000 NA
ATOM     16  C   UNK A   0      -1.451  12.243  20.433  0.00  0.00    +0.000 A 
ATOM     17  C   UNK A   0      -0.655  11.344  19.740  0.00  0.00    +0.000 A 
ENDBRANCH   8  12
ENDBRANCH   2   5
BRANCH   3  18
ATOM     18  CA  PHE A   1       4.275   4.248  17.360  0.00  0.00    +0.000 C 
BRANCH  18  19
ATOM     19  C   PHE A   1       5.751   4.419  17.781  0.00  0.00    +0.000 C 
BRANCH  19  20
ATOM     20  O   PHE A   1       6.673   4.026  16.766  0.00  0.00    +0.000 OA
ATOM     21  H   PHE A   1       6.666   4.712  16.065  0.00  0.00    +0.000 HD
ENDBRANCH  19  20
ENDBRANCH  18  19
BRANCH  18  22
ATOM     22  CB  PHE A   1       3.784   2.836  17.737  0.00  0.00    +0.000 C 
BRANCH  22  23
ATOM     23  CG  PHE A   1       2.915   2.780  18.976  0.00  0.00    +0.000 A 
ATOM     24  CD1 PHE A   1       3.484   2.667  20.252  0.00  0.00    +0.000 A 
ATOM     25  CE1 PHE A   1       2.677   2.654  21.392  0.00  0.00    +0.000 A 
ATOM     26  CZ  PHE A   1       1.294   2.758  21.270  0.00  0.00    +0.000 A 
ATOM     27  CE2 PHE A   1       0.715   2.867  20.008  0.00  0.00    +0.000 A 
ATOM     28  CD2 PHE A   1       1.519   2.878  18.867  0.00  0.00    +0.000 A 
ENDBRANCH  22  23
ENDBRANCH  18  22
ENDBRANCH   3  18
TORSDOF 7
ENDMDL
MODEL 3
REMARK VINA RESULT:      -7.9      0.475      1.385
REMARK  Name = 
REMARK  7 active torsions:
REMARK  status: ('A' for Active; 'I' for Inactive)
REMARK    1  A    between atoms: C_2  and  C_14
REMARK    2  A    between atoms: N_3  and  CA_4
REMARK    3  A    between atoms: CA_4  and  C_5
REMARK    4  A    between atoms: CA_4  and  CB_7
REMARK    5  A    between atoms: C_5  and  O_6
REMARK    6  A    between atoms: CB_7  and  CG_8
REMARK    7  A    between atoms: C_17  and  C_18
REMARK                            x       y       z     vdW  Elec       q    Type
REMARK                         _______ _______ _______ _____ _____    ______ ____
ROOT
ATOM      1  O   UNK A   0       2.598   5.806  17.519  0.00  0.00    +0.000 OA
ATOM      2  C   UNK A   0       3.011   6.280  18.572  0.00  0.00    +0.000 C 
ATOM      3  N   PHE A   1       4.184   5.859  19.148  0.00  0.00    +0.000 N 
ATOM      4  H   PHE A   1       4.531   6.342  19.970  0.00  0.00    +0.000 HD
ENDROOT
BRANCH   2   5
ATOM      5  C   UNK A   0       2.272   7.378  19.249  0.00  0.00    +0.000 A 
ATOM      6  C   UNK A   0       1.877   7.206  20.579  0.00  0.00    +0.000 A 
ATOM      7  C   UNK A   0       1.146   8.205  21.237  0.00  0.00    +0.000 A 
ATOM      8  C   UNK A   0       0.802   9.411  20.594  0.00  0.00    +0.000 A 
ATOM      9  C   UNK A   0       1.225   9.568  19.265  0.00  0.00    +0.000 A 
ATOM     10  C   UNK A   0       1.939   8.568  18.607  0.00  0.00    +0.000 A 
ATOM     11  F   UNK A   0       2.282   8.789  17.327  0.00  0.00    +0.000 F 
BRANCH   8  12
ATOM     12  C   UNK A   0       0.029  10.470  21.279  0.00  0.00    +0.000 A 
ATOM     13  C   UNK A   0      -0.134  11.747  20.723  0.00  0.00    +0.000 A 
ATOM     14  C   UNK A   0      -0.876  12.699  21.404  0.00  0.00    +0.000 A 
ATOM     15  N   UNK A   0      -1.476  12.477  22.591  0.00  0.00    +0.000 NA
ATOM     16  C   UNK A   0      -1.318  11.249  23.122  0.00  0.00    +0.000 A 
ATOM     17  C   UNK A   0      -0.584  10.238  22.521  0.00  0.00    +0.000 A 
ENDBRANCH   8  12
ENDBRANCH   2   5
BRANCH   3  18
ATOM     18  CA  PHE A   1       5.007   4.785  18.589  0.00  0.00    +0.000 C 
BRANCH  18  19
ATOM     19  C   PHE A   1       6.503   5.165  18.645  0.00  0.00    +0.000 C 
BRANCH  19  20
ATOM     20  O   PHE A   1       6.985   5.346  19.975  0.00  0.00    +0.000 OA
ATOM     21  H   PHE A   1       6.721   4.565  20.505  0.00  0.00    +0.000 HD
ENDBRANCH  19  20
ENDBRANCH  18  19
BRANCH  18  22
ATOM     22  CB  PHE A   1       4.773   3.466  19.352  0.00  0.00    +0.000 C 
BRANCH  22  23
ATOM     23  CG  PHE A   1       3.317   3.104  19.553  0.00  0.00    +0.000 A 
ATOM     24  CD1 PHE A   1       2.688   3.301  20.790  0.00  0.00    +0.000 A 
ATOM     25  CE1 PHE A   1       1.334   2.998  20.956  0.00  0.00    +0.000 A 
ATOM     26  CZ  PHE A   1       0.594   2.500  19.886  0.00  0.00    +0.000 A 
ATOM     27  CE2 PHE A   1       1.207   2.296  18.653  0.00  0.00    +0.000 A 
ATOM     28  CD2 PHE A   1       2.560   2.595  18.486  0.00  0.00    +0.000 A 
ENDBRANCH  22  23
ENDBRANCH  18  22
ENDBRANCH   3  18
TORSDOF 7
ENDMDL
MODEL 4
REMARK VINA RESULT:      -7.9      1.128      1.910
REMARK  Name = 
REMARK  7 active torsions:
REMARK  status: ('A' for Active; 'I' for Inactive)
REMARK    1  A    between atoms: C_2  and  C_14
REMARK    2  A    between atoms: N_3  and  CA_4
REMARK    3  A    between atoms: CA_4  and  C_5
REMARK    4  A    between atoms: CA_4  and  CB_7
REMARK    5  A    between atoms: C_5  and  O_6
REMARK    6  A    between atoms: CB_7  and  CG_8
REMARK    7  A    between atoms: C_17  and  C_18
REMARK                            x       y       z     vdW  Elec       q    Type
REMARK                         _______ _______ _______ _____ _____    ______ ____
ROOT
ATOM      1  O   UNK A   0       3.447   7.424  16.917  0.00  0.00    +0.000 OA
ATOM      2  C   UNK A   0       3.172   7.137  18.077  0.00  0.00    +0.000 C 
ATOM      3  N   PHE A   1       3.741   6.063  18.715  0.00  0.00    +0.000 N 
ATOM      4  H   PHE A   1       3.552   5.917  19.701  0.00  0.00    +0.000 HD
ENDROOT
BRANCH   2   5
ATOM      5  C   UNK A   0       2.233   7.980  18.863  0.00  0.00    +0.000 A 
ATOM      6  C   UNK A   0       1.801   9.195  18.321  0.00  0.00    +0.000 A 
ATOM      7  C   UNK A   0       0.947  10.034  19.050  0.00  0.00    +0.000 A 
ATOM      8  C   UNK A   0       0.485   9.678  20.334  0.00  0.00    +0.000 A 
ATOM      9  C   UNK A   0       0.916   8.446  20.849  0.00  0.00    +0.000 A 
ATOM     10  C   UNK A   0       1.778   7.621  20.128  0.00  0.00    +0.000 A 
ATOM     11  F   UNK A   0       2.164   6.470  20.708  0.00  0.00    +0.000 F 
BRANCH   8  12
ATOM     12  C   UNK A   0      -0.415  10.557  21.112  0.00  0.00    +0.000 A 
ATOM     13  C   UNK A   0      -1.135  11.600  20.510  0.00  0.00    +0.000 A 
ATOM     14  C   UNK A   0      -1.971  12.388  21.285  0.00  0.00    +0.000 A 
ATOM     15  N   UNK A   0      -2.154  12.215  22.610  0.00  0.00    +0.000 NA
ATOM     16  C   UNK A   0      -1.462  11.212  23.184  0.00  0.00    +0.000 A 
ATOM     17  C   UNK A   0      -0.593  10.381  22.493  0.00  0.00    +0.000 A 
ENDBRANCH   8  12
ENDBRANCH   2   5
BRANCH   3  18
ATOM     18  CA  PHE A   1       4.678   5.149  18.058  0.00  0.00    +0.000 C 
BRANCH  18  19
ATOM     19  C   PHE A   1       6.032   5.136  18.801  0.00  0.00    +0.000 C 
BRANCH  19  20
ATOM     20  O   PHE A   1       6.890   4.076  18.384  0.00  0.00    +0.000 OA
ATOM     21  H   PHE A   1       7.154   4.244  17.455  0.00  0.00    +0.000 HD
ENDBRANCH  19  20
ENDBRANCH  18  19
BRANCH  18  22
ATOM     22  CB  PHE A   1       4.097   3.722  18.003  0.00  0.00    +0.000 C 
BRANCH  22  23
ATOM     23  CG  PHE A   1       3.095   3.407  19.093  0.00  0.00    +0.000 A 
ATOM     24  CD1 PHE A   1       3.513   2.902  20.333  0.00  0.00    +0.000 A 
ATOM     25  CE1 PHE A   1       2.586   2.649  21.347  0.00  0.00    +0.000 A 
ATOM     26  CZ  PHE A   1       1.233   2.902  21.135  0.00  0.00    +0.000 A 
ATOM     27  CE2 PHE A   1       0.803   3.400  19.907  0.00  0.00    +0.000 A 
ATOM     28  CD2 PHE A   1       1.728   3.651  18.892  0.00  0.00    +0.000 A 
ENDBRANCH  22  23
ENDBRANCH  18  22
ENDBRANCH   3  18
TORSDOF 7
ENDMDL
MODEL 5
REMARK VINA RESULT:      -7.8      2.540      4.209
REMARK  Name = 
REMARK  7 active torsions:
REMARK  status: ('A' for Active; 'I' for Inactive)
REMARK    1  A    between atoms: C_2  and  C_14
REMARK    2  A    between atoms: N_3  and  CA_4
REMARK    3  A    between atoms: CA_4  and  C_5
REMARK    4  A    between atoms: CA_4  and  CB_7
REMARK    5  A    between atoms: C_5  and  O_6
REMARK    6  A    between atoms: CB_7  and  CG_8
REMARK    7  A    between atoms: C_17  and  C_18
REMARK                            x       y       z     vdW  Elec       q    Type
REMARK                         _______ _______ _______ _____ _____    ______ ____
ROOT
ATOM      1  O   UNK A   0       3.555   5.686  20.058  0.00  0.00    +0.000 OA
ATOM      2  C   UNK A   0       3.002   6.094  19.043  0.00  0.00    +0.000 C 
ATOM      3  N   PHE A   1       2.910   5.329  17.907  0.00  0.00    +0.000 N 
ATOM      4  H   PHE A   1       2.365   5.673  17.123  0.00  0.00    +0.000 HD
ENDROOT
BRANCH   2   5
ATOM      5  C   UNK A   0       2.359   7.434  19.018  0.00  0.00    +0.000 A 
ATOM      6  C   UNK A   0       2.490   8.226  17.873  0.00  0.00    +0.000 A 
ATOM      7  C   UNK A   0       1.929   9.509  17.828  0.00  0.00    +0.000 A 
ATOM      8  C   UNK A   0       1.205  10.035  18.918  0.00  0.00    +0.000 A 
ATOM      9  C   UNK A   0       1.070   9.215  20.049  0.00  0.00    +0.000 A 
ATOM     10  C   UNK A   0       1.642   7.945  20.097  0.00  0.00    +0.000 A 
ATOM     11  F   UNK A   0       1.488   7.237  21.230  0.00  0.00    +0.000 F 
BRANCH   8  12
ATOM     12  C   UNK A   0       0.611  11.389  18.882  0.00  0.00    +0.000 A 
ATOM     13  C   UNK A   0      -0.777  11.590  18.862  0.00  0.00    +0.000 A 
ATOM     14  C   UNK A   0      -1.280  12.881  18.837  0.00  0.00    +0.000 A 
ATOM     15  N   UNK A   0      -0.511  13.988  18.840  0.00  0.00    +0.000 NA
ATOM     16  C   UNK A   0       0.821  13.792  18.860  0.00  0.00    +0.000 A 
ATOM     17  C   UNK A   0       1.416  12.540  18.872  0.00  0.00    +0.000 A 
ENDBRANCH   8  12
ENDBRANCH   2   5
BRANCH   3  18
ATOM     18  CA  PHE A   1       3.501   3.994  17.794  0.00  0.00    +0.000 C 
BRANCH  18  19
ATOM     19  C   PHE A   1       2.470   2.992  17.231  0.00  0.00    +0.000 C 
BRANCH  19  20
ATOM     20  O   PHE A   1       2.611   1.679  17.770  0.00  0.00    +0.000 OA
ATOM     21  H   PHE A   1       1.836   1.500  18.343  0.00  0.00    +0.000 HD
ENDBRANCH  19  20
ENDBRANCH  18  19
BRANCH  18  22
ATOM     22  CB  PHE A   1       4.748   4.026  16.889  0.00  0.00    +0.000 C 
BRANCH  22  23
ATOM     23  CG  PHE A   1       5.820   5.002  17.327  0.00  0.00    +0.000 A 
ATOM     24  CD1 PHE A   1       5.979   6.237  16.683  0.00  0.00    +0.000 A 
ATOM     25  CE1 PHE A   1       6.946   7.147  17.117  0.00  0.00    +0.000 A 
ATOM     26  CZ  PHE A   1       7.761   6.834  18.202  0.00  0.00    +0.000 A 
ATOM     27  CE2 PHE A   1       7.617   5.610  18.850  0.00  0.00    +0.000 A 
ATOM     28  CD2 PHE A   1       6.653   4.698  18.415  0.00  0.00    +0.000 A 
ENDBRANCH  22  23
ENDBRANCH  18  22
ENDBRANCH   3  18
TORSDOF 7
ENDMDL
MODEL 6
REMARK VINA RESULT:      -7.8      1.492      2.207
REMARK  Name = 
REMARK  7 active torsions:
REMARK  status: ('A' for Active; 'I' for Inactive)
REMARK    1  A    between atoms: C_2  and  C_14
REMARK    2  A    between atoms: N_3  and  CA_4
REMARK    3  A    between atoms: CA_4  and  C_5
REMARK    4  A    between atoms: CA_4  and  CB_7
REMARK    5  A    between atoms: C_5  and  O_6
REMARK    6  A    between atoms: CB_7  and  CG_8
REMARK    7  A    between atoms: C_17  and  C_18
REMARK                            x       y       z     vdW  Elec       q    Type
REMARK                         _______ _______ _______ _____ _____    ______ ____
ROOT
ATOM      1  O   UNK A   0       4.889   6.654  17.444  0.00  0.00    +0.000 OA
ATOM      2  C   UNK A   0       3.749   6.329  17.755  0.00  0.00    +0.000 C 
ATOM      3  N   PHE A   1       3.289   5.045  17.596  0.00  0.00    +0.000 N 
ATOM      4  H   PHE A   1       2.370   4.802  17.951  0.00  0.00    +0.000 HD
ENDROOT
BRANCH   2   5
ATOM      5  C   UNK A   0       2.822   7.315  18.370  0.00  0.00    +0.000 A 
ATOM      6  C   UNK A   0       2.499   8.474  17.658  0.00  0.00    +0.000 A 
ATOM      7  C   UNK A   0       1.659   9.444  18.222  0.00  0.00    +0.000 A 
ATOM      8  C   UNK A   0       1.102   9.278  19.506  0.00  0.00    +0.000 A 
ATOM      9  C   UNK A   0       1.425   8.099  20.195  0.00  0.00    +0.000 A 
ATOM     10  C   UNK A   0       2.273   7.143  19.638  0.00  0.00    +0.000 A 
ATOM     11  F   UNK A   0       2.552   6.055  20.377  0.00  0.00    +0.000 F 
BRANCH   8  12
ATOM     12  C   UNK A   0       0.216  10.297  20.111  0.00  0.00    +0.000 A 
ATOM     13  C   UNK A   0      -0.864  10.851  19.410  0.00  0.00    +0.000 A 
ATOM     14  C   UNK A   0      -1.668  11.795  20.028  0.00  0.00    +0.000 A 
ATOM     15  N   UNK A   0      -1.487  12.226  21.293  0.00  0.00    +0.000 NA
ATOM     16  C   UNK A   0      -0.449  11.691  21.964  0.00  0.00    +0.000 A 
ATOM     17  C   UNK A   0       0.416  10.751  21.425  0.00  0.00    +0.000 A 
ENDBRANCH   8  12
ENDBRANCH   2   5
BRANCH   3  18
ATOM     18  CA  PHE A   1       4.096   3.977  17.002  0.00  0.00    +0.000 C 
BRANCH  18  19
ATOM     19  C   PHE A   1       5.601   4.288  17.152  0.00  0.00    +0.000 C 
BRANCH  19  20
ATOM     20  O   PHE A   1       6.128   3.908  18.422  0.00  0.00    +0.000 OA
ATOM     21  H   PHE A   1       5.800   3.008  18.632  0.00  0.00    +0.000 HD
ENDBRANCH  19  20
ENDBRANCH  18  19
BRANCH  18  22
ATOM     22  CB  PHE A   1       3.773   2.621  17.662  0.00  0.00    +0.000 C 
BRANCH  22  23
ATOM     23  CG  PHE A   1       2.900   2.712  18.895  0.00  0.00    +0.000 A 
ATOM     24  CD1 PHE A   1       3.458   2.656  20.181  0.00  0.00    +0.000 A 
ATOM     25  CE1 PHE A   1       2.650   2.779  21.313  0.00  0.00    +0.000 A 
ATOM     26  CZ  PHE A   1       1.276   2.963  21.174  0.00  0.00    +0.000 A 
ATOM     27  CE2 PHE A   1       0.708   3.017  19.904  0.00  0.00    +0.000 A 
ATOM     28  CD2 PHE A   1       1.514   2.892  18.771  0.00  0.00    +0.000 A 
ENDBRANCH  22  23
ENDBRANCH  18  22
ENDBRANCH   3  18
TORSDOF 7
ENDMDL
MODEL 7
REMARK VINA RESULT:      -7.7      2.055      3.884
REMARK  Name = 
REMARK  7 active torsions:
REMARK  status: ('A' for Active; 'I' for Inactive)
REMARK    1  A    between atoms: C_2  and  C_14
REMARK    2  A    between atoms: N_3  and  CA_4
REMARK    3  A    between atoms: CA_4  and  C_5
REMARK    4  A    between atoms: CA_4  and  CB_7
REMARK    5  A    between atoms: C_5  and  O_6
REMARK    6  A    between atoms: CB_7  and  CG_8
REMARK    7  A    between atoms: C_17  and  C_18
REMARK                            x       y       z     vdW  Elec       q    Type
REMARK                         _______ _______ _______ _____ _____    ______ ____
ROOT
ATOM      1  O   UNK A   0       3.713   5.586  20.068  0.00  0.00    +0.000 OA
ATOM      2  C   UNK A   0       3.045   6.024  19.137  0.00  0.00    +0.000 C 
ATOM      3  N   PHE A   1       2.889   5.330  17.963  0.00  0.00    +0.000 N 
ATOM      4  H   PHE A   1       2.255   5.689  17.257  0.00  0.00    +0.000 HD
ENDROOT
BRANCH   2   5
ATOM      5  C   UNK A   0       2.328   7.320  19.265  0.00  0.00    +0.000 A 
ATOM      6  C   UNK A   0       1.653   7.604  20.456  0.00  0.00    +0.000 A 
ATOM      7  C   UNK A   0       0.935   8.800  20.597  0.00  0.00    +0.000 A 
ATOM      8  C   UNK A   0       0.883   9.755  19.562  0.00  0.00    +0.000 A 
ATOM      9  C   UNK A   0       1.584   9.457  18.383  0.00  0.00    +0.000 A 
ATOM     10  C   UNK A   0       2.285   8.260  18.239  0.00  0.00    +0.000 A 
ATOM     11  F   UNK A   0       2.906   8.043  17.067  0.00  0.00    +0.000 F 
BRANCH   8  12
ATOM     12  C   UNK A   0       0.126  11.018  19.701  0.00  0.00    +0.000 A 
ATOM     13  C   UNK A   0       0.252  12.063  18.774  0.00  0.00    +0.000 A 
ATOM     14  C   UNK A   0      -0.488  13.222  18.948  0.00  0.00    +0.000 A 
ATOM     15  N   UNK A   0      -1.350  13.420  19.966  0.00  0.00    +0.000 NA
ATOM     16  C   UNK A   0      -1.468  12.414  20.853  0.00  0.00    +0.000 A 
ATOM     17  C   UNK A   0      -0.761  11.224  20.770  0.00  0.00    +0.000 A 
ENDBRANCH   8  12
ENDBRANCH   2   5
BRANCH   3  18
ATOM     18  CA  PHE A   1       3.541   4.044  17.705  0.00  0.00    +0.000 C 
BRANCH  18  19
ATOM     19  C   PHE A   1       2.531   3.035  17.116  0.00  0.00    +0.000 C 
BRANCH  19  20
ATOM     20  O   PHE A   1       2.517   1.787  17.807  0.00  0.00    +0.000 OA
ATOM     21  H   PHE A   1       1.689   1.317  17.572  0.00  0.00    +0.000 HD
ENDBRANCH  19  20
ENDBRANCH  18  19
BRANCH  18  22
ATOM     22  CB  PHE A   1       4.728   4.221  16.738  0.00  0.00    +0.000 C 
BRANCH  22  23
ATOM     23  CG  PHE A   1       5.816   5.148  17.238  0.00  0.00    +0.000 A 
ATOM     24  CD1 PHE A   1       5.953   6.445  16.721  0.00  0.00    +0.000 A 
ATOM     25  CE1 PHE A   1       6.935   7.307  17.215  0.00  0.00    +0.000 A 
ATOM     26  CZ  PHE A   1       7.788   6.884  18.232  0.00  0.00    +0.000 A 
ATOM     27  CE2 PHE A   1       7.666   5.598  18.751  0.00  0.00    +0.000 A 
ATOM     28  CD2 PHE A   1       6.686   4.735  18.258  0.00  0.00    +0.000 A 
ENDBRANCH  22  23
ENDBRANCH  18  22
ENDBRANCH   3  18
TORSDOF 7
ENDMDL
MODEL 8
REMARK VINA RESULT:      -7.7      1.300      1.929
REMARK  Name = 
REMARK  7 active torsions:
REMARK  status: ('A' for Active; 'I' for Inactive)
REMARK    1  A    between atoms: C_2  and  C_14
REMARK    2  A    between atoms: N_3  and  CA_4
REMARK    3  A    between atoms: CA_4  and  C_5
REMARK    4  A    between atoms: CA_4  and  CB_7
REMARK    5  A    between atoms: C_5  and  O_6
REMARK    6  A    between atoms: CB_7  and  CG_8
REMARK    7  A    between atoms: C_17  and  C_18
REMARK                            x       y       z     vdW  Elec       q    Type
REMARK                         _______ _______ _______ _____ _____    ______ ____
ROOT
ATOM      1  O   UNK A   0       4.072   7.363  16.768  0.00  0.00    +0.000 OA
ATOM      2  C   UNK A   0       3.408   6.873  17.675  0.00  0.00    +0.000 C 
ATOM      3  N   PHE A   1       3.485   5.540  17.994  0.00  0.00    +0.000 N 
ATOM      4  H   PHE A   1       2.986   5.198  18.809  0.00  0.00    +0.000 HD
ENDROOT
BRANCH   2   5
ATOM      5  C   UNK A   0       2.517   7.725  18.507  0.00  0.00    +0.000 A 
ATOM      6  C   UNK A   0       2.033   8.922  17.970  0.00  0.00    +0.000 A 
ATOM      7  C   UNK A   0       1.222   9.768  18.739  0.00  0.00    +0.000 A 
ATOM      8  C   UNK A   0       0.856   9.437  20.060  0.00  0.00    +0.000 A 
ATOM      9  C   UNK A   0       1.338   8.223  20.570  0.00  0.00    +0.000 A 
ATOM     10  C   UNK A   0       2.157   7.390  19.809  0.00  0.00    +0.000 A 
ATOM     11  F   UNK A   0       2.598   6.258  20.385  0.00  0.00    +0.000 F 
BRANCH   8  12
ATOM     12  C   UNK A   0       0.003  10.325  20.880  0.00  0.00    +0.000 A 
ATOM     13  C   UNK A   0      -0.603  11.472  20.346  0.00  0.00    +0.000 A 
ATOM     14  C   UNK A   0      -1.400  12.263  21.157  0.00  0.00    +0.000 A 
ATOM     15  N   UNK A   0      -1.650  11.999  22.456  0.00  0.00    +0.000 NA
ATOM     16  C   UNK A   0      -1.068  10.896  22.964  0.00  0.00    +0.000 A 
ATOM     17  C   UNK A   0      -0.245  10.052  22.235  0.00  0.00    +0.000 A 
ENDBRANCH   8  12
ENDBRANCH   2   5
BRANCH   3  18
ATOM     18  CA  PHE A   1       4.320   4.590  17.256  0.00  0.00    +0.000 C 
BRANCH  18  19
ATOM     19  C   PHE A   1       5.816   4.872  17.512  0.00  0.00    +0.000 C 
BRANCH  19  20
ATOM     20  O   PHE A   1       6.448   5.564  16.437  0.00  0.00    +0.000 OA
ATOM     21  H   PHE A   1       5.749   5.959  15.874  0.00  0.00    +0.000 HD
ENDBRANCH  19  20
ENDBRANCH  18  19
BRANCH  18  22
ATOM     22  CB  PHE A   1       3.983   3.141  17.662  0.00  0.00    +0.000 C 
BRANCH  22  23
ATOM     23  CG  PHE A   1       3.040   3.020  18.840  0.00  0.00    +0.000 A 
ATOM     24  CD1 PHE A   1       1.650   3.032  18.656  0.00  0.00    +0.000 A 
ATOM     25  CE1 PHE A   1       0.787   2.882  19.744  0.00  0.00    +0.000 A 
ATOM     26  CZ  PHE A   1       1.303   2.714  21.027  0.00  0.00    +0.000 A 
ATOM     27  CE2 PHE A   1       2.681   2.704  21.225  0.00  0.00    +0.000 A 
ATOM     28  CD2 PHE A   1       3.545   2.856  20.139  0.00  0.00    +0.000 A 
ENDBRANCH  22  23
ENDBRANCH  18  22
ENDBRANCH   3  18
TORSDOF 7
ENDMDL
MODEL 9
REMARK VINA RESULT:      -7.7      0.841      1.219
REMARK  Name = 
REMARK  7 active torsions:
REMARK  status: ('A' for Active; 'I' for Inactive)
REMARK    1  A    between atoms: C_2  and  C_14
REMARK    2  A    between atoms: N_3  and  CA_4
REMARK    3  A    between atoms: CA_4  and  C_5
REMARK    4  A    between atoms: CA_4  and  CB_7
REMARK    5  A    between atoms: C_5  and  O_6
REMARK    6  A    between atoms: CB_7  and  CG_8
REMARK    7  A    between atoms: C_17  and  C_18
REMARK                            x       y       z     vdW  Elec       q    Type
REMARK                         _______ _______ _______ _____ _____    ______ ____
ROOT
ATOM      1  O   UNK A   0       3.861   7.203  16.931  0.00  0.00    +0.000 OA
ATOM      2  C   UNK A   0       3.361   6.802  17.976  0.00  0.00    +0.000 C 
ATOM      3  N   PHE A   1       3.619   5.549  18.473  0.00  0.00    +0.000 N 
ATOM      4  H   PHE A   1       3.256   5.295  19.386  0.00  0.00    +0.000 HD
ENDROOT
BRANCH   2   5
ATOM      5  C   UNK A   0       2.481   7.689  18.783  0.00  0.00    +0.000 A 
ATOM      6  C   UNK A   0       2.168   7.318  20.094  0.00  0.00    +0.000 A 
ATOM      7  C   UNK A   0       1.312   8.110  20.871  0.00  0.00    +0.000 A 
ATOM      8  C   UNK A   0       0.756   9.305  20.369  0.00  0.00    +0.000 A 
ATOM      9  C   UNK A   0       1.100   9.667  19.057  0.00  0.00    +0.000 A 
ATOM     10  C   UNK A   0       1.939   8.869  18.281  0.00  0.00    +0.000 A 
ATOM     11  F   UNK A   0       2.195   9.276  17.026  0.00  0.00    +0.000 F 
BRANCH   8  12
ATOM     12  C   UNK A   0      -0.151  10.147  21.180  0.00  0.00    +0.000 A 
ATOM     13  C   UNK A   0      -0.377   9.895  22.541  0.00  0.00    +0.000 A 
ATOM     14  C   UNK A   0      -1.229  10.721  23.256  0.00  0.00    +0.000 A 
ATOM     15  N   UNK A   0      -1.868  11.783  22.725  0.00  0.00    +0.000 NA
ATOM     16  C   UNK A   0      -1.648  12.023  21.418  0.00  0.00    +0.000 A 
ATOM     17  C   UNK A   0      -0.824  11.245  20.620  0.00  0.00    +0.000 A 
ENDBRANCH   8  12
ENDBRANCH   2   5
BRANCH   3  18
ATOM     18  CA  PHE A   1       4.465   4.575  17.780  0.00  0.00    +0.000 C 
BRANCH  18  19
ATOM     19  C   PHE A   1       5.919   4.659  18.293  0.00  0.00    +0.000 C 
BRANCH  19  20
ATOM     20  O   PHE A   1       6.772   5.417  17.439  0.00  0.00    +0.000 OA
ATOM     21  H   PHE A   1       6.526   6.363  17.522  0.00  0.00    +0.000 HD
ENDBRANCH  19  20
ENDBRANCH  18  19
BRANCH  18  22
ATOM     22  CB  PHE A   1       3.921   3.146  17.978  0.00  0.00    +0.000 C 
BRANCH  22  23
ATOM     23  CG  PHE A   1       2.981   2.986  19.153  0.00  0.00    +0.000 A 
ATOM     24  CD1 PHE A   1       3.470   2.684  20.433  0.00  0.00    +0.000 A 
ATOM     25  CE1 PHE A   1       2.600   2.575  21.519  0.00  0.00    +0.000 A 
ATOM     26  CZ  PHE A   1       1.232   2.771  21.341  0.00  0.00    +0.000 A 
ATOM     27  CE2 PHE A   1       0.732   3.067  20.076  0.00  0.00    +0.000 A 
ATOM     28  CD2 PHE A   1       1.601   3.174  18.988  0.00  0.00    +0.000 A 
ENDBRANCH  22  23
ENDBRANCH  18  22
ENDBRANCH   3  18
TORSDOF 7
ENDMDL
