MODEL 1
REMARK VINA RESULT:      -8.0      0.000      0.000
REMARK  Name = 
REMARK  8 active torsions:
REMARK  status: ('A' for Active; 'I' for Inactive)
REMARK    1  A    between atoms: N_1  and  C_2
REMARK    2  A    between atoms: C_2  and  C_3
REMARK    3  A    between atoms: C_3  and  N_4
REMARK    4  A    between atoms: N_4  and  C_5
REMARK    5  A    between atoms: C_5  and  C_6
REMARK    6  A    between atoms: C_6  and  C_7
REMARK    7  A    between atoms: C_7  and  N_8
REMARK    8  A    between atoms: C_9  and  C_11
REMARK                            x       y       z     vdW  Elec       q    Type
REMARK                         _______ _______ _______ _____ _____    ______ ____
ROOT
ATOM      1  N   UNL     1       6.128   3.772  13.385  0.00  0.00    +0.000 N 
ATOM      2  C   UNL     1       6.576   4.780  14.209  0.00  0.00    +0.000 C 
ATOM      3  O   UNL     1       7.551   5.477  13.965  0.00  0.00    +0.000 OA
ATOM      4  H   UNL     1       5.258   3.300  13.592  0.00  0.00    +0.000 HD
ENDROOT
BRANCH   2   5
ATOM      5  C   UNL     1       5.776   5.034  15.440  0.00  0.00    +0.000 A 
ATOM      6  C   UNL     1       5.754   6.282  16.066  0.00  0.00    +0.000 A 
ATOM      7  C   UNL     1       4.992   6.461  17.227  0.00  0.00    +0.000 A 
ATOM      8  C   UNL     1       4.255   5.426  17.788  0.00  0.00    +0.000 A 
ATOM      9  N   UNL     1       3.570   5.652  18.920  0.00  0.00    +0.000 NA
ATOM     10  C   UNL     1       2.891   4.639  19.487  0.00  0.00    +0.000 A 
ATOM     11  C   UNL     1       2.215   4.858  20.680  0.00  0.00    +0.000 A 
ATOM     12  C   UNL     1       1.525   3.834  21.335  0.00  0.00    +0.000 A 
ATOM     13  C   UNL     1       1.495   2.559  20.785  0.00  0.00    +0.000 A 
ATOM     14  C   UNL     1       2.147   2.314  19.577  0.00  0.00    +0.000 A 
ATOM     15  C   UNL     1       2.847   3.347  18.928  0.00  0.00    +0.000 A 
ATOM     16  C   UNL     1       3.536   3.134  17.728  0.00  0.00    +0.000 A 
ATOM     17  C   UNL     1       4.267   4.174  17.144  0.00  0.00    +0.000 A 
ATOM     18  C   UNL     1       5.011   3.989  15.966  0.00  0.00    +0.000 A 
ENDBRANCH   2   5
BRANCH   1  19
ATOM     19  C   UNL     1       6.841   3.400  12.178  0.00  0.00    +0.000 C 
BRANCH  19  20
ATOM     20  C   UNL     1       6.038   2.451  11.285  0.00  0.00    +0.000 C 
BRANCH  20  21
ATOM     21  C   UNL     1       4.537   2.719  11.406  0.00  0.00    +0.000 C 
BRANCH  21  22
ATOM     22  N   UNL     1       4.185   4.036  10.867  0.00  0.00    +0.000 NA
ATOM     23  H   UNL     1       3.994   4.662  11.655  0.00  0.00    +0.000 HD
BRANCH  22  24
ATOM     24  C   UNL     1       2.948   3.973  10.070  0.00  0.00    +0.000 C 
BRANCH  24  25
ATOM     25  C   UNL     1       3.016   4.756   8.741  0.00  0.00    +0.000 C 
BRANCH  25  26
ATOM     26  N   UNL     1       1.756   5.448   8.450  0.00  0.00    +0.000 NA
ATOM     27  H   UNL     1       1.253   5.608   9.322  0.00  0.00    +0.000 HD
ATOM     28  H   UNL     1       1.162   4.833   7.891  0.00  0.00    +0.000 HD
ENDBRANCH  25  26
ENDBRANCH  24  25
ENDBRANCH  22  24
ENDBRANCH  21  22
ENDBRANCH  20  21
ENDBRANCH  19  20
ENDBRANCH   1  19
TORSDOF 8
ENDMDL
MODEL 2
REMARK VINA RESULT:      -7.8      1.126      1.205
REMARK  Name = 
REMARK  8 active torsions:
REMARK  status: ('A' for Active; 'I' for Inactive)
REMARK    1  A    between atoms: N_1  and  C_2
REMARK    2  A    between atoms: C_2  and  C_3
REMARK    3  A    between atoms: C_3  and  N_4
REMARK    4  A    between atoms: N_4  and  C_5
REMARK    5  A    between atoms: C_5  and  C_6
REMARK    6  A    between atoms: C_6  and  C_7
REMARK    7  A    between atoms: C_7  and  N_8
REMARK    8  A    between atoms: C_9  and  C_11
REMARK                            x       y       z     vdW  Elec       q    Type
REMARK                         _______ _______ _______ _____ _____    ______ ____
ROOT
ATOM      1  N   UNL     1       6.510   3.992  13.551  0.00  0.00    +0.000 N 
ATOM      2  C   UNL     1       7.026   4.762  14.568  0.00  0.00    +0.000 C 
ATOM      3  O   UNL     1       7.950   5.550  14.426  0.00  0.00    +0.000 OA
ATOM      4  H   UNL     1       5.681   3.436  13.708  0.00  0.00    +0.000 HD
ENDROOT
BRANCH   2   5
ATOM      5  C   UNL     1       6.366   4.632  15.897  0.00  0.00    +0.000 A 
ATOM      6  C   UNL     1       7.040   4.897  17.090  0.00  0.00    +0.000 A 
ATOM      7  C   UNL     1       6.372   4.747  18.312  0.00  0.00    +0.000 A 
ATOM      8  C   UNL     1       5.049   4.331  18.379  0.00  0.00    +0.000 A 
ATOM      9  N   UNL     1       4.473   4.175  19.581  0.00  0.00    +0.000 NA
ATOM     10  C   UNL     1       3.206   3.731  19.648  0.00  0.00    +0.000 A 
ATOM     11  C   UNL     1       2.621   3.529  20.891  0.00  0.00    +0.000 A 
ATOM     12  C   UNL     1       1.321   3.033  21.022  0.00  0.00    +0.000 A 
ATOM     13  C   UNL     1       0.576   2.738  19.887  0.00  0.00    +0.000 A 
ATOM     14  C   UNL     1       1.129   2.951  18.625  0.00  0.00    +0.000 A 
ATOM     15  C   UNL     1       2.441   3.442  18.500  0.00  0.00    +0.000 A 
ATOM     16  C   UNL     1       3.041   3.643  17.252  0.00  0.00    +0.000 A 
ATOM     17  C   UNL     1       4.368   4.079  17.172  0.00  0.00    +0.000 A 
ATOM     18  C   UNL     1       5.022   4.248  15.939  0.00  0.00    +0.000 A 
ENDBRANCH   2   5
BRANCH   1  19
ATOM     19  C   UNL     1       7.089   3.998  12.221  0.00  0.00    +0.000 C 
BRANCH  19  20
ATOM     20  C   UNL     1       6.776   2.724  11.432  0.00  0.00    +0.000 C 
BRANCH  20  21
ATOM     21  C   UNL     1       5.348   2.248  11.701  0.00  0.00    +0.000 C 
BRANCH  21  22
ATOM     22  N   UNL     1       4.396   3.361  11.652  0.00  0.00    +0.000 NA
ATOM     23  H   UNL     1       3.491   3.021  11.990  0.00  0.00    +0.000 HD
BRANCH  22  24
ATOM     24  C   UNL     1       4.184   3.823  10.270  0.00  0.00    +0.000 C 
BRANCH  24  25
ATOM     25  C   UNL     1       2.724   3.699   9.782  0.00  0.00    +0.000 C 
BRANCH  25  26
ATOM     26  N   UNL     1       2.377   4.754   8.824  0.00  0.00    +0.000 NA
ATOM     27  H   UNL     1       3.232   5.197   8.491  0.00  0.00    +0.000 HD
ATOM     28  H   UNL     1       1.852   5.482   9.310  0.00  0.00    +0.000 HD
ENDBRANCH  25  26
ENDBRANCH  24  25
ENDBRANCH  22  24
ENDBRANCH  21  22
ENDBRANCH  20  21
ENDBRANCH  19  20
ENDBRANCH   1  19
TORSDOF 8
ENDMDL
MODEL 3
REMARK VINA RESULT:      -7.8      4.598      7.510
REMARK  Name = 
REMARK  8 active torsions:
REMARK  status: ('A' for Active; 'I' for Inactive)
REMARK    1  A    between atoms: N_1  and  C_2
REMARK    2  A    between atoms: C_2  and  C_3
REMARK    3  A    between atoms: C_3  and  N_4
REMARK    4  A    between atoms: N_4  and  C_5
REMARK    5  A    between atoms: C_5  and  C_6
REMARK    6  A    between atoms: C_6  and  C_7
REMARK    7  A    between atoms: C_7  and  N_8
REMARK    8  A    between atoms: C_9  and  C_11
REMARK                            x       y       z     vdW  Elec       q    Type
REMARK                         _______ _______ _______ _____ _____    ______ ____
ROOT
ATOM      1  N   UNL     1       3.166   4.656  17.734  0.00  0.00    +0.000 N 
ATOM      2  C   UNL     1       3.790   5.730  18.327  0.00  0.00    +0.000 C 
ATOM      3  O   UNL     1       4.980   5.757  18.608  0.00  0.00    +0.000 OA
ATOM      4  H   UNL     1       2.204   4.733  17.435  0.00  0.00    +0.000 HD
ENDROOT
BRANCH   2   5
ATOM      5  C   UNL     1       2.943   6.927  18.588  0.00  0.00    +0.000 A 
ATOM      6  C   UNL     1       2.771   7.935  17.638  0.00  0.00    +0.000 A 
ATOM      7  C   UNL     1       1.971   9.044  17.942  0.00  0.00    +0.000 A 
ATOM      8  C   UNL     1       1.342   9.180  19.172  0.00  0.00    +0.000 A 
ATOM      9  N   UNL     1       0.614  10.281  19.416  0.00  0.00    +0.000 NA
ATOM     10  C   UNL     1       0.040  10.434  20.622  0.00  0.00    +0.000 A 
ATOM     11  C   UNL     1      -0.679  11.591  20.891  0.00  0.00    +0.000 A 
ATOM     12  C   UNL     1      -1.264  11.822  22.139  0.00  0.00    +0.000 A 
ATOM     13  C   UNL     1      -1.142  10.873  23.146  0.00  0.00    +0.000 A 
ATOM     14  C   UNL     1      -0.444   9.691  22.898  0.00  0.00    +0.000 A 
ATOM     15  C   UNL     1       0.151   9.470  21.643  0.00  0.00    +0.000 A 
ATOM     16  C   UNL     1       0.882   8.309  21.365  0.00  0.00    +0.000 A 
ATOM     17  C   UNL     1       1.505   8.153  20.122  0.00  0.00    +0.000 A 
ATOM     18  C   UNL     1       2.288   7.025  19.819  0.00  0.00    +0.000 A 
ENDBRANCH   2   5
BRANCH   1  19
ATOM     19  C   UNL     1       3.871   3.417  17.465  0.00  0.00    +0.000 C 
BRANCH  19  20
ATOM     20  C   UNL     1       2.948   2.196  17.475  0.00  0.00    +0.000 C 
BRANCH  20  21
ATOM     21  C   UNL     1       2.219   2.068  18.813  0.00  0.00    +0.000 C 
BRANCH  21  22
ATOM     22  N   UNL     1       1.015   2.902  18.847  0.00  0.00    +0.000 NA
ATOM     23  H   UNL     1       1.115   3.636  18.139  0.00  0.00    +0.000 HD
BRANCH  22  24
ATOM     24  C   UNL     1       0.875   3.586  20.144  0.00  0.00    +0.000 C 
BRANCH  24  25
ATOM     25  C   UNL     1       2.117   3.469  21.054  0.00  0.00    +0.000 C 
BRANCH  25  26
ATOM     26  N   UNL     1       1.841   2.673  22.255  0.00  0.00    +0.000 NA
ATOM     27  H   UNL     1       1.001   3.031  22.708  0.00  0.00    +0.000 HD
ATOM     28  H   UNL     1       2.601   2.807  22.923  0.00  0.00    +0.000 HD
ENDBRANCH  25  26
ENDBRANCH  24  25
ENDBRANCH  22  24
ENDBRANCH  21  22
ENDBRANCH  20  21
ENDBRANCH  19  20
ENDBRANCH   1  19
TORSDOF 8
ENDMDL
MODEL 4
REMARK VINA RESULT:      -7.6      4.572      7.603
REMARK  Name = 
REMARK  8 active torsions:
REMARK  status: ('A' for Active; 'I' for Inactive)
REMARK    1  A    between atoms: N_1  and  C_2
REMARK    2  A    between atoms: C_2  and  C_3
REMARK    3  A    between atoms: C_3  and  N_4
REMARK    4  A    between atoms: N_4  and  C_5
REMARK    5  A    between atoms: C_5  and  C_6
REMARK    6  A    between atoms: C_6  and  C_7
REMARK    7  A    between atoms: C_7  and  N_8
REMARK    8  A    between atoms: C_9  and  C_11
REMARK                            x       y       z     vdW  Elec       q    Type
REMARK                         _______ _______ _______ _____ _____    ______ ____
ROOT
ATOM      1  N   UNL     1       3.137   4.970  17.583  0.00  0.00    +0.000 N 
ATOM      2  C   UNL     1       3.613   5.882  18.498  0.00  0.00    +0.000 C 
ATOM      3  O   UNL     1       4.676   5.762  19.090  0.00  0.00    +0.000 OA
ATOM      4  H   UNL     1       2.302   5.176  17.052  0.00  0.00    +0.000 HD
ENDROOT
BRANCH   2   5
ATOM      5  C   UNL     1       2.776   7.094  18.721  0.00  0.00    +0.000 A 
ATOM      6  C   UNL     1       2.616   8.076  17.742  0.00  0.00    +0.000 A 
ATOM      7  C   UNL     1       1.826   9.200  18.011  0.00  0.00    +0.000 A 
ATOM      8  C   UNL     1       1.194   9.378  19.235  0.00  0.00    +0.000 A 
ATOM      9  N   UNL     1       0.476  10.492  19.444  0.00  0.00    +0.000 NA
ATOM     10  C   UNL     1      -0.100  10.685  20.643  0.00  0.00    +0.000 A 
ATOM     11  C   UNL     1      -0.809  11.856  20.876  0.00  0.00    +0.000 A 
ATOM     12  C   UNL     1      -1.396  12.128  22.115  0.00  0.00    +0.000 A 
ATOM     13  C   UNL     1      -1.286  11.207  23.150  0.00  0.00    +0.000 A 
ATOM     14  C   UNL     1      -0.598  10.013  22.938  0.00  0.00    +0.000 A 
ATOM     15  C   UNL     1      -0.001   9.750  21.692  0.00  0.00    +0.000 A 
ATOM     16  C   UNL     1       0.720   8.575  21.450  0.00  0.00    +0.000 A 
ATOM     17  C   UNL     1       1.345   8.377  20.215  0.00  0.00    +0.000 A 
ATOM     18  C   UNL     1       2.119   7.234  19.947  0.00  0.00    +0.000 A 
ENDBRANCH   2   5
BRANCH   1  19
ATOM     19  C   UNL     1       3.839   3.731  17.306  0.00  0.00    +0.000 C 
BRANCH  19  20
ATOM     20  C   UNL     1       3.026   2.492  17.688  0.00  0.00    +0.000 C 
BRANCH  20  21
ATOM     21  C   UNL     1       3.505   1.909  19.018  0.00  0.00    +0.000 C 
BRANCH  21  22
ATOM     22  N   UNL     1       3.647   2.951  20.038  0.00  0.00    +0.000 NA
ATOM     23  H   UNL     1       4.611   2.930  20.382  0.00  0.00    +0.000 HD
BRANCH  22  24
ATOM     24  C   UNL     1       2.779   2.686  21.198  0.00  0.00    +0.000 C 
BRANCH  24  25
ATOM     25  C   UNL     1       1.270   2.794  20.893  0.00  0.00    +0.000 C 
BRANCH  25  26
ATOM     26  N   UNL     1       0.949   4.018  20.152  0.00  0.00    +0.000 NA
ATOM     27  H   UNL     1       1.605   4.123  19.379  0.00  0.00    +0.000 HD
ATOM     28  H   UNL     1       1.101   4.823  20.762  0.00  0.00    +0.000 HD
ENDBRANCH  25  26
ENDBRANCH  24  25
ENDBRANCH  22  24
ENDBRANCH  21  22
ENDBRANCH  20  21
ENDBRANCH  19  20
ENDBRANCH   1  19
TORSDOF 8
ENDMDL
MODEL 5
REMARK VINA RESULT:      -7.5      4.411      6.553
REMARK  Name = 
REMARK  8 active torsions:
REMARK  status: ('A' for Active; 'I' for Inactive)
REMARK    1  A    between atoms: N_1  and  C_2
REMARK    2  A    between atoms: C_2  and  C_3
REMARK    3  A    between atoms: C_3  and  N_4
REMARK    4  A    between atoms: N_4  and  C_5
REMARK    5  A    between atoms: C_5  and  C_6
REMARK    6  A    between atoms: C_6  and  C_7
REMARK    7  A    between atoms: C_7  and  N_8
REMARK    8  A    between atoms: C_9  and  C_11
REMARK                            x       y       z     vdW  Elec       q    Type
REMARK                         _______ _______ _______ _____ _____    ______ ____
ROOT
ATOM      1  N   UNL     1       4.749   5.745  19.151  0.00  0.00    +0.000 N 
ATOM      2  C   UNL     1       3.687   5.935  18.295  0.00  0.00    +0.000 C 
ATOM      3  O   UNL     1       3.411   5.181  17.374  0.00  0.00    +0.000 OA
ATOM      4  H   UNL     1       4.864   6.348  19.954  0.00  0.00    +0.000 HD
ENDROOT
BRANCH   2   5
ATOM      5  C   UNL     1       2.821   7.117  18.567  0.00  0.00    +0.000 A 
ATOM      6  C   UNL     1       2.617   8.121  17.619  0.00  0.00    +0.000 A 
ATOM      7  C   UNL     1       1.802   9.215  17.933  0.00  0.00    +0.000 A 
ATOM      8  C   UNL     1       1.188   9.342  19.172  0.00  0.00    +0.000 A 
ATOM      9  N   UNL     1       0.444  10.430  19.424  0.00  0.00    +0.000 NA
ATOM     10  C   UNL     1      -0.115  10.574  20.639  0.00  0.00    +0.000 A 
ATOM     11  C   UNL     1      -0.851  11.718  20.917  0.00  0.00    +0.000 A 
ATOM     12  C   UNL     1      -1.421  11.940  22.173  0.00  0.00    +0.000 A 
ATOM     13  C   UNL     1      -1.267  10.995  23.179  0.00  0.00    +0.000 A 
ATOM     14  C   UNL     1      -0.551   9.826  22.923  0.00  0.00    +0.000 A 
ATOM     15  C   UNL     1       0.029   9.614  21.659  0.00  0.00    +0.000 A 
ATOM     16  C   UNL     1       0.777   8.466  21.372  0.00  0.00    +0.000 A 
ATOM     17  C   UNL     1       1.385   8.319  20.121  0.00  0.00    +0.000 A 
ATOM     18  C   UNL     1       2.184   7.205  19.808  0.00  0.00    +0.000 A 
ENDBRANCH   2   5
BRANCH   1  19
ATOM     19  C   UNL     1       5.688   4.655  18.969  0.00  0.00    +0.000 C 
BRANCH  19  20
ATOM     20  C   UNL     1       7.099   5.140  18.626  0.00  0.00    +0.000 C 
BRANCH  20  21
ATOM     21  C   UNL     1       7.518   4.669  17.233  0.00  0.00    +0.000 C 
BRANCH  21  22
ATOM     22  N   UNL     1       6.357   4.489  16.358  0.00  0.00    +0.000 NA
ATOM     23  H   UNL     1       6.028   3.524  16.459  0.00  0.00    +0.000 HD
BRANCH  22  24
ATOM     24  C   UNL     1       6.722   4.662  14.942  0.00  0.00    +0.000 C 
BRANCH  24  25
ATOM     25  C   UNL     1       5.687   4.087  13.950  0.00  0.00    +0.000 C 
BRANCH  25  26
ATOM     26  N   UNL     1       6.316   3.222  12.946  0.00  0.00    +0.000 NA
ATOM     27  H   UNL     1       6.808   2.464  13.417  0.00  0.00    +0.000 HD
ATOM     28  H   UNL     1       7.030   3.757  12.450  0.00  0.00    +0.000 HD
ENDBRANCH  25  26
ENDBRANCH  24  25
ENDBRANCH  22  24
ENDBRANCH  21  22
ENDBRANCH  20  21
ENDBRANCH  19  20
ENDBRANCH   1  19
TORSDOF 8
ENDMDL
MODEL 6
REMARK VINA RESULT:      -7.4      4.868      7.688
REMARK  Name = 
REMARK  8 active torsions:
REMARK  status: ('A' for Active; 'I' for Inactive)
REMARK    1  A    between atoms: N_1  and  C_2
REMARK    2  A    between atoms: C_2  and  C_3
REMARK    3  A    between atoms: C_3  and  N_4
REMARK    4  A    between atoms: N_4  and  C_5
REMARK    5  A    between atoms: C_5  and  C_6
REMARK    6  A    between atoms: C_6  and  C_7
REMARK    7  A    between atoms: C_7  and  N_8
REMARK    8  A    between atoms: C_9  and  C_11
REMARK                            x       y       z     vdW  Elec       q    Type
REMARK                         _______ _______ _______ _____ _____    ______ ____
ROOT
ATOM      1  N   UNL     1       2.616   4.685  18.876  0.00  0.00    +0.000 N 
ATOM      2  C   UNL     1       3.251   5.799  19.375  0.00  0.00    +0.000 C 
ATOM      3  O   UNL     1       4.413   5.809  19.754  0.00  0.00    +0.000 OA
ATOM      4  H   UNL     1       1.687   4.765  18.485  0.00  0.00    +0.000 HD
ENDROOT
BRANCH   2   5
ATOM      5  C   UNL     1       2.456   7.059  19.399  0.00  0.00    +0.000 A 
ATOM      6  C   UNL     1       2.370   7.903  18.290  0.00  0.00    +0.000 A 
ATOM      7  C   UNL     1       1.617   9.080  18.373  0.00  0.00    +0.000 A 
ATOM      8  C   UNL     1       0.952   9.446  19.535  0.00  0.00    +0.000 A 
ATOM      9  N   UNL     1       0.272  10.603  19.563  0.00  0.00    +0.000 NA
ATOM     10  C   UNL     1      -0.336  10.979  20.701  0.00  0.00    +0.000 A 
ATOM     11  C   UNL     1      -1.005  12.195  20.745  0.00  0.00    +0.000 A 
ATOM     12  C   UNL     1      -1.623  12.655  21.912  0.00  0.00    +0.000 A 
ATOM     13  C   UNL     1      -1.585  11.881  23.065  0.00  0.00    +0.000 A 
ATOM     14  C   UNL     1      -0.939  10.646  23.045  0.00  0.00    +0.000 A 
ATOM     15  C   UNL     1      -0.311  10.193  21.870  0.00  0.00    +0.000 A 
ATOM     16  C   UNL     1       0.370   8.972  21.818  0.00  0.00    +0.000 A 
ATOM     17  C   UNL     1       1.029   8.584  20.647  0.00  0.00    +0.000 A 
ATOM     18  C   UNL     1       1.764   7.388  20.567  0.00  0.00    +0.000 A 
ENDBRANCH   2   5
BRANCH   1  19
ATOM     19  C   UNL     1       3.267   3.389  18.837  0.00  0.00    +0.000 C 
BRANCH  19  20
ATOM     20  C   UNL     1       3.794   3.033  17.445  0.00  0.00    +0.000 C 
BRANCH  20  21
ATOM     21  C   UNL     1       4.953   3.947  17.045  0.00  0.00    +0.000 C 
BRANCH  21  22
ATOM     22  N   UNL     1       6.003   3.956  18.067  0.00  0.00    +0.000 NA
ATOM     23  H   UNL     1       5.665   4.500  18.867  0.00  0.00    +0.000 HD
BRANCH  22  24
ATOM     24  C   UNL     1       7.217   4.632  17.580  0.00  0.00    +0.000 C 
BRANCH  24  25
ATOM     25  C   UNL     1       7.882   5.558  18.622  0.00  0.00    +0.000 C 
BRANCH  25  26
ATOM     26  N   UNL     1       7.278   5.409  19.950  0.00  0.00    +0.000 NA
ATOM     27  H   UNL     1       8.005   5.173  20.624  0.00  0.00    +0.000 HD
ATOM     28  H   UNL     1       6.639   4.613  19.934  0.00  0.00    +0.000 HD
ENDBRANCH  25  26
ENDBRANCH  24  25
ENDBRANCH  22  24
ENDBRANCH  21  22
ENDBRANCH  20  21
ENDBRANCH  19  20
ENDBRANCH   1  19
TORSDOF 8
ENDMDL
MODEL 7
REMARK VINA RESULT:      -7.3      5.099      7.339
REMARK  Name = 
REMARK  8 active torsions:
REMARK  status: ('A' for Active; 'I' for Inactive)
REMARK    1  A    between atoms: N_1  and  C_2
REMARK    2  A    between atoms: C_2  and  C_3
REMARK    3  A    between atoms: C_3  and  N_4
REMARK    4  A    between atoms: N_4  and  C_5
REMARK    5  A    between atoms: C_5  and  C_6
REMARK    6  A    between atoms: C_6  and  C_7
REMARK    7  A    between atoms: C_7  and  N_8
REMARK    8  A    between atoms: C_9  and  C_11
REMARK                            x       y       z     vdW  Elec       q    Type
REMARK                         _______ _______ _______ _____ _____    ______ ____
ROOT
ATOM      1  N   UNL     1       4.233   5.424  19.360  0.00  0.00    +0.000 N 
ATOM      2  C   UNL     1       3.723   6.088  18.268  0.00  0.00    +0.000 C 
ATOM      3  O   UNL     1       3.931   5.757  17.110  0.00  0.00    +0.000 OA
ATOM      4  H   UNL     1       3.942   5.685  20.292  0.00  0.00    +0.000 HD
ENDROOT
BRANCH   2   5
ATOM      5  C   UNL     1       2.834   7.249  18.556  0.00  0.00    +0.000 A 
ATOM      6  C   UNL     1       2.606   8.259  17.619  0.00  0.00    +0.000 A 
ATOM      7  C   UNL     1       1.769   9.332  17.948  0.00  0.00    +0.000 A 
ATOM      8  C   UNL     1       1.157   9.432  19.190  0.00  0.00    +0.000 A 
ATOM      9  N   UNL     1       0.390  10.501  19.457  0.00  0.00    +0.000 NA
ATOM     10  C   UNL     1      -0.168  10.620  20.674  0.00  0.00    +0.000 A 
ATOM     11  C   UNL     1      -0.926  11.745  20.967  0.00  0.00    +0.000 A 
ATOM     12  C   UNL     1      -1.498  11.941  22.227  0.00  0.00    +0.000 A 
ATOM     13  C   UNL     1      -1.321  10.988  23.222  0.00  0.00    +0.000 A 
ATOM     14  C   UNL     1      -0.582   9.838  22.951  0.00  0.00    +0.000 A 
ATOM     15  C   UNL     1      -0.001   9.651  21.683  0.00  0.00    +0.000 A 
ATOM     16  C   UNL     1       0.770   8.523  21.381  0.00  0.00    +0.000 A 
ATOM     17  C   UNL     1       1.377   8.403  20.126  0.00  0.00    +0.000 A 
ATOM     18  C   UNL     1       2.198   7.310  19.799  0.00  0.00    +0.000 A 
ENDBRANCH   2   5
BRANCH   1  19
ATOM     19  C   UNL     1       5.143   4.303  19.215  0.00  0.00    +0.000 C 
BRANCH  19  20
ATOM     20  C   UNL     1       4.496   2.964  19.578  0.00  0.00    +0.000 C 
BRANCH  20  21
ATOM     21  C   UNL     1       3.184   3.174  20.334  0.00  0.00    +0.000 C 
BRANCH  21  22
ATOM     22  N   UNL     1       2.274   2.041  20.150  0.00  0.00    +0.000 NA
ATOM     23  H   UNL     1       2.839   1.196  20.019  0.00  0.00    +0.000 HD
BRANCH  22  24
ATOM     24  C   UNL     1       1.464   2.198  18.930  0.00  0.00    +0.000 C 
BRANCH  24  25
ATOM     25  C   UNL     1       1.033   3.654  18.644  0.00  0.00    +0.000 C 
BRANCH  25  26
ATOM     26  N   UNL     1       1.279   4.031  17.249  0.00  0.00    +0.000 NA
ATOM     27  H   UNL     1       1.634   4.986  17.218  0.00  0.00    +0.000 HD
ATOM     28  H   UNL     1       0.389   4.045  16.748  0.00  0.00    +0.000 HD
ENDBRANCH  25  26
ENDBRANCH  24  25
ENDBRANCH  22  24
ENDBRANCH  21  22
ENDBRANCH  20  21
ENDBRANCH  19  20
ENDBRANCH   1  19
TORSDOF 8
ENDMDL
MODEL 8
REMARK VINA RESULT:      -7.3      5.049      7.948
REMARK  Name = 
REMARK  8 active torsions:
REMARK  status: ('A' for Active; 'I' for Inactive)
REMARK    1  A    between atoms: N_1  and  C_2
REMARK    2  A    between atoms: C_2  and  C_3
REMARK    3  A    between atoms: C_3  and  N_4
REMARK    4  A    between atoms: N_4  and  C_5
REMARK    5  A    between atoms: C_5  and  C_6
REMARK    6  A    between atoms: C_6  and  C_7
REMARK    7  A    between atoms: C_7  and  N_8
REMARK    8  A    between atoms: C_9  and  C_11
REMARK                            x       y       z     vdW  Elec       q    Type
REMARK                         _______ _______ _______ _____ _____    ______ ____
ROOT
ATOM      1  N   UNL     1       3.832   6.193  17.628  0.00  0.00    +0.000 N 
ATOM      2  C   UNL     1       3.269   6.399  18.867  0.00  0.00    +0.000 C 
ATOM      3  O   UNL     1       3.505   5.707  19.847  0.00  0.00    +0.000 OA
ATOM      4  H   UNL     1       3.676   6.860  16.885  0.00  0.00    +0.000 HD
ENDROOT
BRANCH   2   5
ATOM      5  C   UNL     1       2.356   7.569  18.993  0.00  0.00    +0.000 A 
ATOM      6  C   UNL     1       2.073   8.409  17.914  0.00  0.00    +0.000 A 
ATOM      7  C   UNL     1       1.215   9.501  18.092  0.00  0.00    +0.000 A 
ATOM      8  C   UNL     1       0.636   9.786  19.322  0.00  0.00    +0.000 A 
ATOM      9  N   UNL     1      -0.153  10.866  19.438  0.00  0.00    +0.000 NA
ATOM     10  C   UNL     1      -0.679  11.167  20.638  0.00  0.00    +0.000 A 
ATOM     11  C   UNL     1      -1.461  12.307  20.770  0.00  0.00    +0.000 A 
ATOM     12  C   UNL     1      -2.002  12.690  22.001  0.00  0.00    +0.000 A 
ATOM     13  C   UNL     1      -1.770  11.915  23.130  0.00  0.00    +0.000 A 
ATOM     14  C   UNL     1      -1.006  10.754  23.023  0.00  0.00    +0.000 A 
ATOM     15  C   UNL     1      -0.456  10.379  21.784  0.00  0.00    +0.000 A 
ATOM     16  C   UNL     1       0.337   9.235  21.642  0.00  0.00    +0.000 A 
ATOM     17  C   UNL     1       0.912   8.928  20.404  0.00  0.00    +0.000 A 
ATOM     18  C   UNL     1       1.754   7.815  20.230  0.00  0.00    +0.000 A 
ENDBRANCH   2   5
BRANCH   1  19
ATOM     19  C   UNL     1       4.707   5.066  17.366  0.00  0.00    +0.000 C 
BRANCH  19  20
ATOM     20  C   UNL     1       3.956   3.848  16.821  0.00  0.00    +0.000 C 
BRANCH  20  21
ATOM     21  C   UNL     1       3.971   2.697  17.828  0.00  0.00    +0.000 C 
BRANCH  21  22
ATOM     22  N   UNL     1       4.586   3.103  19.095  0.00  0.00    +0.000 NA
ATOM     23  H   UNL     1       5.589   2.899  19.042  0.00  0.00    +0.000 HD
BRANCH  22  24
ATOM     24  C   UNL     1       4.055   2.320  20.223  0.00  0.00    +0.000 C 
BRANCH  24  25
ATOM     25  C   UNL     1       2.564   2.585  20.525  0.00  0.00    +0.000 C 
BRANCH  25  26
ATOM     26  N   UNL     1       2.382   3.294  21.796  0.00  0.00    +0.000 NA
ATOM     27  H   UNL     1       3.282   3.373  22.267  0.00  0.00    +0.000 HD
ATOM     28  H   UNL     1       1.792   2.728  22.408  0.00  0.00    +0.000 HD
ENDBRANCH  25  26
ENDBRANCH  24  25
ENDBRANCH  22  24
ENDBRANCH  21  22
ENDBRANCH  20  21
ENDBRANCH  19  20
ENDBRANCH   1  19
TORSDOF 8
ENDMDL
MODEL 9
REMARK VINA RESULT:      -7.1      4.489      7.109
REMARK  Name = 
REMARK  8 active torsions:
REMARK  status: ('A' for Active; 'I' for Inactive)
REMARK    1  A    between atoms: N_1  and  C_2
REMARK    2  A    between atoms: C_2  and  C_3
REMARK    3  A    between atoms: C_3  and  N_4
REMARK    4  A    between atoms: N_4  and  C_5
REMARK    5  A    between atoms: C_5  and  C_6
REMARK    6  A    between atoms: C_6  and  C_7
REMARK    7  A    between atoms: C_7  and  N_8
REMARK    8  A    between atoms: C_9  and  C_11
REMARK                            x       y       z     vdW  Elec       q    Type
REMARK                         _______ _______ _______ _____ _____    ______ ____
ROOT
ATOM      1  N   UNL     1       4.385   5.410  16.977  0.00  0.00    +0.000 N 
ATOM      2  C   UNL     1       3.815   5.481  18.228  0.00  0.00    +0.000 C 
ATOM      3  O   UNL     1       3.957   4.628  19.092  0.00  0.00    +0.000 OA
ATOM      4  H   UNL     1       4.314   6.194  16.344  0.00  0.00    +0.000 HD
ENDROOT
BRANCH   2   5
ATOM      5  C   UNL     1       3.020   6.706  18.524  0.00  0.00    +0.000 A 
ATOM      6  C   UNL     1       2.917   7.761  17.616  0.00  0.00    +0.000 A 
ATOM      7  C   UNL     1       2.165   8.894  17.952  0.00  0.00    +0.000 A 
ATOM      8  C   UNL     1       1.516   9.008  19.175  0.00  0.00    +0.000 A 
ATOM      9  N   UNL     1       0.837  10.132  19.451  0.00  0.00    +0.000 NA
ATOM     10  C   UNL     1       0.245  10.260  20.652  0.00  0.00    +0.000 A 
ATOM     11  C   UNL     1      -0.423  11.439  20.957  0.00  0.00    +0.000 A 
ATOM     12  C   UNL     1      -1.024  11.644  22.202  0.00  0.00    +0.000 A 
ATOM     13  C   UNL     1      -0.969  10.648  23.169  0.00  0.00    +0.000 A 
ATOM     14  C   UNL     1      -0.323   9.446  22.884  0.00  0.00    +0.000 A 
ATOM     15  C   UNL     1       0.288   9.250  21.632  0.00  0.00    +0.000 A 
ATOM     16  C   UNL     1       0.968   8.068  21.318  0.00  0.00    +0.000 A 
ATOM     17  C   UNL     1       1.610   7.934  20.082  0.00  0.00    +0.000 A 
ATOM     18  C   UNL     1       2.345   6.783  19.745  0.00  0.00    +0.000 A 
ENDBRANCH   2   5
BRANCH   1  19
ATOM     19  C   UNL     1       5.148   4.252  16.552  0.00  0.00    +0.000 C 
BRANCH  19  20
ATOM     20  C   UNL     1       6.595   4.597  16.190  0.00  0.00    +0.000 C 
BRANCH  20  21
ATOM     21  C   UNL     1       7.378   5.048  17.423  0.00  0.00    +0.000 C 
BRANCH  21  22
ATOM     22  N   UNL     1       6.979   6.393  17.847  0.00  0.00    +0.000 NA
ATOM     23  H   UNL     1       6.712   6.924  17.012  0.00  0.00    +0.000 HD
BRANCH  22  24
ATOM     24  C   UNL     1       8.104   7.116  18.464  0.00  0.00    +0.000 C 
BRANCH  24  25
ATOM     25  C   UNL     1       8.207   8.598  18.042  0.00  0.00    +0.000 C 
BRANCH  25  26
ATOM     26  N   UNL     1       8.976   9.388  19.009  0.00  0.00    +0.000 NA
ATOM     27  H   UNL     1       8.333   9.941  19.574  0.00  0.00    +0.000 HD
ATOM     28  H   UNL     1       9.554  10.059  18.502  0.00  0.00    +0.000 HD
ENDBRANCH  25  26
ENDBRANCH  24  25
ENDBRANCH  22  24
ENDBRANCH  21  22
ENDBRANCH  20  21
ENDBRANCH  19  20
ENDBRANCH   1  19
TORSDOF 8
ENDMDL
