MODEL 1
REMARK VINA RESULT:      -8.1      0.000      0.000
REMARK  Name = 
REMARK  2 active torsions:
REMARK  status: ('A' for Active; 'I' for Inactive)
REMARK    1  A    between atoms: C_2  and  C_3
REMARK    2  A    between atoms: C_8  and  C_9
REMARK                            x       y       z     vdW  Elec       q    Type
REMARK                         _______ _______ _______ _____ _____    ______ ____
ROOT
ATOM      1  C   UNL     1       5.719   6.127  17.561  0.00  0.00    +0.000 C 
ATOM      2  C   UNL     1       6.485   5.678  18.793  0.00  0.00    +0.000 C 
ATOM      3  O   UNL     1       5.528   5.137  19.704  0.00  0.00    +0.000 OA
ATOM      4  C   UNL     1       4.349   4.906  18.939  0.00  0.00    +0.000 C 
ATOM      5  C   UNL     1       4.303   3.439  18.488  0.00  0.00    +0.000 C 
ATOM      6  C   UNL     1       3.040   3.154  17.680  0.00  0.00    +0.000 C 
ATOM      7  C   UNL     1       1.783   3.494  18.479  0.00  0.00    +0.000 C 
ATOM      8  C   UNL     1       1.813   4.910  19.052  0.00  0.00    +0.000 C 
ATOM      9  C   UNL     1       3.116   5.214  19.794  0.00  0.00    +0.000 C 
ATOM     10  O   UNL     1       4.355   5.768  17.796  0.00  0.00    +0.000 OA
ENDROOT
BRANCH   1  15
ATOM     11  C   UNL     1       5.572   4.486  15.499  0.00  0.00    +0.000 A 
ATOM     12  C   UNL     1       6.460   4.345  14.412  0.00  0.00    +0.000 A 
ATOM     13  N   UNL     1       7.503   5.168  14.498  0.00  0.00    +0.000 NA
ATOM     14  N   UNL     1       7.275   5.848  15.632  0.00  0.00    +0.000 N 
ATOM     15  C   UNL     1       6.121   5.485  16.278  0.00  0.00    +0.000 A 
ATOM     16  H   UNL     1       7.936   6.567  15.914  0.00  0.00    +0.000 HD
BRANCH  12  17
ATOM     17  C   UNL     1       6.243   3.349  13.278  0.00  0.00    +0.000 C 
ATOM     18  C   UNL     1       5.271   3.696  12.168  0.00  0.00    +0.000 C 
ATOM     19  C   UNL     1       6.736   3.714  11.894  0.00  0.00    +0.000 C 
ENDBRANCH  12  17
ENDBRANCH   1  15
TORSDOF 2
ENDMDL
MODEL 2
REMARK VINA RESULT:      -7.6      2.491      5.828
REMARK  Name = 
REMARK  2 active torsions:
REMARK  status: ('A' for Active; 'I' for Inactive)
REMARK    1  A    between atoms: C_2  and  C_3
REMARK    2  A    between atoms: C_8  and  C_9
REMARK                            x       y       z     vdW  Elec       q    Type
REMARK                         _______ _______ _______ _____ _____    ______ ____
ROOT
ATOM      1  C   UNL     1       4.600   4.691  16.265  0.00  0.00    +0.000 C 
ATOM      2  C   UNL     1       5.545   3.952  15.334  0.00  0.00    +0.000 C 
ATOM      3  O   UNL     1       6.816   4.595  15.432  0.00  0.00    +0.000 OA
ATOM      4  C   UNL     1       6.757   5.392  16.612  0.00  0.00    +0.000 C 
ATOM      5  C   UNL     1       7.389   4.628  17.785  0.00  0.00    +0.000 C 
ATOM      6  C   UNL     1       7.359   5.464  19.062  0.00  0.00    +0.000 C 
ATOM      7  C   UNL     1       8.073   6.801  18.865  0.00  0.00    +0.000 C 
ATOM      8  C   UNL     1       7.566   7.566  17.643  0.00  0.00    +0.000 C 
ATOM      9  C   UNL     1       7.525   6.698  16.384  0.00  0.00    +0.000 C 
ATOM     10  O   UNL     1       5.390   5.696  16.906  0.00  0.00    +0.000 OA
ENDROOT
BRANCH   1  15
ATOM     11  C   UNL     1       2.893   4.053  18.174  0.00  0.00    +0.000 A 
ATOM     12  C   UNL     1       2.858   2.899  18.985  0.00  0.00    +0.000 A 
ATOM     13  N   UNL     1       3.855   2.058  18.713  0.00  0.00    +0.000 NA
ATOM     14  N   UNL     1       4.519   2.667  17.719  0.00  0.00    +0.000 N 
ATOM     15  C   UNL     1       3.982   3.872  17.345  0.00  0.00    +0.000 A 
ATOM     16  H   UNL     1       5.329   2.204  17.315  0.00  0.00    +0.000 HD
BRANCH  12  17
ATOM     17  C   UNL     1       1.800   2.659  20.055  0.00  0.00    +0.000 C 
ATOM     18  C   UNL     1       2.085   3.084  21.482  0.00  0.00    +0.000 C 
ATOM     19  C   UNL     1       1.108   3.859  20.666  0.00  0.00    +0.000 C 
ENDBRANCH  12  17
ENDBRANCH   1  15
TORSDOF 2
ENDMDL
MODEL 3
REMARK VINA RESULT:      -7.5      1.072      1.092
REMARK  Name = 
REMARK  2 active torsions:
REMARK  status: ('A' for Active; 'I' for Inactive)
REMARK    1  A    between atoms: C_2  and  C_3
REMARK    2  A    between atoms: C_8  and  C_9
REMARK                            x       y       z     vdW  Elec       q    Type
REMARK                         _______ _______ _______ _____ _____    ______ ____
ROOT
ATOM      1  C   UNL     1       4.666   5.787  17.968  0.00  0.00    +0.000 C 
ATOM      2  C   UNL     1       5.548   5.349  19.124  0.00  0.00    +0.000 C 
ATOM      3  O   UNL     1       4.745   4.529  19.973  0.00  0.00    +0.000 OA
ATOM      4  C   UNL     1       3.604   4.168  19.201  0.00  0.00    +0.000 C 
ATOM      5  C   UNL     1       3.822   2.784  18.571  0.00  0.00    +0.000 C 
ATOM      6  C   UNL     1       2.607   2.360  17.750  0.00  0.00    +0.000 C 
ATOM      7  C   UNL     1       1.338   2.353  18.602  0.00  0.00    +0.000 C 
ATOM      8  C   UNL     1       1.120   3.669  19.347  0.00  0.00    +0.000 C 
ATOM      9  C   UNL     1       2.368   4.127  20.104  0.00  0.00    +0.000 C 
ATOM     10  O   UNL     1       3.405   5.146  18.174  0.00  0.00    +0.000 OA
ENDROOT
BRANCH   1  15
ATOM     11  C   UNL     1       5.271   4.181  15.962  0.00  0.00    +0.000 A 
ATOM     12  C   UNL     1       5.783   4.506  14.689  0.00  0.00    +0.000 A 
ATOM     13  N   UNL     1       5.979   5.815  14.539  0.00  0.00    +0.000 NA
ATOM     14  N   UNL     1       5.580   6.329  15.711  0.00  0.00    +0.000 N 
ATOM     15  C   UNL     1       5.135   5.393  16.610  0.00  0.00    +0.000 A 
ATOM     16  H   UNL     1       5.614   7.337  15.842  0.00  0.00    +0.000 HD
BRANCH  12  17
ATOM     17  C   UNL     1       6.083   3.464  13.617  0.00  0.00    +0.000 C 
ATOM     18  C   UNL     1       5.261   3.459  12.343  0.00  0.00    +0.000 C 
ATOM     19  C   UNL     1       6.674   3.931  12.303  0.00  0.00    +0.000 C 
ENDBRANCH  12  17
ENDBRANCH   1  15
TORSDOF 2
ENDMDL
MODEL 4
REMARK VINA RESULT:      -7.5      2.822      4.237
REMARK  Name = 
REMARK  2 active torsions:
REMARK  status: ('A' for Active; 'I' for Inactive)
REMARK    1  A    between atoms: C_2  and  C_3
REMARK    2  A    between atoms: C_8  and  C_9
REMARK                            x       y       z     vdW  Elec       q    Type
REMARK                         _______ _______ _______ _____ _____    ______ ____
ROOT
ATOM      1  C   UNL     1       4.030   3.077  17.445  0.00  0.00    +0.000 C 
ATOM      2  C   UNL     1       2.916   3.591  16.549  0.00  0.00    +0.000 C 
ATOM      3  O   UNL     1       1.712   3.548  17.316  0.00  0.00    +0.000 OA
ATOM      4  C   UNL     1       2.120   3.407  18.673  0.00  0.00    +0.000 C 
ATOM      5  C   UNL     1       2.148   4.785  19.352  0.00  0.00    +0.000 C 
ATOM      6  C   UNL     1       2.564   4.665  20.816  0.00  0.00    +0.000 C 
ATOM      7  C   UNL     1       1.633   3.726  21.580  0.00  0.00    +0.000 C 
ATOM      8  C   UNL     1       1.472   2.369  20.897  0.00  0.00    +0.000 C 
ATOM      9  C   UNL     1       1.132   2.498  19.411  0.00  0.00    +0.000 C 
ATOM     10  O   UNL     1       3.423   2.816  18.713  0.00  0.00    +0.000 OA
ENDROOT
BRANCH   1  15
ATOM     11  C   UNL     1       5.711   5.053  16.957  0.00  0.00    +0.000 A 
ATOM     12  C   UNL     1       6.761   5.544  17.760  0.00  0.00    +0.000 A 
ATOM     13  N   UNL     1       6.883   4.870  18.903  0.00  0.00    +0.000 NA
ATOM     14  N   UNL     1       5.901   3.959  18.838  0.00  0.00    +0.000 N 
ATOM     15  C   UNL     1       5.154   4.024  17.690  0.00  0.00    +0.000 A 
ATOM     16  H   UNL     1       5.771   3.322  19.619  0.00  0.00    +0.000 HD
BRANCH  12  17
ATOM     17  C   UNL     1       7.656   6.707  17.349  0.00  0.00    +0.000 C 
ATOM     18  C   UNL     1       7.151   8.125  17.529  0.00  0.00    +0.000 C 
ATOM     19  C   UNL     1       8.215   7.605  18.433  0.00  0.00    +0.000 C 
ENDBRANCH  12  17
ENDBRANCH   1  15
TORSDOF 2
ENDMDL
MODEL 5
REMARK VINA RESULT:      -7.3      3.897      6.060
REMARK  Name = 
REMARK  2 active torsions:
REMARK  status: ('A' for Active; 'I' for Inactive)
REMARK    1  A    between atoms: C_2  and  C_3
REMARK    2  A    between atoms: C_8  and  C_9
REMARK                            x       y       z     vdW  Elec       q    Type
REMARK                         _______ _______ _______ _____ _____    ______ ____
ROOT
ATOM      1  C   UNL     1       3.899   5.859  18.735  0.00  0.00    +0.000 C 
ATOM      2  C   UNL     1       3.807   5.078  17.436  0.00  0.00    +0.000 C 
ATOM      3  O   UNL     1       3.479   3.731  17.781  0.00  0.00    +0.000 OA
ATOM      4  C   UNL     1       3.017   3.777  19.128  0.00  0.00    +0.000 C 
ATOM      5  C   UNL     1       1.482   3.839  19.147  0.00  0.00    +0.000 C 
ATOM      6  C   UNL     1       0.953   3.869  20.578  0.00  0.00    +0.000 C 
ATOM      7  C   UNL     1       1.437   2.657  21.373  0.00  0.00    +0.000 C 
ATOM      8  C   UNL     1       2.952   2.473  21.304  0.00  0.00    +0.000 C 
ATOM      9  C   UNL     1       3.484   2.522  19.871  0.00  0.00    +0.000 C 
ATOM     10  O   UNL     1       3.560   4.934  19.772  0.00  0.00    +0.000 OA
ENDROOT
BRANCH   1  15
ATOM     11  C   UNL     1       2.548   8.003  17.996  0.00  0.00    +0.000 A 
ATOM     12  C   UNL     1       1.664   8.800  18.753  0.00  0.00    +0.000 A 
ATOM     13  N   UNL     1       1.545   8.372  20.009  0.00  0.00    +0.000 NA
ATOM     14  N   UNL     1       2.340   7.293  20.051  0.00  0.00    +0.000 N 
ATOM     15  C   UNL     1       2.968   7.015  18.864  0.00  0.00    +0.000 A 
ATOM     16  H   UNL     1       2.406   6.766  20.918  0.00  0.00    +0.000 HD
BRANCH  12  17
ATOM     17  C   UNL     1       0.943  10.018  18.188  0.00  0.00    +0.000 C 
ATOM     18  C   UNL     1      -0.526   9.903  17.829  0.00  0.00    +0.000 C 
ATOM     19  C   UNL     1      -0.122  10.682  19.034  0.00  0.00    +0.000 C 
ENDBRANCH  12  17
ENDBRANCH   1  15
TORSDOF 2
ENDMDL
MODEL 6
REMARK VINA RESULT:      -7.3      2.390      5.764
REMARK  Name = 
REMARK  2 active torsions:
REMARK  status: ('A' for Active; 'I' for Inactive)
REMARK    1  A    between atoms: C_2  and  C_3
REMARK    2  A    between atoms: C_8  and  C_9
REMARK                            x       y       z     vdW  Elec       q    Type
REMARK                         _______ _______ _______ _____ _____    ______ ____
ROOT
ATOM      1  C   UNL     1       6.897   4.899  18.184  0.00  0.00    +0.000 C 
ATOM      2  C   UNL     1       7.113   6.393  18.022  0.00  0.00    +0.000 C 
ATOM      3  O   UNL     1       7.222   6.649  16.621  0.00  0.00    +0.000 OA
ATOM      4  C   UNL     1       6.715   5.487  15.973  0.00  0.00    +0.000 C 
ATOM      5  C   UNL     1       5.242   5.705  15.594  0.00  0.00    +0.000 C 
ATOM      6  C   UNL     1       4.674   4.482  14.879  0.00  0.00    +0.000 C 
ATOM      7  C   UNL     1       5.488   4.142  13.632  0.00  0.00    +0.000 C 
ATOM      8  C   UNL     1       6.984   4.019  13.920  0.00  0.00    +0.000 C 
ATOM      9  C   UNL     1       7.530   5.213  14.705  0.00  0.00    +0.000 C 
ATOM     10  O   UNL     1       6.831   4.368  16.858  0.00  0.00    +0.000 OA
ENDROOT
BRANCH   1  15
ATOM     11  C   UNL     1       4.561   5.198  19.375  0.00  0.00    +0.000 A 
ATOM     12  C   UNL     1       3.709   4.213  19.919  0.00  0.00    +0.000 A 
ATOM     13  N   UNL     1       4.211   2.985  19.798  0.00  0.00    +0.000 NA
ATOM     14  N   UNL     1       5.376   3.182  19.163  0.00  0.00    +0.000 N 
ATOM     15  C   UNL     1       5.640   4.497  18.874  0.00  0.00    +0.000 A 
ATOM     16  H   UNL     1       5.951   2.376  18.932  0.00  0.00    +0.000 HD
BRANCH  12  17
ATOM     17  C   UNL     1       2.373   4.534  20.578  0.00  0.00    +0.000 C 
ATOM     18  C   UNL     1       1.100   3.972  19.976  0.00  0.00    +0.000 C 
ATOM     19  C   UNL     1       1.617   3.413  21.258  0.00  0.00    +0.000 C 
ENDBRANCH  12  17
ENDBRANCH   1  15
TORSDOF 2
ENDMDL
MODEL 7
REMARK VINA RESULT:      -7.3      1.812      2.744
REMARK  Name = 
REMARK  2 active torsions:
REMARK  status: ('A' for Active; 'I' for Inactive)
REMARK    1  A    between atoms: C_2  and  C_3
REMARK    2  A    between atoms: C_8  and  C_9
REMARK                            x       y       z     vdW  Elec       q    Type
REMARK                         _______ _______ _______ _____ _____    ______ ____
ROOT
ATOM      1  C   UNL     1       4.652   3.877  19.181  0.00  0.00    +0.000 C 
ATOM      2  C   UNL     1       3.498   2.908  18.995  0.00  0.00    +0.000 C 
ATOM      3  O   UNL     1       2.305   3.606  19.351  0.00  0.00    +0.000 OA
ATOM      4  C   UNL     1       2.652   4.988  19.363  0.00  0.00    +0.000 C 
ATOM      5  C   UNL     1       2.270   5.629  18.020  0.00  0.00    +0.000 C 
ATOM      6  C   UNL     1       2.612   7.117  18.007  0.00  0.00    +0.000 C 
ATOM      7  C   UNL     1       1.921   7.854  19.153  0.00  0.00    +0.000 C 
ATOM      8  C   UNL     1       2.172   7.200  20.511  0.00  0.00    +0.000 C 
ATOM      9  C   UNL     1       1.901   5.694  20.495  0.00  0.00    +0.000 C 
ATOM     10  O   UNL     1       4.061   5.116  19.581  0.00  0.00    +0.000 OA
ENDROOT
BRANCH   1  15
ATOM     11  C   UNL     1       5.157   4.322  16.629  0.00  0.00    +0.000 A 
ATOM     12  C   UNL     1       6.396   4.554  15.996  0.00  0.00    +0.000 A 
ATOM     13  N   UNL     1       7.416   4.520  16.851  0.00  0.00    +0.000 NA
ATOM     14  N   UNL     1       6.829   4.281  18.034  0.00  0.00    +0.000 N 
ATOM     15  C   UNL     1       5.465   4.158  17.964  0.00  0.00    +0.000 A 
ATOM     16  H   UNL     1       7.408   4.228  18.867  0.00  0.00    +0.000 HD
BRANCH  12  17
ATOM     17  C   UNL     1       6.538   4.804  14.499  0.00  0.00    +0.000 C 
ATOM     18  C   UNL     1       6.632   3.618  13.560  0.00  0.00    +0.000 C 
ATOM     19  C   UNL     1       5.383   4.431  13.593  0.00  0.00    +0.000 C 
ENDBRANCH  12  17
ENDBRANCH   1  15
TORSDOF 2
ENDMDL
MODEL 8
REMARK VINA RESULT:      -7.2      1.807      2.420
REMARK  Name = 
REMARK  2 active torsions:
REMARK  status: ('A' for Active; 'I' for Inactive)
REMARK    1  A    between atoms: C_2  and  C_3
REMARK    2  A    between atoms: C_8  and  C_9
REMARK                            x       y       z     vdW  Elec       q    Type
REMARK                         _______ _______ _______ _____ _____    ______ ____
ROOT
ATOM      1  C   UNL     1       2.839   6.194  18.064  0.00  0.00    +0.000 C 
ATOM      2  C   UNL     1       3.086   6.656  19.489  0.00  0.00    +0.000 C 
ATOM      3  O   UNL     1       2.483   5.690  20.351  0.00  0.00    +0.000 OA
ATOM      4  C   UNL     1       2.245   4.542  19.542  0.00  0.00    +0.000 C 
ATOM      5  C   UNL     1       3.394   3.538  19.716  0.00  0.00    +0.000 C 
ATOM      6  C   UNL     1       3.159   2.286  18.876  0.00  0.00    +0.000 C 
ATOM      7  C   UNL     1       1.829   1.623  19.230  0.00  0.00    +0.000 C 
ATOM      8  C   UNL     1       0.653   2.598  19.184  0.00  0.00    +0.000 C 
ATOM      9  C   UNL     1       0.927   3.885  19.965  0.00  0.00    +0.000 C 
ATOM     10  O   UNL     1       2.152   4.944  18.172  0.00  0.00    +0.000 OA
ENDROOT
BRANCH   1  15
ATOM     11  C   UNL     1       4.556   4.842  16.584  0.00  0.00    +0.000 A 
ATOM     12  C   UNL     1       5.763   5.281  16.000  0.00  0.00    +0.000 A 
ATOM     13  N   UNL     1       6.027   6.556  16.279  0.00  0.00    +0.000 NA
ATOM     14  N   UNL     1       4.982   6.938  17.028  0.00  0.00    +0.000 N 
ATOM     15  C   UNL     1       4.056   5.948  17.241  0.00  0.00    +0.000 A 
ATOM     16  H   UNL     1       4.939   7.899  17.358  0.00  0.00    +0.000 HD
BRANCH  12  17
ATOM     17  C   UNL     1       6.660   4.383  15.157  0.00  0.00    +0.000 C 
ATOM     18  C   UNL     1       6.175   3.926  13.795  0.00  0.00    +0.000 C 
ATOM     19  C   UNL     1       7.256   4.948  13.885  0.00  0.00    +0.000 C 
ENDBRANCH  12  17
ENDBRANCH   1  15
TORSDOF 2
ENDMDL
MODEL 9
REMARK VINA RESULT:      -7.2      2.547      3.947
REMARK  Name = 
REMARK  2 active torsions:
REMARK  status: ('A' for Active; 'I' for Inactive)
REMARK    1  A    between atoms: C_2  and  C_3
REMARK    2  A    between atoms: C_8  and  C_9
REMARK                            x       y       z     vdW  Elec       q    Type
REMARK                         _______ _______ _______ _____ _____    ______ ____
ROOT
ATOM      1  C   UNL     1       3.929   2.947  18.027  0.00  0.00    +0.000 C 
ATOM      2  C   UNL     1       2.783   2.699  17.062  0.00  0.00    +0.000 C 
ATOM      3  O   UNL     1       1.605   3.230  17.669  0.00  0.00    +0.000 OA
ATOM      4  C   UNL     1       2.057   4.081  18.718  0.00  0.00    +0.000 C 
ATOM      5  C   UNL     1       2.097   5.535  18.225  0.00  0.00    +0.000 C 
ATOM      6  C   UNL     1       2.560   6.476  19.334  0.00  0.00    +0.000 C 
ATOM      7  C   UNL     1       1.662   6.366  20.565  0.00  0.00    +0.000 C 
ATOM      8  C   UNL     1       1.490   4.925  21.044  0.00  0.00    +0.000 C 
ATOM      9  C   UNL     1       1.101   3.974  19.911  0.00  0.00    +0.000 C 
ATOM     10  O   UNL     1       3.366   3.668  19.126  0.00  0.00    +0.000 OA
ENDROOT
BRANCH   1  15
ATOM     11  C   UNL     1       5.763   4.846  17.998  0.00  0.00    +0.000 A 
ATOM     12  C   UNL     1       6.693   5.165  16.987  0.00  0.00    +0.000 A 
ATOM     13  N   UNL     1       6.575   4.377  15.920  0.00  0.00    +0.000 NA
ATOM     14  N   UNL     1       5.579   3.543  16.254  0.00  0.00    +0.000 N 
ATOM     15  C   UNL     1       5.053   3.772  17.500  0.00  0.00    +0.000 A 
ATOM     16  H   UNL     1       5.306   2.817  15.597  0.00  0.00    +0.000 HD
BRANCH  12  17
ATOM     17  C   UNL     1       7.708   6.296  17.111  0.00  0.00    +0.000 C 
ATOM     18  C   UNL     1       7.218   7.693  17.437  0.00  0.00    +0.000 C 
ATOM     19  C   UNL     1       7.943   6.908  18.475  0.00  0.00    +0.000 C 
ENDBRANCH  12  17
ENDBRANCH   1  15
TORSDOF 2
ENDMDL
