MODEL 1
REMARK VINA RESULT:      -8.1      0.000      0.000
REMARK  Name = 
REMARK  4 active torsions:
REMARK  status: ('A' for Active; 'I' for Inactive)
REMARK    1  A    between atoms: C_1  and  C_2
REMARK    2  A    between atoms: N_4  and  C_5
REMARK    3  A    between atoms: C_5  and  C_6
REMARK    4  A    between atoms: C_23  and  C_24
REMARK                            x       y       z     vdW  Elec       q    Type
REMARK                         _______ _______ _______ _____ _____    ______ ____
ROOT
ATOM      1  C   UNL     1       3.082   6.387  18.436  0.00  0.00    +0.000 C 
ATOM      2  C   UNL     1       2.900   6.936  19.898  0.00  0.00    +0.000 C 
ATOM      3  C   UNL     1       1.897   8.040  19.740  0.00  0.00    +0.000 A 
ATOM      4  C   UNL     1       1.201   8.698  20.743  0.00  0.00    +0.000 A 
ATOM      5  C   UNL     1       0.343   9.740  20.385  0.00  0.00    +0.000 A 
ATOM      6  C   UNL     1       0.208  10.121  19.042  0.00  0.00    +0.000 A 
ATOM      7  C   UNL     1       0.915   9.454  18.042  0.00  0.00    +0.000 A 
ATOM      8  C   UNL     1       1.742   8.402  18.405  0.00  0.00    +0.000 A 
ATOM      9  C   UNL     1       2.604   7.567  17.508  0.00  0.00    +0.000 C 
ENDROOT
BRANCH   1  13
ATOM     10  C   UNL     1       7.604   6.439  18.551  0.00  0.00    +0.000 C 
ATOM     11  C   UNL     1       6.745   5.250  18.964  0.00  0.00    +0.000 C 
ATOM     12  C   UNL     1       5.289   5.632  19.316  0.00  0.00    +0.000 C 
ATOM     13  N   UNL     1       4.469   5.890  18.106  0.00  0.00    +0.000 NA
ATOM     14  C   UNL     1       4.504   4.646  17.307  0.00  0.00    +0.000 C 
ATOM     15  C   UNL     1       5.939   4.260  16.892  0.00  0.00    +0.000 C 
ATOM     16  C   UNL     1       6.472   5.115  15.746  0.00  0.00    +0.000 C 
ATOM     17  O   UNL     1       6.841   4.190  18.006  0.00  0.00    +0.000 OA
ENDBRANCH   1  13
BRANCH   1  18
ATOM     18  C   UNL     1       2.076   5.163  18.310  0.00  0.00    +0.000 C 
ATOM     19  O   UNL     1       1.571   4.885  17.216  0.00  0.00    +0.000 OA
ATOM     20  N   UNL     1       1.792   4.368  19.422  0.00  0.00    +0.000 N 
ATOM     21  C   UNL     1       2.284   4.536  20.796  0.00  0.00    +0.000 C 
ATOM     22  C   UNL     1       2.711   3.189  21.394  0.00  0.00    +0.000 C 
ATOM     23  O   UNL     1       1.655   2.221  21.313  0.00  0.00    +0.000 OA
ATOM     24  C   UNL     1       1.303   2.000  19.937  0.00  0.00    +0.000 C 
ATOM     25  C   UNL     1       0.795   3.297  19.295  0.00  0.00    +0.000 C 
ENDBRANCH   1  18
TORSDOF 2
ENDMDL
MODEL 2
REMARK VINA RESULT:      -8.0      1.401      2.000
REMARK  Name = 
REMARK  4 active torsions:
REMARK  status: ('A' for Active; 'I' for Inactive)
REMARK    1  A    between atoms: C_1  and  C_2
REMARK    2  A    between atoms: N_4  and  C_5
REMARK    3  A    between atoms: C_5  and  C_6
REMARK    4  A    between atoms: C_23  and  C_24
REMARK                            x       y       z     vdW  Elec       q    Type
REMARK                         _______ _______ _______ _____ _____    ______ ____
ROOT
ATOM      1  C   UNL     1       3.302   6.528  18.118  0.00  0.00    +0.000 C 
ATOM      2  C   UNL     1       3.163   6.956  19.625  0.00  0.00    +0.000 C 
ATOM      3  C   UNL     1       2.073   7.985  19.601  0.00  0.00    +0.000 A 
ATOM      4  C   UNL     1       1.386   8.513  20.685  0.00  0.00    +0.000 A 
ATOM      5  C   UNL     1       0.435   9.508  20.451  0.00  0.00    +0.000 A 
ATOM      6  C   UNL     1       0.196   9.971  19.149  0.00  0.00    +0.000 A 
ATOM      7  C   UNL     1       0.893   9.435  18.067  0.00  0.00    +0.000 A 
ATOM      8  C   UNL     1       1.816   8.428  18.307  0.00  0.00    +0.000 A 
ATOM      9  C   UNL     1       2.686   7.730  17.307  0.00  0.00    +0.000 C 
ENDROOT
BRANCH   1  13
ATOM     10  C   UNL     1       6.455   3.978  16.110  0.00  0.00    +0.000 C 
ATOM     11  C   UNL     1       6.213   5.451  15.802  0.00  0.00    +0.000 C 
ATOM     12  C   UNL     1       4.808   5.946  16.217  0.00  0.00    +0.000 C 
ATOM     13  N   UNL     1       4.701   6.166  17.682  0.00  0.00    +0.000 NA
ATOM     14  C   UNL     1       5.733   7.168  18.028  0.00  0.00    +0.000 C 
ATOM     15  C   UNL     1       7.155   6.686  17.675  0.00  0.00    +0.000 C 
ATOM     16  C   UNL     1       7.694   5.660  18.668  0.00  0.00    +0.000 C 
ATOM     17  O   UNL     1       7.278   6.263  16.309  0.00  0.00    +0.000 OA
ENDBRANCH   1  13
BRANCH   1  18
ATOM     18  C   UNL     1       2.385   5.240  17.951  0.00  0.00    +0.000 C 
ATOM     19  O   UNL     1       1.388   5.279  17.220  0.00  0.00    +0.000 OA
ATOM     20  N   UNL     1       2.723   4.048  18.592  0.00  0.00    +0.000 N 
ATOM     21  C   UNL     1       3.855   3.803  19.498  0.00  0.00    +0.000 C 
ATOM     22  C   UNL     1       4.540   2.469  19.171  0.00  0.00    +0.000 C 
ATOM     23  O   UNL     1       3.601   1.384  19.175  0.00  0.00    +0.000 OA
ATOM     24  C   UNL     1       2.589   1.614  18.180  0.00  0.00    +0.000 C 
ATOM     25  C   UNL     1       1.812   2.900  18.488  0.00  0.00    +0.000 C 
ENDBRANCH   1  18
TORSDOF 2
ENDMDL
MODEL 3
REMARK VINA RESULT:      -7.9      1.569      5.247
REMARK  Name = 
REMARK  4 active torsions:
REMARK  status: ('A' for Active; 'I' for Inactive)
REMARK    1  A    between atoms: C_1  and  C_2
REMARK    2  A    between atoms: N_4  and  C_5
REMARK    3  A    between atoms: C_5  and  C_6
REMARK    4  A    between atoms: C_23  and  C_24
REMARK                            x       y       z     vdW  Elec       q    Type
REMARK                         _______ _______ _______ _____ _____    ______ ____
ROOT
ATOM      1  C   UNL     1       2.859   6.438  18.520  0.00  0.00    +0.000 C 
ATOM      2  C   UNL     1       3.538   6.645  17.116  0.00  0.00    +0.000 C 
ATOM      3  C   UNL     1       4.873   5.978  17.268  0.00  0.00    +0.000 A 
ATOM      4  C   UNL     1       5.775   5.656  16.264  0.00  0.00    +0.000 A 
ATOM      5  C   UNL     1       6.994   5.079  16.623  0.00  0.00    +0.000 A 
ATOM      6  C   UNL     1       7.303   4.851  17.972  0.00  0.00    +0.000 A 
ATOM      7  C   UNL     1       6.390   5.181  18.973  0.00  0.00    +0.000 A 
ATOM      8  C   UNL     1       5.170   5.727  18.604  0.00  0.00    +0.000 A 
ATOM      9  C   UNL     1       4.059   6.172  19.505  0.00  0.00    +0.000 C 
ENDROOT
BRANCH   1  13
ATOM     10  C   UNL     1      -0.292   8.406  21.103  0.00  0.00    +0.000 C 
ATOM     11  C   UNL     1       1.108   8.964  20.876  0.00  0.00    +0.000 C 
ATOM     12  C   UNL     1       2.127   7.902  20.401  0.00  0.00    +0.000 C 
ATOM     13  N   UNL     1       1.957   7.564  18.966  0.00  0.00    +0.000 NA
ATOM     14  C   UNL     1       2.131   8.827  18.217  0.00  0.00    +0.000 C 
ATOM     15  C   UNL     1       1.096   9.896  18.628  0.00  0.00    +0.000 C 
ATOM     16  C   UNL     1      -0.287   9.635  18.038  0.00  0.00    +0.000 C 
ATOM     17  O   UNL     1       1.068  10.129  20.043  0.00  0.00    +0.000 OA
ENDBRANCH   1  13
BRANCH   1  18
ATOM     18  C   UNL     1       1.977   5.124  18.380  0.00  0.00    +0.000 C 
ATOM     19  O   UNL     1       1.620   4.733  17.262  0.00  0.00    +0.000 OA
ATOM     20  N   UNL     1       1.636   4.381  19.511  0.00  0.00    +0.000 N 
ATOM     21  C   UNL     1       1.957   4.680  20.913  0.00  0.00    +0.000 C 
ATOM     22  C   UNL     1       2.424   3.418  21.651  0.00  0.00    +0.000 C 
ATOM     23  O   UNL     1       1.466   2.357  21.531  0.00  0.00    +0.000 OA
ATOM     24  C   UNL     1       1.288   2.017  20.145  0.00  0.00    +0.000 C 
ATOM     25  C   UNL     1       0.750   3.220  19.359  0.00  0.00    +0.000 C 
ENDBRANCH   1  18
TORSDOF 2
ENDMDL
MODEL 4
REMARK VINA RESULT:      -7.1      1.614      4.738
REMARK  Name = 
REMARK  4 active torsions:
REMARK  status: ('A' for Active; 'I' for Inactive)
REMARK    1  A    between atoms: C_1  and  C_2
REMARK    2  A    between atoms: N_4  and  C_5
REMARK    3  A    between atoms: C_5  and  C_6
REMARK    4  A    between atoms: C_23  and  C_24
REMARK                            x       y       z     vdW  Elec       q    Type
REMARK                         _______ _______ _______ _____ _____    ______ ____
ROOT
ATOM      1  C   UNL     1       2.882   5.832  18.991  0.00  0.00    +0.000 C 
ATOM      2  C   UNL     1       2.365   6.603  17.722  0.00  0.00    +0.000 C 
ATOM      3  C   UNL     1       2.032   7.967  18.248  0.00  0.00    +0.000 A 
ATOM      4  C   UNL     1       1.764   9.114  17.514  0.00  0.00    +0.000 A 
ATOM      5  C   UNL     1       1.423  10.281  18.201  0.00  0.00    +0.000 A 
ATOM      6  C   UNL     1       1.337  10.283  19.601  0.00  0.00    +0.000 A 
ATOM      7  C   UNL     1       1.606   9.124  20.329  0.00  0.00    +0.000 A 
ATOM      8  C   UNL     1       1.972   7.978  19.639  0.00  0.00    +0.000 A 
ATOM      9  C   UNL     1       2.282   6.628  20.210  0.00  0.00    +0.000 C 
ENDROOT
BRANCH   1  13
ATOM     10  C   UNL     1       1.779   1.901  20.942  0.00  0.00    +0.000 C 
ATOM     11  C   UNL     1       0.994   2.551  19.808  0.00  0.00    +0.000 C 
ATOM     12  C   UNL     1       1.254   4.070  19.669  0.00  0.00    +0.000 C 
ATOM     13  N   UNL     1       2.558   4.357  19.020  0.00  0.00    +0.000 NA
ATOM     14  C   UNL     1       2.513   3.710  17.691  0.00  0.00    +0.000 C 
ATOM     15  C   UNL     1       2.307   2.184  17.793  0.00  0.00    +0.000 C 
ATOM     16  C   UNL     1       3.575   1.443  18.208  0.00  0.00    +0.000 C 
ATOM     17  O   UNL     1       1.164   1.828  18.584  0.00  0.00    +0.000 OA
ENDBRANCH   1  13
BRANCH   1  18
ATOM     18  C   UNL     1       4.464   5.988  18.973  0.00  0.00    +0.000 C 
ATOM     19  O   UNL     1       5.111   5.861  20.019  0.00  0.00    +0.000 OA
ATOM     20  N   UNL     1       5.134   6.226  17.772  0.00  0.00    +0.000 N 
ATOM     21  C   UNL     1       4.548   6.411  16.437  0.00  0.00    +0.000 C 
ATOM     22  C   UNL     1       5.337   5.628  15.379  0.00  0.00    +0.000 C 
ATOM     23  O   UNL     1       6.731   5.966  15.408  0.00  0.00    +0.000 OA
ATOM     24  C   UNL     1       7.282   5.643  16.696  0.00  0.00    +0.000 C 
ATOM     25  C   UNL     1       6.585   6.450  17.799  0.00  0.00    +0.000 C 
ENDBRANCH   1  18
TORSDOF 2
ENDMDL
MODEL 5
REMARK VINA RESULT:      -7.0      4.835      8.332
REMARK  Name = 
REMARK  4 active torsions:
REMARK  status: ('A' for Active; 'I' for Inactive)
REMARK    1  A    between atoms: C_1  and  C_2
REMARK    2  A    between atoms: N_4  and  C_5
REMARK    3  A    between atoms: C_5  and  C_6
REMARK    4  A    between atoms: C_23  and  C_24
REMARK                            x       y       z     vdW  Elec       q    Type
REMARK                         _______ _______ _______ _____ _____    ______ ____
ROOT
ATOM      1  C   UNL     1       0.565  11.092  19.245  0.00  0.00    +0.000 C 
ATOM      2  C   UNL     1       1.667  10.478  18.306  0.00  0.00    +0.000 C 
ATOM      3  C   UNL     1       1.809   9.070  18.800  0.00  0.00    +0.000 A 
ATOM      4  C   UNL     1       2.467   8.019  18.178  0.00  0.00    +0.000 A 
ATOM      5  C   UNL     1       2.527   6.788  18.835  0.00  0.00    +0.000 A 
ATOM      6  C   UNL     1       1.951   6.629  20.103  0.00  0.00    +0.000 A 
ATOM      7  C   UNL     1       1.293   7.694  20.720  0.00  0.00    +0.000 A 
ATOM      8  C   UNL     1       1.214   8.903  20.047  0.00  0.00    +0.000 A 
ATOM      9  C   UNL     1       0.581  10.174  20.525  0.00  0.00    +0.000 C 
ENDROOT
BRANCH   1  13
ATOM     10  C   UNL     1       0.435  14.782  21.861  0.00  0.00    +0.000 C 
ATOM     11  C   UNL     1       1.675  14.293  21.121  0.00  0.00    +0.000 C 
ATOM     12  C   UNL     1       1.612  12.797  20.733  0.00  0.00    +0.000 C 
ATOM     13  N   UNL     1       0.736  12.559  19.558  0.00  0.00    +0.000 NA
ATOM     14  C   UNL     1       1.296  13.364  18.451  0.00  0.00    +0.000 C 
ATOM     15  C   UNL     1       1.326  14.871  18.783  0.00  0.00    +0.000 C 
ATOM     16  C   UNL     1      -0.049  15.525  18.680  0.00  0.00    +0.000 C 
ATOM     17  O   UNL     1       1.991  15.156  20.023  0.00  0.00    +0.000 OA
ENDBRANCH   1  13
BRANCH   1  18
ATOM     18  C   UNL     1      -0.810  10.910  18.470  0.00  0.00    +0.000 C 
ATOM     19  O   UNL     1      -0.914  10.052  17.585  0.00  0.00    +0.000 OA
ATOM     20  N   UNL     1      -1.919  11.686  18.812  0.00  0.00    +0.000 N 
ATOM     21  C   UNL     1      -1.994  12.751  19.822  0.00  0.00    +0.000 C 
ATOM     22  C   UNL     1      -3.279  12.628  20.653  0.00  0.00    +0.000 C 
ATOM     23  O   UNL     1      -4.443  12.595  19.816  0.00  0.00    +0.000 OA
ATOM     24  C   UNL     1      -4.377  11.458  18.937  0.00  0.00    +0.000 C 
ATOM     25  C   UNL     1      -3.150  11.555  18.022  0.00  0.00    +0.000 C 
ENDBRANCH   1  18
TORSDOF 2
ENDMDL
MODEL 6
REMARK VINA RESULT:      -6.8      6.913     11.257
REMARK  Name = 
REMARK  4 active torsions:
REMARK  status: ('A' for Active; 'I' for Inactive)
REMARK    1  A    between atoms: C_1  and  C_2
REMARK    2  A    between atoms: N_4  and  C_5
REMARK    3  A    between atoms: C_5  and  C_6
REMARK    4  A    between atoms: C_23  and  C_24
REMARK                            x       y       z     vdW  Elec       q    Type
REMARK                         _______ _______ _______ _____ _____    ______ ____
ROOT
ATOM      1  C   UNL     1      -1.892  12.597  22.021  0.00  0.00    +0.000 C 
ATOM      2  C   UNL     1      -1.611  11.449  23.060  0.00  0.00    +0.000 C 
ATOM      3  C   UNL     1      -0.636  10.559  22.349  0.00  0.00    +0.000 A 
ATOM      4  C   UNL     1       0.124   9.534  22.893  0.00  0.00    +0.000 A 
ATOM      5  C   UNL     1       0.941   8.786  22.043  0.00  0.00    +0.000 A 
ATOM      6  C   UNL     1       0.973   9.056  20.667  0.00  0.00    +0.000 A 
ATOM      7  C   UNL     1       0.203  10.088  20.130  0.00  0.00    +0.000 A 
ATOM      8  C   UNL     1      -0.583  10.844  20.987  0.00  0.00    +0.000 A 
ATOM      9  C   UNL     1      -1.497  11.975  20.628  0.00  0.00    +0.000 C 
ENDROOT
BRANCH   1  13
ATOM     10  C   UNL     1      -5.446  14.873  20.390  0.00  0.00    +0.000 C 
ATOM     11  C   UNL     1      -5.491  13.422  20.856  0.00  0.00    +0.000 C 
ATOM     12  C   UNL     1      -4.105  12.738  20.881  0.00  0.00    +0.000 C 
ATOM     13  N   UNL     1      -3.293  13.158  22.051  0.00  0.00    +0.000 NA
ATOM     14  C   UNL     1      -4.076  12.797  23.253  0.00  0.00    +0.000 C 
ATOM     15  C   UNL     1      -5.447  13.503  23.288  0.00  0.00    +0.000 C 
ATOM     16  C   UNL     1      -5.344  14.972  23.690  0.00  0.00    +0.000 C 
ATOM     17  O   UNL     1      -6.210  13.302  22.090  0.00  0.00    +0.000 OA
ENDBRANCH   1  13
BRANCH   1  18
ATOM     18  C   UNL     1      -0.883  13.767  22.392  0.00  0.00    +0.000 C 
ATOM     19  O   UNL     1      -0.291  13.754  23.478  0.00  0.00    +0.000 OA
ATOM     20  N   UNL     1      -0.627  14.792  21.480  0.00  0.00    +0.000 N 
ATOM     21  C   UNL     1      -1.228  14.985  20.153  0.00  0.00    +0.000 C 
ATOM     22  C   UNL     1      -0.162  15.371  19.119  0.00  0.00    +0.000 C 
ATOM     23  O   UNL     1       0.588  16.518  19.543  0.00  0.00    +0.000 OA
ATOM     24  C   UNL     1       1.260  16.228  20.781  0.00  0.00    +0.000 C 
ATOM     25  C   UNL     1       0.244  15.903  21.884  0.00  0.00    +0.000 C 
ENDBRANCH   1  18
TORSDOF 2
ENDMDL
MODEL 7
REMARK VINA RESULT:      -6.7      1.513      5.332
REMARK  Name = 
REMARK  4 active torsions:
REMARK  status: ('A' for Active; 'I' for Inactive)
REMARK    1  A    between atoms: C_1  and  C_2
REMARK    2  A    between atoms: N_4  and  C_5
REMARK    3  A    between atoms: C_5  and  C_6
REMARK    4  A    between atoms: C_23  and  C_24
REMARK                            x       y       z     vdW  Elec       q    Type
REMARK                         _______ _______ _______ _____ _____    ______ ____
ROOT
ATOM      1  C   UNL     1       3.086   6.544  18.646  0.00  0.00    +0.000 C 
ATOM      2  C   UNL     1       3.696   6.802  17.219  0.00  0.00    +0.000 C 
ATOM      3  C   UNL     1       4.970   6.012  17.230  0.00  0.00    +0.000 A 
ATOM      4  C   UNL     1       5.776   5.694  16.147  0.00  0.00    +0.000 A 
ATOM      5  C   UNL     1       6.958   4.987  16.379  0.00  0.00    +0.000 A 
ATOM      6  C   UNL     1       7.325   4.626  17.684  0.00  0.00    +0.000 A 
ATOM      7  C   UNL     1       6.509   4.953  18.766  0.00  0.00    +0.000 A 
ATOM      8  C   UNL     1       5.324   5.630  18.521  0.00  0.00    +0.000 A 
ATOM      9  C   UNL     1       4.315   6.097  19.525  0.00  0.00    +0.000 C 
ENDROOT
BRANCH   1  13
ATOM     10  C   UNL     1       1.793  10.866  18.992  0.00  0.00    +0.000 C 
ATOM     11  C   UNL     1       0.838   9.692  18.808  0.00  0.00    +0.000 C 
ATOM     12  C   UNL     1       1.514   8.431  18.221  0.00  0.00    +0.000 C 
ATOM     13  N   UNL     1       2.319   7.704  19.233  0.00  0.00    +0.000 NA
ATOM     14  C   UNL     1       1.388   7.338  20.322  0.00  0.00    +0.000 C 
ATOM     15  C   UNL     1       0.732   8.576  20.969  0.00  0.00    +0.000 C 
ATOM     16  C   UNL     1       1.676   9.321  21.909  0.00  0.00    +0.000 C 
ATOM     17  O   UNL     1       0.101   9.437  20.010  0.00  0.00    +0.000 OA
ENDBRANCH   1  13
BRANCH   1  18
ATOM     18  C   UNL     1       2.081   5.326  18.469  0.00  0.00    +0.000 C 
ATOM     19  O   UNL     1       1.552   5.113  17.371  0.00  0.00    +0.000 OA
ATOM     20  N   UNL     1       1.822   4.466  19.537  0.00  0.00    +0.000 N 
ATOM     21  C   UNL     1       2.343   4.553  20.908  0.00  0.00    +0.000 C 
ATOM     22  C   UNL     1       2.786   3.174  21.415  0.00  0.00    +0.000 C 
ATOM     23  O   UNL     1       1.730   2.209  21.299  0.00  0.00    +0.000 OA
ATOM     24  C   UNL     1       1.349   2.070  19.920  0.00  0.00    +0.000 C 
ATOM     25  C   UNL     1       0.824   3.401  19.368  0.00  0.00    +0.000 C 
ENDBRANCH   1  18
TORSDOF 2
ENDMDL
MODEL 8
REMARK VINA RESULT:      -6.7      1.438      4.204
REMARK  Name = 
REMARK  4 active torsions:
REMARK  status: ('A' for Active; 'I' for Inactive)
REMARK    1  A    between atoms: C_1  and  C_2
REMARK    2  A    between atoms: N_4  and  C_5
REMARK    3  A    between atoms: C_5  and  C_6
REMARK    4  A    between atoms: C_23  and  C_24
REMARK                            x       y       z     vdW  Elec       q    Type
REMARK                         _______ _______ _______ _____ _____    ______ ____
ROOT
ATOM      1  C   UNL     1       2.569   6.322  18.526  0.00  0.00    +0.000 C 
ATOM      2  C   UNL     1       1.380   6.905  17.677  0.00  0.00    +0.000 C 
ATOM      3  C   UNL     1       1.175   8.276  18.250  0.00  0.00    +0.000 A 
ATOM      4  C   UNL     1       0.417   9.309  17.717  0.00  0.00    +0.000 A 
ATOM      5  C   UNL     1       0.314  10.500  18.438  0.00  0.00    +0.000 A 
ATOM      6  C   UNL     1       0.948  10.637  19.681  0.00  0.00    +0.000 A 
ATOM      7  C   UNL     1       1.706   9.591  20.208  0.00  0.00    +0.000 A 
ATOM      8  C   UNL     1       1.826   8.422  19.471  0.00  0.00    +0.000 A 
ATOM      9  C   UNL     1       2.565   7.176  19.851  0.00  0.00    +0.000 C 
ENDROOT
BRANCH   1  13
ATOM     10  C   UNL     1       2.915   2.545  20.993  0.00  0.00    +0.000 C 
ATOM     11  C   UNL     1       1.666   2.963  20.226  0.00  0.00    +0.000 C 
ATOM     12  C   UNL     1       1.616   4.474  19.901  0.00  0.00    +0.000 C 
ATOM     13  N   UNL     1       2.511   4.834  18.773  0.00  0.00    +0.000 NA
ATOM     14  C   UNL     1       2.060   4.035  17.613  0.00  0.00    +0.000 C 
ATOM     15  C   UNL     1       2.145   2.518  17.882  0.00  0.00    +0.000 C 
ATOM     16  C   UNL     1       3.573   1.984  17.806  0.00  0.00    +0.000 C 
ATOM     17  O   UNL     1       1.463   2.126  19.082  0.00  0.00    +0.000 OA
ENDBRANCH   1  13
BRANCH   1  18
ATOM     18  C   UNL     1       3.885   6.633  17.691  0.00  0.00    +0.000 C 
ATOM     19  O   UNL     1       3.861   7.479  16.788  0.00  0.00    +0.000 OA
ATOM     20  N   UNL     1       5.083   5.987  17.999  0.00  0.00    +0.000 N 
ATOM     21  C   UNL     1       5.312   4.957  19.022  0.00  0.00    +0.000 C 
ATOM     22  C   UNL     1       6.608   5.233  19.797  0.00  0.00    +0.000 C 
ATOM     23  O   UNL     1       7.728   5.372  18.911  0.00  0.00    +0.000 OA
ATOM     24  C   UNL     1       7.506   6.476  18.017  0.00  0.00    +0.000 C 
ATOM     25  C   UNL     1       6.261   6.231  17.155  0.00  0.00    +0.000 C 
ENDBRANCH   1  18
TORSDOF 2
ENDMDL
MODEL 9
REMARK VINA RESULT:      -6.7      5.589      9.931
REMARK  Name = 
REMARK  4 active torsions:
REMARK  status: ('A' for Active; 'I' for Inactive)
REMARK    1  A    between atoms: C_1  and  C_2
REMARK    2  A    between atoms: N_4  and  C_5
REMARK    3  A    between atoms: C_5  and  C_6
REMARK    4  A    between atoms: C_23  and  C_24
REMARK                            x       y       z     vdW  Elec       q    Type
REMARK                         _______ _______ _______ _____ _____    ______ ____
ROOT
ATOM      1  C   UNL     1      -0.179  11.659  20.680  0.00  0.00    +0.000 C 
ATOM      2  C   UNL     1       0.352  10.337  21.348  0.00  0.00    +0.000 C 
ATOM      3  C   UNL     1       0.932   9.568  20.199  0.00  0.00    +0.000 A 
ATOM      4  C   UNL     1       1.745   8.445  20.258  0.00  0.00    +0.000 A 
ATOM      5  C   UNL     1       2.140   7.844  19.062  0.00  0.00    +0.000 A 
ATOM      6  C   UNL     1       1.707   8.357  17.831  0.00  0.00    +0.000 A 
ATOM      7  C   UNL     1       0.888   9.485  17.783  0.00  0.00    +0.000 A 
ATOM      8  C   UNL     1       0.524  10.092  18.975  0.00  0.00    +0.000 A 
ATOM      9  C   UNL     1      -0.357  11.289  19.159  0.00  0.00    +0.000 C 
ENDROOT
BRANCH   1  13
ATOM     10  C   UNL     1      -3.892  14.240  20.824  0.00  0.00    +0.000 C 
ATOM     11  C   UNL     1      -3.879  12.734  21.063  0.00  0.00    +0.000 C 
ATOM     12  C   UNL     1      -2.636  12.027  20.474  0.00  0.00    +0.000 C 
ATOM     13  N   UNL     1      -1.425  12.236  21.306  0.00  0.00    +0.000 NA
ATOM     14  C   UNL     1      -1.744  11.703  22.648  0.00  0.00    +0.000 C 
ATOM     15  C   UNL     1      -2.949  12.422  23.290  0.00  0.00    +0.000 C 
ATOM     16  C   UNL     1      -2.593  13.805  23.829  0.00  0.00    +0.000 C 
ATOM     17  O   UNL     1      -4.108  12.431  22.443  0.00  0.00    +0.000 OA
ENDBRANCH   1  13
BRANCH   1  18
ATOM     18  C   UNL     1       0.992  12.721  20.841  0.00  0.00    +0.000 C 
ATOM     19  O   UNL     1       2.090  12.370  21.293  0.00  0.00    +0.000 OA
ATOM     20  N   UNL     1       0.805  14.043  20.435  0.00  0.00    +0.000 N 
ATOM     21  C   UNL     1      -0.415  14.649  19.884  0.00  0.00    +0.000 C 
ATOM     22  C   UNL     1      -0.087  15.547  18.683  0.00  0.00    +0.000 C 
ATOM     23  O   UNL     1       0.901  16.531  19.019  0.00  0.00    +0.000 OA
ATOM     24  C   UNL     1       2.116  15.880  19.428  0.00  0.00    +0.000 C 
ATOM     25  C   UNL     1       1.875  15.020  20.674  0.00  0.00    +0.000 C 
ENDBRANCH   1  18
TORSDOF 2
ENDMDL
