MODEL 1
REMARK VINA RESULT:      -7.6      0.000      0.000
REMARK  Name = 
REMARK  6 active torsions:
REMARK  status: ('A' for Active; 'I' for Inactive)
REMARK    1  A    between atoms: C_1  and  O_2
REMARK    2  A    between atoms: O_2  and  C_3
REMARK    3  A    between atoms: C_6  and  C_7
REMARK    4  A    between atoms: C_14  and  O_15
REMARK    5  A    between atoms: C_18  and  O_19
REMARK    6  A    between atoms: O_19  and  C_20
REMARK                            x       y       z     vdW  Elec       q    Type
REMARK                         _______ _______ _______ _____ _____    ______ ____
ROOT
ATOM      1  C   UNL     1       3.833   5.292  18.643  0.00  0.00    +0.000 A 
ATOM      2  C   UNL     1       3.029   6.410  18.815  0.00  0.00    +0.000 A 
ATOM      3  S   UNL     1       1.948   6.262  20.126  0.00  0.00    +0.000 S 
ATOM      4  C   UNL     1       2.507   4.696  20.477  0.00  0.00    +0.000 A 
ATOM      5  N   UNL     1       1.959   4.003  21.495  0.00  0.00    +0.000 NA
ATOM      6  C   UNL     1       2.507   2.793  21.641  0.00  0.00    +0.000 A 
ATOM      7  N   UNL     1       3.491   2.246  20.918  0.00  0.00    +0.000 NA
ATOM      8  C   UNL     1       3.998   2.993  19.930  0.00  0.00    +0.000 A 
ATOM      9  C   UNL     1       3.524   4.273  19.632  0.00  0.00    +0.000 A 
ENDROOT
BRANCH   1  13
ATOM     10  C   UNL     1       6.659   5.213  15.404  0.00  0.00    +0.000 A 
ATOM     11  C   UNL     1       5.588   4.313  15.454  0.00  0.00    +0.000 A 
ATOM     12  C   UNL     1       4.649   4.372  16.482  0.00  0.00    +0.000 A 
ATOM     13  C   UNL     1       4.810   5.251  17.549  0.00  0.00    +0.000 A 
ATOM     14  C   UNL     1       5.926   6.101  17.537  0.00  0.00    +0.000 A 
ATOM     15  C   UNL     1       6.845   6.102  16.473  0.00  0.00    +0.000 A 
BRANCH  10  17
ATOM     16  C   UNL     1       7.112   4.475  13.200  0.00  0.00    +0.000 C 
ATOM     17  O   UNL     1       7.526   5.217  14.347  0.00  0.00    +0.000 OA
ENDBRANCH  10  17
BRANCH  15  18
ATOM     18  O   UNL     1       7.827   7.043  16.647  0.00  0.00    +0.000 OA
ATOM     19  C   UNL     1       7.720   7.958  17.725  0.00  0.00    +0.000 C 
ENDBRANCH  15  18
ENDBRANCH   1  13
BRANCH   8  20
ATOM     20  O   UNL     1       5.008   2.370  19.255  0.00  0.00    +0.000 OA
ATOM     21  H   UNL     1       4.511   1.667  18.799  0.00  0.00    +0.000 HD
ENDBRANCH   8  20
TORSDOF 4
ENDMDL
MODEL 2
REMARK VINA RESULT:      -6.9      1.900      2.412
REMARK  Name = 
REMARK  6 active torsions:
REMARK  status: ('A' for Active; 'I' for Inactive)
REMARK    1  A    between atoms: C_1  and  O_2
REMARK    2  A    between atoms: O_2  and  C_3
REMARK    3  A    between atoms: C_6  and  C_7
REMARK    4  A    between atoms: C_14  and  O_15
REMARK    5  A    between atoms: C_18  and  O_19
REMARK    6  A    between atoms: O_19  and  C_20
REMARK                            x       y       z     vdW  Elec       q    Type
REMARK                         _______ _______ _______ _____ _____    ______ ____
ROOT
ATOM      1  C   UNL     1       3.983   3.784  17.734  0.00  0.00    +0.000 A 
ATOM      2  C   UNL     1       3.695   2.435  17.886  0.00  0.00    +0.000 A 
ATOM      3  S   UNL     1       2.495   2.135  19.060  0.00  0.00    +0.000 S 
ATOM      4  C   UNL     1       2.352   3.792  19.412  0.00  0.00    +0.000 A 
ATOM      5  N   UNL     1       1.491   4.202  20.364  0.00  0.00    +0.000 NA
ATOM      6  C   UNL     1       1.496   5.529  20.520  0.00  0.00    +0.000 A 
ATOM      7  N   UNL     1       2.229   6.429  19.854  0.00  0.00    +0.000 NA
ATOM      8  C   UNL     1       3.056   5.956  18.914  0.00  0.00    +0.000 A 
ATOM      9  C   UNL     1       3.185   4.591  18.640  0.00  0.00    +0.000 A 
ENDROOT
BRANCH   1  13
ATOM     10  C   UNL     1       6.936   5.083  14.893  0.00  0.00    +0.000 A 
ATOM     11  C   UNL     1       6.021   4.073  14.576  0.00  0.00    +0.000 A 
ATOM     12  C   UNL     1       5.037   3.687  15.483  0.00  0.00    +0.000 A 
ATOM     13  C   UNL     1       5.005   4.212  16.772  0.00  0.00    +0.000 A 
ATOM     14  C   UNL     1       5.971   5.170  17.114  0.00  0.00    +0.000 A 
ATOM     15  C   UNL     1       6.928   5.622  16.188  0.00  0.00    +0.000 A 
BRANCH  10  17
ATOM     16  C   UNL     1       7.661   5.044  12.638  0.00  0.00    +0.000 C 
ATOM     17  O   UNL     1       7.841   5.529  13.969  0.00  0.00    +0.000 OA
ENDBRANCH  10  17
BRANCH  15  18
ATOM     18  O   UNL     1       7.739   6.591  16.722  0.00  0.00    +0.000 OA
ATOM     19  C   UNL     1       7.641   6.883  18.105  0.00  0.00    +0.000 C 
ENDBRANCH  15  18
ENDBRANCH   1  13
BRANCH   8  20
ATOM     20  O   UNL     1       3.751   6.939  18.272  0.00  0.00    +0.000 OA
ATOM     21  H   UNL     1       3.214   7.718  18.503  0.00  0.00    +0.000 HD
ENDBRANCH   8  20
TORSDOF 4
ENDMDL
MODEL 3
REMARK VINA RESULT:      -6.7      1.959      2.627
REMARK  Name = 
REMARK  6 active torsions:
REMARK  status: ('A' for Active; 'I' for Inactive)
REMARK    1  A    between atoms: C_1  and  O_2
REMARK    2  A    between atoms: O_2  and  C_3
REMARK    3  A    between atoms: C_6  and  C_7
REMARK    4  A    between atoms: C_14  and  O_15
REMARK    5  A    between atoms: C_18  and  O_19
REMARK    6  A    between atoms: O_19  and  C_20
REMARK                            x       y       z     vdW  Elec       q    Type
REMARK                         _______ _______ _______ _____ _____    ______ ____
ROOT
ATOM      1  C   UNL     1       3.967   4.783  18.498  0.00  0.00    +0.000 A 
ATOM      2  C   UNL     1       3.818   3.578  19.169  0.00  0.00    +0.000 A 
ATOM      3  S   UNL     1       2.679   3.655  20.437  0.00  0.00    +0.000 S 
ATOM      4  C   UNL     1       2.379   5.300  20.137  0.00  0.00    +0.000 A 
ATOM      5  N   UNL     1       1.502   5.972  20.908  0.00  0.00    +0.000 NA
ATOM      6  C   UNL     1       1.378   7.252  20.545  0.00  0.00    +0.000 A 
ATOM      7  N   UNL     1       2.003   7.883  19.545  0.00  0.00    +0.000 NA
ATOM      8  C   UNL     1       2.853   7.156  18.810  0.00  0.00    +0.000 A 
ATOM      9  C   UNL     1       3.111   5.807  19.071  0.00  0.00    +0.000 A 
ENDROOT
BRANCH   1  13
ATOM     10  C   UNL     1       6.720   5.142  15.215  0.00  0.00    +0.000 A 
ATOM     11  C   UNL     1       5.710   4.173  15.210  0.00  0.00    +0.000 A 
ATOM     12  C   UNL     1       4.792   4.090  16.255  0.00  0.00    +0.000 A 
ATOM     13  C   UNL     1       4.920   4.891  17.387  0.00  0.00    +0.000 A 
ATOM     14  C   UNL     1       5.980   5.810  17.424  0.00  0.00    +0.000 A 
ATOM     15  C   UNL     1       6.873   5.954  16.348  0.00  0.00    +0.000 A 
BRANCH  10  17
ATOM     16  C   UNL     1       7.191   4.578  12.963  0.00  0.00    +0.000 C 
ATOM     17  O   UNL     1       7.561   5.285  14.146  0.00  0.00    +0.000 OA
ENDBRANCH  10  17
BRANCH  15  18
ATOM     18  O   UNL     1       7.797   6.941  16.579  0.00  0.00    +0.000 OA
ATOM     19  C   UNL     1       7.684   7.726  17.754  0.00  0.00    +0.000 C 
ENDBRANCH  15  18
ENDBRANCH   1  13
BRANCH   8  20
ATOM     20  O   UNL     1       3.432   7.869  17.802  0.00  0.00    +0.000 OA
ATOM     21  H   UNL     1       4.311   8.039  18.185  0.00  0.00    +0.000 HD
ENDBRANCH   8  20
TORSDOF 4
ENDMDL
MODEL 4
REMARK VINA RESULT:      -6.4      3.924      5.990
REMARK  Name = 
REMARK  6 active torsions:
REMARK  status: ('A' for Active; 'I' for Inactive)
REMARK    1  A    between atoms: C_1  and  O_2
REMARK    2  A    between atoms: O_2  and  C_3
REMARK    3  A    between atoms: C_6  and  C_7
REMARK    4  A    between atoms: C_14  and  O_15
REMARK    5  A    between atoms: C_18  and  O_19
REMARK    6  A    between atoms: O_19  and  C_20
REMARK                            x       y       z     vdW  Elec       q    Type
REMARK                         _______ _______ _______ _____ _____    ______ ____
ROOT
ATOM      1  C   UNL     1       3.109   5.880  18.276  0.00  0.00    +0.000 A 
ATOM      2  C   UNL     1       4.231   5.915  17.460  0.00  0.00    +0.000 A 
ATOM      3  S   UNL     1       4.877   4.368  17.145  0.00  0.00    +0.000 S 
ATOM      4  C   UNL     1       3.694   3.620  18.109  0.00  0.00    +0.000 A 
ATOM      5  N   UNL     1       3.709   2.282  18.270  0.00  0.00    +0.000 NA
ATOM      6  C   UNL     1       2.717   1.851  19.054  0.00  0.00    +0.000 A 
ATOM      7  N   UNL     1       1.768   2.581  19.651  0.00  0.00    +0.000 NA
ATOM      8  C   UNL     1       1.804   3.903  19.441  0.00  0.00    +0.000 A 
ATOM      9  C   UNL     1       2.789   4.517  18.662  0.00  0.00    +0.000 A 
ENDROOT
BRANCH   1  13
ATOM     10  C   UNL     1       1.089   9.513  19.375  0.00  0.00    +0.000 A 
ATOM     11  C   UNL     1       1.540   9.302  18.068  0.00  0.00    +0.000 A 
ATOM     12  C   UNL     1       2.153   8.104  17.705  0.00  0.00    +0.000 A 
ATOM     13  C   UNL     1       2.439   7.129  18.657  0.00  0.00    +0.000 A 
ATOM     14  C   UNL     1       2.054   7.374  19.984  0.00  0.00    +0.000 A 
ATOM     15  C   UNL     1       1.373   8.547  20.353  0.00  0.00    +0.000 A 
BRANCH  10  17
ATOM     16  C   UNL     1      -0.903  10.773  19.145  0.00  0.00    +0.000 C 
ATOM     17  O   UNL     1       0.403  10.647  19.709  0.00  0.00    +0.000 OA
ENDBRANCH  10  17
BRANCH  15  18
ATOM     18  O   UNL     1       1.054   8.555  21.687  0.00  0.00    +0.000 OA
ATOM     19  C   UNL     1      -0.311   8.506  22.067  0.00  0.00    +0.000 C 
ENDBRANCH  15  18
ENDBRANCH   1  13
BRANCH   8  20
ATOM     20  O   UNL     1       0.793   4.569  20.069  0.00  0.00    +0.000 OA
ATOM     21  H   UNL     1       1.028   5.491  19.859  0.00  0.00    +0.000 HD
ENDBRANCH   8  20
TORSDOF 4
ENDMDL
MODEL 5
REMARK VINA RESULT:      -6.3      2.475      3.179
REMARK  Name = 
REMARK  6 active torsions:
REMARK  status: ('A' for Active; 'I' for Inactive)
REMARK    1  A    between atoms: C_1  and  O_2
REMARK    2  A    between atoms: O_2  and  C_3
REMARK    3  A    between atoms: C_6  and  C_7
REMARK    4  A    between atoms: C_14  and  O_15
REMARK    5  A    between atoms: C_18  and  O_19
REMARK    6  A    between atoms: O_19  and  C_20
REMARK                            x       y       z     vdW  Elec       q    Type
REMARK                         _______ _______ _______ _____ _____    ______ ____
ROOT
ATOM      1  C   UNL     1       4.019   4.123  18.120  0.00  0.00    +0.000 A 
ATOM      2  C   UNL     1       4.037   2.885  17.494  0.00  0.00    +0.000 A 
ATOM      3  S   UNL     1       2.771   1.861  18.002  0.00  0.00    +0.000 S 
ATOM      4  C   UNL     1       2.188   3.032  19.086  0.00  0.00    +0.000 A 
ATOM      5  N   UNL     1       1.114   2.759  19.853  0.00  0.00    +0.000 NA
ATOM      6  C   UNL     1       0.781   3.779  20.648  0.00  0.00    +0.000 A 
ATOM      7  N   UNL     1       1.377   4.974  20.741  0.00  0.00    +0.000 NA
ATOM      8  C   UNL     1       2.431   5.185  19.942  0.00  0.00    +0.000 A 
ATOM      9  C   UNL     1       2.920   4.212  19.066  0.00  0.00    +0.000 A 
ENDROOT
BRANCH   1  13
ATOM     10  C   UNL     1       7.012   7.082  17.242  0.00  0.00    +0.000 A 
ATOM     11  C   UNL     1       5.827   7.008  16.500  0.00  0.00    +0.000 A 
ATOM     12  C   UNL     1       4.840   6.076  16.818  0.00  0.00    +0.000 A 
ATOM     13  C   UNL     1       5.050   5.119  17.807  0.00  0.00    +0.000 A 
ATOM     14  C   UNL     1       6.271   5.147  18.498  0.00  0.00    +0.000 A 
ATOM     15  C   UNL     1       7.249   6.123  18.238  0.00  0.00    +0.000 A 
BRANCH  10  17
ATOM     16  C   UNL     1       7.980   9.131  17.931  0.00  0.00    +0.000 C 
ATOM     17  O   UNL     1       7.938   8.057  16.992  0.00  0.00    +0.000 OA
ENDBRANCH  10  17
BRANCH  15  18
ATOM     18  O   UNL     1       8.337   5.989  19.061  0.00  0.00    +0.000 OA
ATOM     19  C   UNL     1       8.174   5.352  20.317  0.00  0.00    +0.000 C 
ENDBRANCH  15  18
ENDBRANCH   1  13
BRANCH   8  20
ATOM     20  O   UNL     1       2.967   6.431  20.086  0.00  0.00    +0.000 OA
ATOM     21  H   UNL     1       2.852   6.566  21.043  0.00  0.00    +0.000 HD
ENDBRANCH   8  20
TORSDOF 4
ENDMDL
MODEL 6
REMARK VINA RESULT:      -6.3      3.366      4.954
REMARK  Name = 
REMARK  6 active torsions:
REMARK  status: ('A' for Active; 'I' for Inactive)
REMARK    1  A    between atoms: C_1  and  O_2
REMARK    2  A    between atoms: O_2  and  C_3
REMARK    3  A    between atoms: C_6  and  C_7
REMARK    4  A    between atoms: C_14  and  O_15
REMARK    5  A    between atoms: C_18  and  O_19
REMARK    6  A    between atoms: O_19  and  C_20
REMARK                            x       y       z     vdW  Elec       q    Type
REMARK                         _______ _______ _______ _____ _____    ______ ____
ROOT
ATOM      1  C   UNL     1       2.125   8.255  18.474  0.00  0.00    +0.000 A 
ATOM      2  C   UNL     1       1.919   9.331  17.623  0.00  0.00    +0.000 A 
ATOM      3  S   UNL     1       1.060  10.609  18.357  0.00  0.00    +0.000 S 
ATOM      4  C   UNL     1       0.921   9.747  19.815  0.00  0.00    +0.000 A 
ATOM      5  N   UNL     1       0.262  10.294  20.855  0.00  0.00    +0.000 NA
ATOM      6  C   UNL     1       0.242   9.494  21.925  0.00  0.00    +0.000 A 
ATOM      7  N   UNL     1       0.787   8.278  22.048  0.00  0.00    +0.000 NA
ATOM      8  C   UNL     1       1.437   7.798  20.981  0.00  0.00    +0.000 A 
ATOM      9  C   UNL     1       1.534   8.502  19.777  0.00  0.00    +0.000 A 
ENDROOT
BRANCH   1  13
ATOM     10  C   UNL     1       4.240   4.764  17.122  0.00  0.00    +0.000 A 
ATOM     11  C   UNL     1       4.775   6.045  16.952  0.00  0.00    +0.000 A 
ATOM     12  C   UNL     1       4.107   7.170  17.433  0.00  0.00    +0.000 A 
ATOM     13  C   UNL     1       2.837   7.065  17.993  0.00  0.00    +0.000 A 
ATOM     14  C   UNL     1       2.268   5.786  18.093  0.00  0.00    +0.000 A 
ATOM     15  C   UNL     1       2.958   4.633  17.677  0.00  0.00    +0.000 A 
BRANCH  10  17
ATOM     16  C   UNL     1       5.921   3.858  15.722  0.00  0.00    +0.000 C 
ATOM     17  O   UNL     1       4.938   3.653  16.736  0.00  0.00    +0.000 OA
ENDBRANCH  10  17
BRANCH  15  18
ATOM     18  O   UNL     1       2.234   3.492  17.912  0.00  0.00    +0.000 OA
ATOM     19  C   UNL     1       1.249   3.501  18.931  0.00  0.00    +0.000 C 
ENDBRANCH  15  18
ENDBRANCH   1  13
BRANCH   8  20
ATOM     20  O   UNL     1       1.978   6.564  21.197  0.00  0.00    +0.000 OA
ATOM     21  H   UNL     1       1.980   6.538  22.171  0.00  0.00    +0.000 HD
ENDBRANCH   8  20
TORSDOF 4
ENDMDL
MODEL 7
REMARK VINA RESULT:      -6.3      4.026      6.440
REMARK  Name = 
REMARK  6 active torsions:
REMARK  status: ('A' for Active; 'I' for Inactive)
REMARK    1  A    between atoms: C_1  and  O_2
REMARK    2  A    between atoms: O_2  and  C_3
REMARK    3  A    between atoms: C_6  and  C_7
REMARK    4  A    between atoms: C_14  and  O_15
REMARK    5  A    between atoms: C_18  and  O_19
REMARK    6  A    between atoms: O_19  and  C_20
REMARK                            x       y       z     vdW  Elec       q    Type
REMARK                         _______ _______ _______ _____ _____    ______ ____
ROOT
ATOM      1  C   UNL     1       3.125   5.858  17.887  0.00  0.00    +0.000 A 
ATOM      2  C   UNL     1       2.376   4.693  17.975  0.00  0.00    +0.000 A 
ATOM      3  S   UNL     1       3.188   3.327  17.358  0.00  0.00    +0.000 S 
ATOM      4  C   UNL     1       4.544   4.259  16.934  0.00  0.00    +0.000 A 
ATOM      5  N   UNL     1       5.598   3.673  16.333  0.00  0.00    +0.000 NA
ATOM      6  C   UNL     1       6.580   4.539  16.066  0.00  0.00    +0.000 A 
ATOM      7  N   UNL     1       6.610   5.850  16.330  0.00  0.00    +0.000 NA
ATOM      8  C   UNL     1       5.535   6.367  16.939  0.00  0.00    +0.000 A 
ATOM      9  C   UNL     1       4.414   5.601  17.269  0.00  0.00    +0.000 A 
ENDROOT
BRANCH   1  13
ATOM     10  C   UNL     1       1.429   9.563  19.259  0.00  0.00    +0.000 A 
ATOM     11  C   UNL     1       1.914   9.428  17.954  0.00  0.00    +0.000 A 
ATOM     12  C   UNL     1       2.421   8.212  17.499  0.00  0.00    +0.000 A 
ATOM     13  C   UNL     1       2.566   7.129  18.362  0.00  0.00    +0.000 A 
ATOM     14  C   UNL     1       2.149   7.289  19.692  0.00  0.00    +0.000 A 
ATOM     15  C   UNL     1       1.572   8.487  20.149  0.00  0.00    +0.000 A 
BRANCH  10  17
ATOM     16  C   UNL     1      -0.453  10.996  19.146  0.00  0.00    +0.000 C 
ATOM     17  O   UNL     1       0.845  10.727  19.676  0.00  0.00    +0.000 OA
ENDBRANCH  10  17
BRANCH  15  18
ATOM     18  O   UNL     1       1.196   8.405  21.465  0.00  0.00    +0.000 OA
ATOM     19  C   UNL     1      -0.184   8.347  21.784  0.00  0.00    +0.000 C 
ENDBRANCH  15  18
ENDBRANCH   1  13
BRANCH   8  20
ATOM     20  O   UNL     1       5.656   7.703  17.188  0.00  0.00    +0.000 OA
ATOM     21  H   UNL     1       6.625   7.800  17.181  0.00  0.00    +0.000 HD
ENDBRANCH   8  20
TORSDOF 4
ENDMDL
MODEL 8
REMARK VINA RESULT:      -6.2      1.418      1.459
REMARK  Name = 
REMARK  6 active torsions:
REMARK  status: ('A' for Active; 'I' for Inactive)
REMARK    1  A    between atoms: C_1  and  O_2
REMARK    2  A    between atoms: O_2  and  C_3
REMARK    3  A    between atoms: C_6  and  C_7
REMARK    4  A    between atoms: C_14  and  O_15
REMARK    5  A    between atoms: C_18  and  O_19
REMARK    6  A    between atoms: O_19  and  C_20
REMARK                            x       y       z     vdW  Elec       q    Type
REMARK                         _______ _______ _______ _____ _____    ______ ____
ROOT
ATOM      1  C   UNL     1       3.612   5.279  18.522  0.00  0.00    +0.000 A 
ATOM      2  C   UNL     1       3.143   6.492  19.007  0.00  0.00    +0.000 A 
ATOM      3  S   UNL     1       1.878   6.316  20.138  0.00  0.00    +0.000 S 
ATOM      4  C   UNL     1       1.909   4.623  19.987  0.00  0.00    +0.000 A 
ATOM      5  N   UNL     1       1.038   3.873  20.691  0.00  0.00    +0.000 NA
ATOM      6  C   UNL     1       1.190   2.565  20.463  0.00  0.00    +0.000 A 
ATOM      7  N   UNL     1       2.077   1.973  19.654  0.00  0.00    +0.000 NA
ATOM      8  C   UNL     1       2.920   2.775  18.993  0.00  0.00    +0.000 A 
ATOM      9  C   UNL     1       2.880   4.168  19.105  0.00  0.00    +0.000 A 
ENDROOT
BRANCH   1  13
ATOM     10  C   UNL     1       6.788   5.266  15.625  0.00  0.00    +0.000 A 
ATOM     11  C   UNL     1       5.487   5.639  15.271  0.00  0.00    +0.000 A 
ATOM     12  C   UNL     1       4.470   5.686  16.224  0.00  0.00    +0.000 A 
ATOM     13  C   UNL     1       4.691   5.254  17.529  0.00  0.00    +0.000 A 
ATOM     14  C   UNL     1       5.979   4.807  17.863  0.00  0.00    +0.000 A 
ATOM     15  C   UNL     1       7.032   4.819  16.932  0.00  0.00    +0.000 A 
BRANCH  10  17
ATOM     16  C   UNL     1       7.466   4.920  13.382  0.00  0.00    +0.000 C 
ATOM     17  O   UNL     1       7.805   5.311  14.712  0.00  0.00    +0.000 OA
ENDBRANCH  10  17
BRANCH  15  18
ATOM     18  O   UNL     1       8.209   4.386  17.486  0.00  0.00    +0.000 OA
ATOM     19  C   UNL     1       8.512   4.745  18.824  0.00  0.00    +0.000 C 
ENDBRANCH  15  18
ENDBRANCH   1  13
BRANCH   8  20
ATOM     20  O   UNL     1       3.800   2.091  18.206  0.00  0.00    +0.000 OA
ATOM     21  H   UNL     1       4.196   2.824  17.701  0.00  0.00    +0.000 HD
ENDBRANCH   8  20
TORSDOF 4
ENDMDL
MODEL 9
REMARK VINA RESULT:      -6.2      1.940      3.227
REMARK  Name = 
REMARK  6 active torsions:
REMARK  status: ('A' for Active; 'I' for Inactive)
REMARK    1  A    between atoms: C_1  and  O_2
REMARK    2  A    between atoms: O_2  and  C_3
REMARK    3  A    between atoms: C_6  and  C_7
REMARK    4  A    between atoms: C_14  and  O_15
REMARK    5  A    between atoms: C_18  and  O_19
REMARK    6  A    between atoms: O_19  and  C_20
REMARK                            x       y       z     vdW  Elec       q    Type
REMARK                         _______ _______ _______ _____ _____    ______ ____
ROOT
ATOM      1  C   UNL     1       4.239   3.593  18.497  0.00  0.00    +0.000 A 
ATOM      2  C   UNL     1       4.319   2.303  17.993  0.00  0.00    +0.000 A 
ATOM      3  S   UNL     1       3.133   1.259  18.636  0.00  0.00    +0.000 S 
ATOM      4  C   UNL     1       2.505   2.494  19.620  0.00  0.00    +0.000 A 
ATOM      5  N   UNL     1       1.472   2.233  20.445  0.00  0.00    +0.000 NA
ATOM      6  C   UNL     1       1.096   3.304  21.148  0.00  0.00    +0.000 A 
ATOM      7  N   UNL     1       1.617   4.536  21.106  0.00  0.00    +0.000 NA
ATOM      8  C   UNL     1       2.635   4.731  20.258  0.00  0.00    +0.000 A 
ATOM      9  C   UNL     1       3.161   3.708  19.464  0.00  0.00    +0.000 A 
ENDROOT
BRANCH   1  13
ATOM     10  C   UNL     1       7.091   6.541  17.207  0.00  0.00    +0.000 A 
ATOM     11  C   UNL     1       6.848   6.315  18.566  0.00  0.00    +0.000 A 
ATOM     12  C   UNL     1       5.956   5.327  18.980  0.00  0.00    +0.000 A 
ATOM     13  C   UNL     1       5.196   4.614  18.056  0.00  0.00    +0.000 A 
ATOM     14  C   UNL     1       5.386   4.896  16.695  0.00  0.00    +0.000 A 
ATOM     15  C   UNL     1       6.331   5.841  16.258  0.00  0.00    +0.000 A 
BRANCH  10  17
ATOM     16  C   UNL     1       8.160   8.616  17.606  0.00  0.00    +0.000 C 
ATOM     17  O   UNL     1       8.035   7.444  16.802  0.00  0.00    +0.000 OA
ENDBRANCH  10  17
BRANCH  15  18
ATOM     18  O   UNL     1       6.381   5.919  14.890  0.00  0.00    +0.000 OA
ATOM     19  C   UNL     1       6.663   4.747  14.144  0.00  0.00    +0.000 C 
ENDBRANCH  15  18
ENDBRANCH   1  13
BRANCH   8  20
ATOM     20  O   UNL     1       3.094   6.016  20.264  0.00  0.00    +0.000 OA
ATOM     21  H   UNL     1       2.315   6.486  19.917  0.00  0.00    +0.000 HD
ENDBRANCH   8  20
TORSDOF 4
ENDMDL
