MODEL 1
REMARK VINA RESULT:      -8.2      0.000      0.000
REMARK  Name = 
REMARK  5 active torsions:
REMARK  status: ('A' for Active; 'I' for Inactive)
REMARK    1  A    between atoms: C_8  and  C_9
REMARK    2  A    between atoms: C_13  and  O_14
REMARK    3  A    between atoms: O_14  and  C_15
REMARK    4  A    between atoms: C_15  and  C_16
REMARK    5  A    between atoms: C_19  and  C_20
REMARK                            x       y       z     vdW  Elec       q    Type
REMARK                         _______ _______ _______ _____ _____    ______ ____
ROOT
ATOM      1  C   UNL     1       3.781   4.073  17.110  0.00  0.00    +0.000 C 
ATOM      2  O   UNL     1       2.651   3.595  16.954  0.00  0.00    +0.000 OA
ATOM      3  N   UNL     1       4.205   4.534  18.344  0.00  0.00    +0.000 N 
ATOM      4  C   UNL     1       3.384   4.426  19.556  0.00  0.00    +0.000 C 
ATOM      5  C   UNL     1       3.465   5.949  19.704  0.00  0.00    +0.000 C 
ATOM      6  C   UNL     1       4.533   5.941  18.599  0.00  0.00    +0.000 C 
ENDROOT
BRANCH   1  14
ATOM      7  O   UNL     1       8.560   6.211  12.563  0.00  0.00    +0.000 OA
ATOM      8  C   UNL     1       7.827   5.425  13.141  0.00  0.00    +0.000 C 
ATOM      9  N   UNL     1       7.618   5.381  14.492  0.00  0.00    +0.000 N 
ATOM     10  C   UNL     1       6.482   4.543  14.804  0.00  0.00    +0.000 C 
ATOM     11  C   UNL     1       6.400   3.704  13.537  0.00  0.00    +0.000 C 
ATOM     12  O   UNL     1       7.055   4.483  12.527  0.00  0.00    +0.000 OA
ATOM     13  C   UNL     1       5.212   5.333  15.242  0.00  0.00    +0.000 C 
ATOM     14  C   UNL     1       4.819   4.030  15.995  0.00  0.00    +0.000 C 
ATOM     15  C   UNL     1       6.361   3.836  16.181  0.00  0.00    +0.000 C 
ATOM     16  H   UNL     1       8.031   6.120  15.043  0.00  0.00    +0.000 HD
ENDBRANCH   1  14
BRANCH   5  17
ATOM     17  O   UNL     1       2.253   6.705  19.435  0.00  0.00    +0.000 OA
BRANCH  17  18
ATOM     18  C   UNL     1       1.861   7.606  20.478  0.00  0.00    +0.000 C 
BRANCH  18  19
ATOM     19  C   UNL     1       1.118   8.811  19.951  0.00  0.00    +0.000 A 
ATOM     20  C   UNL     1       1.317   9.245  18.628  0.00  0.00    +0.000 A 
ATOM     21  C   UNL     1       0.586  10.315  18.103  0.00  0.00    +0.000 A 
ATOM     22  C   UNL     1      -0.369  10.979  18.882  0.00  0.00    +0.000 A 
ATOM     23  C   UNL     1      -0.583  10.544  20.199  0.00  0.00    +0.000 A 
ATOM     24  C   UNL     1       0.145   9.468  20.721  0.00  0.00    +0.000 A 
ATOM     25 CL   UNL     1      -0.227   8.973  22.336  0.00  0.00    +0.000 Cl
BRANCH  22  26
ATOM     26  C   UNL     1      -1.172  12.129  18.330  0.00  0.00    +0.000 C 
ATOM     27  F   UNL     1      -2.097  12.617  19.202  0.00  0.00    +0.000 F 
ATOM     28  F   UNL     1      -0.390  13.188  17.983  0.00  0.00    +0.000 F 
ATOM     29  F   UNL     1      -1.860  11.789  17.206  0.00  0.00    +0.000 F 
ENDBRANCH  22  26
ENDBRANCH  18  19
ENDBRANCH  17  18
ENDBRANCH   5  17
TORSDOF 5
ENDMDL
MODEL 2
REMARK VINA RESULT:      -8.1      1.088      1.597
REMARK  Name = 
REMARK  5 active torsions:
REMARK  status: ('A' for Active; 'I' for Inactive)
REMARK    1  A    between atoms: C_8  and  C_9
REMARK    2  A    between atoms: C_13  and  O_14
REMARK    3  A    between atoms: O_14  and  C_15
REMARK    4  A    between atoms: C_15  and  C_16
REMARK    5  A    between atoms: C_19  and  C_20
REMARK                            x       y       z     vdW  Elec       q    Type
REMARK                         _______ _______ _______ _____ _____    ______ ____
ROOT
ATOM      1  C   UNL     1       3.420   4.018  17.266  0.00  0.00    +0.000 C 
ATOM      2  O   UNL     1       2.264   3.653  17.021  0.00  0.00    +0.000 OA
ATOM      3  N   UNL     1       3.814   4.348  18.551  0.00  0.00    +0.000 N 
ATOM      4  C   UNL     1       2.924   4.223  19.710  0.00  0.00    +0.000 C 
ATOM      5  C   UNL     1       3.124   5.718  19.981  0.00  0.00    +0.000 C 
ATOM      6  C   UNL     1       4.245   5.697  18.930  0.00  0.00    +0.000 C 
ENDROOT
BRANCH   1  14
ATOM      7  O   UNL     1       8.624   6.047  13.156  0.00  0.00    +0.000 OA
ATOM      8  C   UNL     1       7.788   5.293  13.626  0.00  0.00    +0.000 C 
ATOM      9  N   UNL     1       7.502   5.155  14.957  0.00  0.00    +0.000 N 
ATOM     10  C   UNL     1       6.276   4.410  15.139  0.00  0.00    +0.000 C 
ATOM     11  C   UNL     1       6.185   3.695  13.799  0.00  0.00    +0.000 C 
ATOM     12  O   UNL     1       6.965   4.487  12.895  0.00  0.00    +0.000 OA
ATOM     13  C   UNL     1       5.064   5.283  15.587  0.00  0.00    +0.000 C 
ATOM     14  C   UNL     1       4.509   3.966  16.200  0.00  0.00    +0.000 C 
ATOM     15  C   UNL     1       6.012   3.605  16.439  0.00  0.00    +0.000 C 
ATOM     16  H   UNL     1       7.953   5.799  15.591  0.00  0.00    +0.000 HD
ENDBRANCH   1  14
BRANCH   5  17
ATOM     17  O   UNL     1       1.996   6.595  19.716  0.00  0.00    +0.000 OA
BRANCH  17  18
ATOM     18  C   UNL     1       1.922   7.753  20.556  0.00  0.00    +0.000 C 
BRANCH  18  19
ATOM     19  C   UNL     1       1.054   8.840  19.966  0.00  0.00    +0.000 A 
ATOM     20  C   UNL     1       0.099   9.496  20.764  0.00  0.00    +0.000 A 
ATOM     21  C   UNL     1      -0.663  10.552  20.253  0.00  0.00    +0.000 A 
ATOM     22  C   UNL     1      -0.489  10.986  18.933  0.00  0.00    +0.000 A 
ATOM     23  C   UNL     1       0.471  10.345  18.136  0.00  0.00    +0.000 A 
ATOM     24  C   UNL     1       1.237   9.293  18.650  0.00  0.00    +0.000 A 
ATOM     25 CL   UNL     1       2.431   8.602  17.607  0.00  0.00    +0.000 Cl
BRANCH  22  26
ATOM     26  C   UNL     1      -1.296  12.127  18.369  0.00  0.00    +0.000 C 
ATOM     27  F   UNL     1      -1.881  11.842  17.173  0.00  0.00    +0.000 F 
ATOM     28  F   UNL     1      -2.307  12.508  19.199  0.00  0.00    +0.000 F 
ATOM     29  F   UNL     1      -0.543  13.242  18.162  0.00  0.00    +0.000 F 
ENDBRANCH  22  26
ENDBRANCH  18  19
ENDBRANCH  17  18
ENDBRANCH   5  17
TORSDOF 5
ENDMDL
MODEL 3
REMARK VINA RESULT:      -7.8      1.847      2.433
REMARK  Name = 
REMARK  5 active torsions:
REMARK  status: ('A' for Active; 'I' for Inactive)
REMARK    1  A    between atoms: C_8  and  C_9
REMARK    2  A    between atoms: C_13  and  O_14
REMARK    3  A    between atoms: O_14  and  C_15
REMARK    4  A    between atoms: C_15  and  C_16
REMARK    5  A    between atoms: C_19  and  C_20
REMARK                            x       y       z     vdW  Elec       q    Type
REMARK                         _______ _______ _______ _____ _____    ______ ____
ROOT
ATOM      1  C   UNL     1       3.328   3.832  17.355  0.00  0.00    +0.000 C 
ATOM      2  O   UNL     1       2.184   3.413  17.145  0.00  0.00    +0.000 OA
ATOM      3  N   UNL     1       3.743   4.192  18.626  0.00  0.00    +0.000 N 
ATOM      4  C   UNL     1       2.891   4.038  19.810  0.00  0.00    +0.000 C 
ATOM      5  C   UNL     1       3.030   5.543  20.062  0.00  0.00    +0.000 C 
ATOM      6  C   UNL     1       4.121   5.563  18.981  0.00  0.00    +0.000 C 
ENDROOT
BRANCH   1  14
ATOM      7  O   UNL     1       8.543   5.946  13.302  0.00  0.00    +0.000 OA
ATOM      8  C   UNL     1       7.678   5.198  13.726  0.00  0.00    +0.000 C 
ATOM      9  N   UNL     1       7.415   4.956  15.047  0.00  0.00    +0.000 N 
ATOM     10  C   UNL     1       6.154   4.263  15.195  0.00  0.00    +0.000 C 
ATOM     11  C   UNL     1       5.994   3.677  13.800  0.00  0.00    +0.000 C 
ATOM     12  O   UNL     1       6.797   4.505  12.949  0.00  0.00    +0.000 OA
ATOM     13  C   UNL     1       5.002   5.155  15.751  0.00  0.00    +0.000 C 
ATOM     14  C   UNL     1       4.389   3.819  16.260  0.00  0.00    +0.000 C 
ATOM     15  C   UNL     1       5.876   3.360  16.426  0.00  0.00    +0.000 C 
ATOM     16  H   UNL     1       7.914   5.516  15.723  0.00  0.00    +0.000 HD
ENDBRANCH   1  14
BRANCH   5  17
ATOM     17  O   UNL     1       1.857   6.366  19.821  0.00  0.00    +0.000 OA
BRANCH  17  18
ATOM     18  C   UNL     1       2.132   7.746  19.552  0.00  0.00    +0.000 C 
BRANCH  18  19
ATOM     19  C   UNL     1       1.197   8.676  20.288  0.00  0.00    +0.000 A 
ATOM     20  C   UNL     1       0.692   8.321  21.552  0.00  0.00    +0.000 A 
ATOM     21  C   UNL     1      -0.117   9.201  22.278  0.00  0.00    +0.000 A 
ATOM     22  C   UNL     1      -0.441  10.462  21.765  0.00  0.00    +0.000 A 
ATOM     23  C   UNL     1       0.069  10.829  20.510  0.00  0.00    +0.000 A 
ATOM     24  C   UNL     1       0.885   9.950  19.788  0.00  0.00    +0.000 A 
ATOM     25 CL   UNL     1       1.508  10.514  18.277  0.00  0.00    +0.000 Cl
BRANCH  22  26
ATOM     26  C   UNL     1      -1.306  11.426  22.537  0.00  0.00    +0.000 C 
ATOM     27  F   UNL     1      -0.625  12.500  23.023  0.00  0.00    +0.000 F 
ATOM     28  F   UNL     1      -2.318  11.935  21.781  0.00  0.00    +0.000 F 
ATOM     29  F   UNL     1      -1.901  10.841  23.613  0.00  0.00    +0.000 F 
ENDBRANCH  22  26
ENDBRANCH  18  19
ENDBRANCH  17  18
ENDBRANCH   5  17
TORSDOF 5
ENDMDL
MODEL 4
REMARK VINA RESULT:      -7.7      2.145      2.848
REMARK  Name = 
REMARK  5 active torsions:
REMARK  status: ('A' for Active; 'I' for Inactive)
REMARK    1  A    between atoms: C_8  and  C_9
REMARK    2  A    between atoms: C_13  and  O_14
REMARK    3  A    between atoms: O_14  and  C_15
REMARK    4  A    between atoms: C_15  and  C_16
REMARK    5  A    between atoms: C_19  and  C_20
REMARK                            x       y       z     vdW  Elec       q    Type
REMARK                         _______ _______ _______ _____ _____    ______ ____
ROOT
ATOM      1  C   UNL     1       2.374   4.094  17.985  0.00  0.00    +0.000 C 
ATOM      2  O   UNL     1       1.212   3.986  17.578  0.00  0.00    +0.000 OA
ATOM      3  N   UNL     1       2.658   4.206  19.335  0.00  0.00    +0.000 N 
ATOM      4  C   UNL     1       1.621   4.134  20.371  0.00  0.00    +0.000 C 
ATOM      5  C   UNL     1       2.050   5.526  20.847  0.00  0.00    +0.000 C 
ATOM      6  C   UNL     1       3.271   5.400  19.924  0.00  0.00    +0.000 C 
ENDROOT
BRANCH   1  14
ATOM      7  O   UNL     1       8.113   5.672  14.425  0.00  0.00    +0.000 OA
ATOM      8  C   UNL     1       7.179   4.988  14.812  0.00  0.00    +0.000 C 
ATOM      9  N   UNL     1       6.748   4.893  16.107  0.00  0.00    +0.000 N 
ATOM     10  C   UNL     1       5.457   4.243  16.166  0.00  0.00    +0.000 C 
ATOM     11  C   UNL     1       5.453   3.513  14.831  0.00  0.00    +0.000 C 
ATOM     12  O   UNL     1       6.380   4.232  14.006  0.00  0.00    +0.000 OA
ATOM     13  C   UNL     1       4.273   5.209  16.476  0.00  0.00    +0.000 C 
ATOM     14  C   UNL     1       3.562   3.946  17.040  0.00  0.00    +0.000 C 
ATOM     15  C   UNL     1       5.001   3.481  17.439  0.00  0.00    +0.000 C 
ATOM     16  H   UNL     1       7.176   5.514  16.778  0.00  0.00    +0.000 HD
ENDBRANCH   1  14
BRANCH   5  17
ATOM     17  O   UNL     1       1.139   6.626  20.580  0.00  0.00    +0.000 OA
BRANCH  17  18
ATOM     18  C   UNL     1       1.730   7.930  20.651  0.00  0.00    +0.000 C 
BRANCH  18  19
ATOM     19  C   UNL     1       0.775   8.968  21.190  0.00  0.00    +0.000 A 
ATOM     20  C   UNL     1       0.290   8.871  22.507  0.00  0.00    +0.000 A 
ATOM     21  C   UNL     1      -0.539   9.862  23.044  0.00  0.00    +0.000 A 
ATOM     22  C   UNL     1      -0.902  10.980  22.283  0.00  0.00    +0.000 A 
ATOM     23  C   UNL     1      -0.411  11.090  20.974  0.00  0.00    +0.000 A 
ATOM     24  C   UNL     1       0.423  10.101  20.439  0.00  0.00    +0.000 A 
ATOM     25 CL   UNL     1       1.019  10.353  18.835  0.00  0.00    +0.000 Cl
BRANCH  22  26
ATOM     26  C   UNL     1      -1.787  12.061  22.849  0.00  0.00    +0.000 C 
ATOM     27  F   UNL     1      -1.105  13.029  23.520  0.00  0.00    +0.000 F 
ATOM     28  F   UNL     1      -2.500  12.706  21.884  0.00  0.00    +0.000 F 
ATOM     29  F   UNL     1      -2.705  11.572  23.728  0.00  0.00    +0.000 F 
ENDBRANCH  22  26
ENDBRANCH  18  19
ENDBRANCH  17  18
ENDBRANCH   5  17
TORSDOF 5
ENDMDL
MODEL 5
REMARK VINA RESULT:      -7.6      1.216      1.561
REMARK  Name = 
REMARK  5 active torsions:
REMARK  status: ('A' for Active; 'I' for Inactive)
REMARK    1  A    between atoms: C_8  and  C_9
REMARK    2  A    between atoms: C_13  and  O_14
REMARK    3  A    between atoms: O_14  and  C_15
REMARK    4  A    between atoms: C_15  and  C_16
REMARK    5  A    between atoms: C_19  and  C_20
REMARK                            x       y       z     vdW  Elec       q    Type
REMARK                         _______ _______ _______ _____ _____    ______ ____
ROOT
ATOM      1  C   UNL     1       2.395   4.153  17.999  0.00  0.00    +0.000 C 
ATOM      2  O   UNL     1       1.236   4.068  17.575  0.00  0.00    +0.000 OA
ATOM      3  N   UNL     1       2.662   4.263  19.352  0.00  0.00    +0.000 N 
ATOM      4  C   UNL     1       1.610   4.217  20.374  0.00  0.00    +0.000 C 
ATOM      5  C   UNL     1       2.061   5.602  20.851  0.00  0.00    +0.000 C 
ATOM      6  C   UNL     1       3.293   5.447  19.946  0.00  0.00    +0.000 C 
ENDROOT
BRANCH   1  14
ATOM      7  O   UNL     1       8.087   5.662  14.336  0.00  0.00    +0.000 OA
ATOM      8  C   UNL     1       7.178   4.975  14.774  0.00  0.00    +0.000 C 
ATOM      9  N   UNL     1       6.744   4.968  16.071  0.00  0.00    +0.000 N 
ATOM     10  C   UNL     1       5.479   4.275  16.180  0.00  0.00    +0.000 C 
ATOM     11  C   UNL     1       5.510   3.442  14.907  0.00  0.00    +0.000 C 
ATOM     12  O   UNL     1       6.413   4.127  14.029  0.00  0.00    +0.000 OA
ATOM     13  C   UNL     1       4.258   5.216  16.409  0.00  0.00    +0.000 C 
ATOM     14  C   UNL     1       3.592   3.976  17.071  0.00  0.00    +0.000 C 
ATOM     15  C   UNL     1       5.046   3.600  17.509  0.00  0.00    +0.000 C 
ATOM     16  H   UNL     1       7.145   5.656  16.692  0.00  0.00    +0.000 HD
ENDBRANCH   1  14
BRANCH   5  17
ATOM     17  O   UNL     1       1.178   6.721  20.567  0.00  0.00    +0.000 OA
BRANCH  17  18
ATOM     18  C   UNL     1       1.535   7.949  21.212  0.00  0.00    +0.000 C 
BRANCH  18  19
ATOM     19  C   UNL     1       0.853   9.146  20.591  0.00  0.00    +0.000 A 
ATOM     20  C   UNL     1       1.044   9.445  19.230  0.00  0.00    +0.000 A 
ATOM     21  C   UNL     1       0.365  10.507  18.624  0.00  0.00    +0.000 A 
ATOM     22  C   UNL     1      -0.528  11.296  19.358  0.00  0.00    +0.000 A 
ATOM     23  C   UNL     1      -0.734  10.996  20.713  0.00  0.00    +0.000 A 
ATOM     24  C   UNL     1      -0.058   9.929  21.317  0.00  0.00    +0.000 A 
ATOM     25 CL   UNL     1      -0.418   9.606  22.977  0.00  0.00    +0.000 Cl
BRANCH  22  26
ATOM     26  C   UNL     1      -1.275  12.440  18.719  0.00  0.00    +0.000 C 
ATOM     27  F   UNL     1      -0.498  13.532  18.482  0.00  0.00    +0.000 F 
ATOM     28  F   UNL     1      -1.816  12.097  17.517  0.00  0.00    +0.000 F 
ATOM     29  F   UNL     1      -2.311  12.875  19.485  0.00  0.00    +0.000 F 
ENDBRANCH  22  26
ENDBRANCH  18  19
ENDBRANCH  17  18
ENDBRANCH   5  17
TORSDOF 5
ENDMDL
MODEL 6
REMARK VINA RESULT:      -7.5      6.163      9.690
REMARK  Name = 
REMARK  5 active torsions:
REMARK  status: ('A' for Active; 'I' for Inactive)
REMARK    1  A    between atoms: C_8  and  C_9
REMARK    2  A    between atoms: C_13  and  O_14
REMARK    3  A    between atoms: O_14  and  C_15
REMARK    4  A    between atoms: C_15  and  C_16
REMARK    5  A    between atoms: C_19  and  C_20
REMARK                            x       y       z     vdW  Elec       q    Type
REMARK                         _______ _______ _______ _____ _____    ______ ____
ROOT
ATOM      1  C   UNL     1       1.349  11.990  20.192  0.00  0.00    +0.000 C 
ATOM      2  O   UNL     1       1.214  11.616  21.363  0.00  0.00    +0.000 OA
ATOM      3  N   UNL     1       0.942  11.198  19.131  0.00  0.00    +0.000 N 
ATOM      4  C   UNL     1       0.268   9.909  19.317  0.00  0.00    +0.000 C 
ATOM      5  C   UNL     1       1.392   9.245  18.515  0.00  0.00    +0.000 C 
ATOM      6  C   UNL     1       1.876  10.654  18.140  0.00  0.00    +0.000 C 
ENDROOT
BRANCH   1  14
ATOM      7  O   UNL     1       1.786  18.135  17.009  0.00  0.00    +0.000 OA
ATOM      8  C   UNL     1       2.058  17.264  17.819  0.00  0.00    +0.000 C 
ATOM      9  N   UNL     1       1.148  16.507  18.505  0.00  0.00    +0.000 N 
ATOM     10  C   UNL     1       1.800  15.386  19.146  0.00  0.00    +0.000 C 
ATOM     11  C   UNL     1       3.236  15.887  19.185  0.00  0.00    +0.000 C 
ATOM     12  O   UNL     1       3.322  16.870  18.145  0.00  0.00    +0.000 OA
ATOM     13  C   UNL     1       1.522  14.014  18.460  0.00  0.00    +0.000 C 
ATOM     14  C   UNL     1       1.815  13.403  19.860  0.00  0.00    +0.000 C 
ATOM     15  C   UNL     1       1.199  14.729  20.417  0.00  0.00    +0.000 C 
ATOM     16  H   UNL     1       0.178  16.614  18.248  0.00  0.00    +0.000 HD
ENDBRANCH   1  14
BRANCH   5  17
ATOM     17  O   UNL     1       2.325   8.408  19.251  0.00  0.00    +0.000 OA
BRANCH  17  18
ATOM     18  C   UNL     1       2.102   6.998  19.121  0.00  0.00    +0.000 C 
BRANCH  18  19
ATOM     19  C   UNL     1       3.019   6.359  18.104  0.00  0.00    +0.000 A 
ATOM     20  C   UNL     1       4.055   7.106  17.515  0.00  0.00    +0.000 A 
ATOM     21  C   UNL     1       4.956   6.511  16.626  0.00  0.00    +0.000 A 
ATOM     22  C   UNL     1       4.851   5.153  16.304  0.00  0.00    +0.000 A 
ATOM     23  C   UNL     1       3.828   4.398  16.898  0.00  0.00    +0.000 A 
ATOM     24  C   UNL     1       2.931   4.994  17.793  0.00  0.00    +0.000 A 
ATOM     25 CL   UNL     1       1.738   3.969  18.512  0.00  0.00    +0.000 Cl
BRANCH  22  26
ATOM     26  C   UNL     1       5.818   4.494  15.354  0.00  0.00    +0.000 C 
ATOM     27  F   UNL     1       7.042   5.089  15.322  0.00  0.00    +0.000 F 
ATOM     28  F   UNL     1       6.045   3.188  15.668  0.00  0.00    +0.000 F 
ATOM     29  F   UNL     1       5.367   4.496  14.070  0.00  0.00    +0.000 F 
ENDBRANCH  22  26
ENDBRANCH  18  19
ENDBRANCH  17  18
ENDBRANCH   5  17
TORSDOF 5
ENDMDL
MODEL 7
REMARK VINA RESULT:      -7.4      1.563      2.081
REMARK  Name = 
REMARK  5 active torsions:
REMARK  status: ('A' for Active; 'I' for Inactive)
REMARK    1  A    between atoms: C_8  and  C_9
REMARK    2  A    between atoms: C_13  and  O_14
REMARK    3  A    between atoms: O_14  and  C_15
REMARK    4  A    between atoms: C_15  and  C_16
REMARK    5  A    between atoms: C_19  and  C_20
REMARK                            x       y       z     vdW  Elec       q    Type
REMARK                         _______ _______ _______ _____ _____    ______ ____
ROOT
ATOM      1  C   UNL     1       2.300   4.070  17.880  0.00  0.00    +0.000 C 
ATOM      2  O   UNL     1       1.137   4.094  17.461  0.00  0.00    +0.000 OA
ATOM      3  N   UNL     1       2.577   4.015  19.235  0.00  0.00    +0.000 N 
ATOM      4  C   UNL     1       1.527   3.911  20.255  0.00  0.00    +0.000 C 
ATOM      5  C   UNL     1       2.053   5.208  20.879  0.00  0.00    +0.000 C 
ATOM      6  C   UNL     1       3.272   5.091  19.951  0.00  0.00    +0.000 C 
ENDROOT
BRANCH   1  14
ATOM      7  O   UNL     1       8.083   5.656  14.397  0.00  0.00    +0.000 OA
ATOM      8  C   UNL     1       7.129   4.981  14.750  0.00  0.00    +0.000 C 
ATOM      9  N   UNL     1       6.695   4.834  16.039  0.00  0.00    +0.000 N 
ATOM     10  C   UNL     1       5.386   4.220  16.067  0.00  0.00    +0.000 C 
ATOM     11  C   UNL     1       5.361   3.559  14.697  0.00  0.00    +0.000 C 
ATOM     12  O   UNL     1       6.308   4.291  13.908  0.00  0.00    +0.000 OA
ATOM     13  C   UNL     1       4.231   5.203  16.427  0.00  0.00    +0.000 C 
ATOM     14  C   UNL     1       3.482   3.935  16.928  0.00  0.00    +0.000 C 
ATOM     15  C   UNL     1       4.907   3.408  17.300  0.00  0.00    +0.000 C 
ATOM     16  H   UNL     1       7.141   5.407  16.741  0.00  0.00    +0.000 HD
ENDBRANCH   1  14
BRANCH   5  17
ATOM     17  O   UNL     1       1.230   6.396  20.729  0.00  0.00    +0.000 OA
BRANCH  17  18
ATOM     18  C   UNL     1       1.958   7.626  20.624  0.00  0.00    +0.000 C 
BRANCH  18  19
ATOM     19  C   UNL     1       1.096   8.767  20.137  0.00  0.00    +0.000 A 
ATOM     20  C   UNL     1       0.183   9.388  21.007  0.00  0.00    +0.000 A 
ATOM     21  C   UNL     1      -0.570  10.491  20.592  0.00  0.00    +0.000 A 
ATOM     22  C   UNL     1      -0.429  11.009  19.299  0.00  0.00    +0.000 A 
ATOM     23  C   UNL     1       0.490  10.403  18.430  0.00  0.00    +0.000 A 
ATOM     24  C   UNL     1       1.248   9.303  18.848  0.00  0.00    +0.000 A 
ATOM     25 CL   UNL     1       2.392   8.658  17.722  0.00  0.00    +0.000 Cl
BRANCH  22  26
ATOM     26  C   UNL     1      -1.227  12.202  18.839  0.00  0.00    +0.000 C 
ATOM     27  F   UNL     1      -1.668  12.100  17.555  0.00  0.00    +0.000 F 
ATOM     28  F   UNL     1      -2.337  12.408  19.600  0.00  0.00    +0.000 F 
ATOM     29  F   UNL     1      -0.512  13.359  18.899  0.00  0.00    +0.000 F 
ENDBRANCH  22  26
ENDBRANCH  18  19
ENDBRANCH  17  18
ENDBRANCH   5  17
TORSDOF 5
ENDMDL
MODEL 8
REMARK VINA RESULT:      -7.4      4.311      6.108
REMARK  Name = 
REMARK  5 active torsions:
REMARK  status: ('A' for Active; 'I' for Inactive)
REMARK    1  A    between atoms: C_8  and  C_9
REMARK    2  A    between atoms: C_13  and  O_14
REMARK    3  A    between atoms: O_14  and  C_15
REMARK    4  A    between atoms: C_15  and  C_16
REMARK    5  A    between atoms: C_19  and  C_20
REMARK                            x       y       z     vdW  Elec       q    Type
REMARK                         _______ _______ _______ _____ _____    ______ ____
ROOT
ATOM      1  C   UNL     1       1.619   7.941  20.101  0.00  0.00    +0.000 C 
ATOM      2  O   UNL     1       0.941   7.869  21.133  0.00  0.00    +0.000 OA
ATOM      3  N   UNL     1       1.719   9.120  19.384  0.00  0.00    +0.000 N 
ATOM      4  C   UNL     1       1.097  10.372  19.826  0.00  0.00    +0.000 C 
ATOM      5  C   UNL     1       0.322  10.414  18.505  0.00  0.00    +0.000 C 
ATOM      6  C   UNL     1       1.215   9.265  18.014  0.00  0.00    +0.000 C 
ENDROOT
BRANCH   1  14
ATOM      7  O   UNL     1       3.683   1.473  18.687  0.00  0.00    +0.000 OA
ATOM      8  C   UNL     1       3.766   2.686  18.782  0.00  0.00    +0.000 C 
ATOM      9  N   UNL     1       2.801   3.579  18.404  0.00  0.00    +0.000 N 
ATOM     10  C   UNL     1       3.097   4.897  18.923  0.00  0.00    +0.000 C 
ATOM     11  C   UNL     1       4.590   4.763  19.182  0.00  0.00    +0.000 C 
ATOM     12  O   UNL     1       4.824   3.356  19.322  0.00  0.00    +0.000 OA
ATOM     13  C   UNL     1       2.184   5.332  20.109  0.00  0.00    +0.000 C 
ATOM     14  C   UNL     1       2.507   6.784  19.656  0.00  0.00    +0.000 C 
ATOM     15  C   UNL     1       2.569   6.174  18.216  0.00  0.00    +0.000 C 
ATOM     16  H   UNL     1       1.912   3.198  18.114  0.00  0.00    +0.000 HD
ENDBRANCH   1  14
BRANCH   5  17
ATOM     17  O   UNL     1      -1.106  10.152  18.565  0.00  0.00    +0.000 OA
BRANCH  17  18
ATOM     18  C   UNL     1      -1.837  10.518  17.389  0.00  0.00    +0.000 C 
BRANCH  18  19
ATOM     19  C   UNL     1      -3.197  11.093  17.711  0.00  0.00    +0.000 A 
ATOM     20  C   UNL     1      -3.452  11.647  18.978  0.00  0.00    +0.000 A 
ATOM     21  C   UNL     1      -4.682  12.247  19.267  0.00  0.00    +0.000 A 
ATOM     22  C   UNL     1      -5.690  12.314  18.299  0.00  0.00    +0.000 A 
ATOM     23  C   UNL     1      -5.439  11.775  17.028  0.00  0.00    +0.000 A 
ATOM     24  C   UNL     1      -4.205  11.181  16.737  0.00  0.00    +0.000 A 
ATOM     25 CL   UNL     1      -3.972  10.593  15.128  0.00  0.00    +0.000 Cl
BRANCH  22  26
ATOM     26  C   UNL     1      -7.019  12.964  18.592  0.00  0.00    +0.000 C 
ATOM     27  F   UNL     1      -6.911  14.168  19.217  0.00  0.00    +0.000 F 
ATOM     28  F   UNL     1      -7.744  13.193  17.462  0.00  0.00    +0.000 F 
ATOM     29  F   UNL     1      -7.806  12.194  19.392  0.00  0.00    +0.000 F 
ENDBRANCH  22  26
ENDBRANCH  18  19
ENDBRANCH  17  18
ENDBRANCH   5  17
TORSDOF 5
ENDMDL
MODEL 9
REMARK VINA RESULT:      -7.4      4.335      6.108
REMARK  Name = 
REMARK  5 active torsions:
REMARK  status: ('A' for Active; 'I' for Inactive)
REMARK    1  A    between atoms: C_8  and  C_9
REMARK    2  A    between atoms: C_13  and  O_14
REMARK    3  A    between atoms: O_14  and  C_15
REMARK    4  A    between atoms: C_15  and  C_16
REMARK    5  A    between atoms: C_19  and  C_20
REMARK                            x       y       z     vdW  Elec       q    Type
REMARK                         _______ _______ _______ _____ _____    ______ ____
ROOT
ATOM      1  C   UNL     1       1.509   7.994  20.131  0.00  0.00    +0.000 C 
ATOM      2  O   UNL     1       0.668   7.826  21.022  0.00  0.00    +0.000 OA
ATOM      3  N   UNL     1       1.735   9.242  19.578  0.00  0.00    +0.000 N 
ATOM      4  C   UNL     1       1.055  10.453  20.051  0.00  0.00    +0.000 C 
ATOM      5  C   UNL     1       0.513  10.660  18.633  0.00  0.00    +0.000 C 
ATOM      6  C   UNL     1       1.468   9.550  18.169  0.00  0.00    +0.000 C 
ENDROOT
BRANCH   1  14
ATOM      7  O   UNL     1       3.957   1.597  19.046  0.00  0.00    +0.000 OA
ATOM      8  C   UNL     1       3.955   2.817  19.048  0.00  0.00    +0.000 C 
ATOM      9  N   UNL     1       2.905   3.609  18.674  0.00  0.00    +0.000 N 
ATOM     10  C   UNL     1       3.133   4.980  19.076  0.00  0.00    +0.000 C 
ATOM     11  C   UNL     1       4.646   4.971  19.243  0.00  0.00    +0.000 C 
ATOM     12  O   UNL     1       4.992   3.598  19.467  0.00  0.00    +0.000 OA
ATOM     13  C   UNL     1       2.266   5.439  20.288  0.00  0.00    +0.000 C 
ATOM     14  C   UNL     1       2.451   6.871  19.711  0.00  0.00    +0.000 C 
ATOM     15  C   UNL     1       2.469   6.160  18.318  0.00  0.00    +0.000 C 
ATOM     16  H   UNL     1       2.031   3.146  18.472  0.00  0.00    +0.000 HD
ENDBRANCH   1  14
BRANCH   5  17
ATOM     17  O   UNL     1      -0.907  10.429  18.427  0.00  0.00    +0.000 OA
BRANCH  17  18
ATOM     18  C   UNL     1      -1.607  11.504  17.789  0.00  0.00    +0.000 C 
BRANCH  18  19
ATOM     19  C   UNL     1      -2.996  11.703  18.351  0.00  0.00    +0.000 A 
ATOM     20  C   UNL     1      -3.171  12.275  19.624  0.00  0.00    +0.000 A 
ATOM     21  C   UNL     1      -4.450  12.531  20.129  0.00  0.00    +0.000 A 
ATOM     22  C   UNL     1      -5.589  12.228  19.375  0.00  0.00    +0.000 A 
ATOM     23  C   UNL     1      -5.423  11.669  18.099  0.00  0.00    +0.000 A 
ATOM     24  C   UNL     1      -4.142  11.419  17.592  0.00  0.00    +0.000 A 
ATOM     25 CL   UNL     1      -4.039  10.778  15.989  0.00  0.00    +0.000 Cl
BRANCH  22  26
ATOM     26  C   UNL     1      -6.975  12.505  19.900  0.00  0.00    +0.000 C 
ATOM     27  F   UNL     1      -7.392  11.608  20.836  0.00  0.00    +0.000 F 
ATOM     28  F   UNL     1      -7.073  13.730  20.487  0.00  0.00    +0.000 F 
ATOM     29  F   UNL     1      -7.916  12.485  18.917  0.00  0.00    +0.000 F 
ENDBRANCH  22  26
ENDBRANCH  18  19
ENDBRANCH  17  18
ENDBRANCH   5  17
TORSDOF 5
ENDMDL
