MODEL 1
REMARK VINA RESULT:      -8.8      0.000      0.000
REMARK  Name = 
REMARK  3 active torsions:
REMARK  status: ('A' for Active; 'I' for Inactive)
REMARK    1  A    between atoms: N_1  and  C_2
REMARK    2  A    between atoms: C_6  and  C_7
REMARK    3  A    between atoms: C_10  and  C_11
REMARK                            x       y       z     vdW  Elec       q    Type
REMARK                         _______ _______ _______ _____ _____    ______ ____
ROOT
ATOM      1  C   UNL     1       6.651   4.723  16.019  0.00  0.00    +0.000 A 
ATOM      2  C   UNL     1       7.535   4.652  17.074  0.00  0.00    +0.000 A 
ATOM      3  C   UNL     1       6.785   4.912  18.244  0.00  0.00    +0.000 A 
ATOM      4  C   UNL     1       5.483   5.159  17.841  0.00  0.00    +0.000 A 
ATOM      5  O   UNL     1       5.398   5.009  16.483  0.00  0.00    +0.000 OA
ENDROOT
BRANCH   4   6
ATOM      6  C   UNL     1       4.304   5.428  18.649  0.00  0.00    +0.000 C 
ATOM      7  O   UNL     1       3.735   6.518  18.550  0.00  0.00    +0.000 OA
ATOM      8  N   UNL     1       3.772   4.432  19.492  0.00  0.00    +0.000 N 
ATOM      9  C   UNL     1       4.296   3.065  19.623  0.00  0.00    +0.000 C 
ATOM     10  C   UNL     1       3.310   1.938  19.242  0.00  0.00    +0.000 C 
ATOM     11  N   UNL     1       1.874   2.113  19.530  0.00  0.00    +0.000 NA
ATOM     12  C   UNL     1       1.254   3.099  18.630  0.00  0.00    +0.000 C 
ATOM     13  C   UNL     1       1.331   4.546  19.123  0.00  0.00    +0.000 C 
ATOM     14  C   UNL     1       2.468   4.716  20.135  0.00  0.00    +0.000 C 
ATOM     15  C   UNL     1       2.161   3.824  21.352  0.00  0.00    +0.000 C 
ATOM     16  C   UNL     1       1.626   2.446  20.935  0.00  0.00    +0.000 C 
ENDBRANCH   4   6
BRANCH   1  21
ATOM     17  C   UNL     1       6.220   3.420  12.507  0.00  0.00    +0.000 A 
ATOM     18  C   UNL     1       7.135   4.226  11.823  0.00  0.00    +0.000 A 
ATOM     19  C   UNL     1       7.824   5.248  12.482  0.00  0.00    +0.000 A 
ATOM     20  C   UNL     1       7.652   5.434  13.853  0.00  0.00    +0.000 A 
ATOM     21  C   UNL     1       6.798   4.590  14.579  0.00  0.00    +0.000 A 
ATOM     22  C   UNL     1       6.092   3.588  13.888  0.00  0.00    +0.000 A 
BRANCH  17  23
ATOM     23  N   UNL     1       5.645   2.312  11.878  0.00  0.00    +0.000 N 
ATOM     24  H   UNL     1       6.066   1.425  12.134  0.00  0.00    +0.000 HD
ATOM     25  H   UNL     1       5.542   2.416  10.874  0.00  0.00    +0.000 HD
ENDBRANCH  17  23
ENDBRANCH   1  21
TORSDOF 3
ENDMDL
MODEL 2
REMARK VINA RESULT:      -8.3      1.305      1.803
REMARK  Name = 
REMARK  3 active torsions:
REMARK  status: ('A' for Active; 'I' for Inactive)
REMARK    1  A    between atoms: N_1  and  C_2
REMARK    2  A    between atoms: C_6  and  C_7
REMARK    3  A    between atoms: C_10  and  C_11
REMARK                            x       y       z     vdW  Elec       q    Type
REMARK                         _______ _______ _______ _____ _____    ______ ____
ROOT
ATOM      1  C   UNL     1       6.485   5.120  15.790  0.00  0.00    +0.000 A 
ATOM      2  C   UNL     1       6.725   6.214  16.593  0.00  0.00    +0.000 A 
ATOM      3  C   UNL     1       6.202   5.897  17.868  0.00  0.00    +0.000 A 
ATOM      4  C   UNL     1       5.640   4.635  17.772  0.00  0.00    +0.000 A 
ATOM      5  O   UNL     1       5.845   4.150  16.508  0.00  0.00    +0.000 OA
ENDROOT
BRANCH   4   6
ATOM      6  C   UNL     1       5.016   3.823  18.804  0.00  0.00    +0.000 C 
ATOM      7  O   UNL     1       5.615   3.622  19.864  0.00  0.00    +0.000 OA
ATOM      8  N   UNL     1       3.710   3.322  18.628  0.00  0.00    +0.000 N 
ATOM      9  C   UNL     1       2.857   3.574  17.459  0.00  0.00    +0.000 C 
ATOM     10  C   UNL     1       1.524   4.297  17.755  0.00  0.00    +0.000 C 
ATOM     11  N   UNL     1       0.822   4.018  19.021  0.00  0.00    +0.000 NA
ATOM     12  C   UNL     1       1.520   4.614  20.173  0.00  0.00    +0.000 C 
ATOM     13  C   UNL     1       2.595   3.723  20.797  0.00  0.00    +0.000 C 
ATOM     14  C   UNL     1       3.075   2.668  19.795  0.00  0.00    +0.000 C 
ATOM     15  C   UNL     1       1.876   1.770  19.435  0.00  0.00    +0.000 C 
ATOM     16  C   UNL     1       0.592   2.586  19.225  0.00  0.00    +0.000 C 
ENDBRANCH   4   6
BRANCH   1  21
ATOM     17  C   UNL     1       6.301   3.455  12.412  0.00  0.00    +0.000 A 
ATOM     18  C   UNL     1       7.284   4.170  11.722  0.00  0.00    +0.000 A 
ATOM     19  C   UNL     1       7.941   5.248  12.323  0.00  0.00    +0.000 A 
ATOM     20  C   UNL     1       7.667   5.581  13.648  0.00  0.00    +0.000 A 
ATOM     21  C   UNL     1       6.740   4.832  14.388  0.00  0.00    +0.000 A 
ATOM     22  C   UNL     1       6.069   3.771  13.753  0.00  0.00    +0.000 A 
BRANCH  17  23
ATOM     23  N   UNL     1       5.753   2.294  11.860  0.00  0.00    +0.000 N 
ATOM     24  H   UNL     1       5.906   1.459  12.415  0.00  0.00    +0.000 HD
ATOM     25  H   UNL     1       5.981   2.155  10.881  0.00  0.00    +0.000 HD
ENDBRANCH  17  23
ENDBRANCH   1  21
TORSDOF 3
ENDMDL
MODEL 3
REMARK VINA RESULT:      -8.1      4.027      7.764
REMARK  Name = 
REMARK  3 active torsions:
REMARK  status: ('A' for Active; 'I' for Inactive)
REMARK    1  A    between atoms: N_1  and  C_2
REMARK    2  A    between atoms: C_6  and  C_7
REMARK    3  A    between atoms: C_10  and  C_11
REMARK                            x       y       z     vdW  Elec       q    Type
REMARK                         _______ _______ _______ _____ _____    ______ ____
ROOT
ATOM      1  C   UNL     1       1.599   8.700  19.380  0.00  0.00    +0.000 A 
ATOM      2  C   UNL     1       1.821   9.140  18.093  0.00  0.00    +0.000 A 
ATOM      3  C   UNL     1       2.646   8.172  17.475  0.00  0.00    +0.000 A 
ATOM      4  C   UNL     1       2.913   7.202  18.426  0.00  0.00    +0.000 A 
ATOM      5  O   UNL     1       2.243   7.511  19.580  0.00  0.00    +0.000 OA
ENDROOT
BRANCH   4   6
ATOM      6  C   UNL     1       3.668   5.967  18.296  0.00  0.00    +0.000 C 
ATOM      7  O   UNL     1       4.901   6.003  18.323  0.00  0.00    +0.000 OA
ATOM      8  N   UNL     1       3.003   4.728  18.205  0.00  0.00    +0.000 N 
ATOM      9  C   UNL     1       1.547   4.542  18.261  0.00  0.00    +0.000 C 
ATOM     10  C   UNL     1       1.035   3.661  19.422  0.00  0.00    +0.000 C 
ATOM     11  N   UNL     1       1.852   2.518  19.869  0.00  0.00    +0.000 NA
ATOM     12  C   UNL     1       3.054   2.958  20.596  0.00  0.00    +0.000 C 
ATOM     13  C   UNL     1       4.270   3.231  19.709  0.00  0.00    +0.000 C 
ATOM     14  C   UNL     1       3.839   3.506  18.265  0.00  0.00    +0.000 C 
ATOM     15  C   UNL     1       3.142   2.242  17.726  0.00  0.00    +0.000 C 
ATOM     16  C   UNL     1       2.199   1.619  18.765  0.00  0.00    +0.000 C 
ENDBRANCH   4   6
BRANCH   1  21
ATOM     17  C   UNL     1      -0.734  10.868  21.398  0.00  0.00    +0.000 A 
ATOM     18  C   UNL     1      -0.457  10.407  22.688  0.00  0.00    +0.000 A 
ATOM     19  C   UNL     1       0.417   9.336  22.895  0.00  0.00    +0.000 A 
ATOM     20  C   UNL     1       1.076   8.754  21.813  0.00  0.00    +0.000 A 
ATOM     21  C   UNL     1       0.875   9.248  20.515  0.00  0.00    +0.000 A 
ATOM     22  C   UNL     1      -0.032  10.306  20.328  0.00  0.00    +0.000 A 
BRANCH  17  23
ATOM     23  N   UNL     1      -1.492  12.026  21.208  0.00  0.00    +0.000 N 
ATOM     24  H   UNL     1      -2.492  11.862  21.144  0.00  0.00    +0.000 HD
ATOM     25  H   UNL     1      -1.150  12.626  20.465  0.00  0.00    +0.000 HD
ENDBRANCH  17  23
ENDBRANCH   1  21
TORSDOF 3
ENDMDL
MODEL 4
REMARK VINA RESULT:      -8.0      1.086      1.483
REMARK  Name = 
REMARK  3 active torsions:
REMARK  status: ('A' for Active; 'I' for Inactive)
REMARK    1  A    between atoms: N_1  and  C_2
REMARK    2  A    between atoms: C_6  and  C_7
REMARK    3  A    between atoms: C_10  and  C_11
REMARK                            x       y       z     vdW  Elec       q    Type
REMARK                         _______ _______ _______ _____ _____    ______ ____
ROOT
ATOM      1  C   UNL     1       6.567   4.922  16.470  0.00  0.00    +0.000 A 
ATOM      2  C   UNL     1       7.476   5.091  17.493  0.00  0.00    +0.000 A 
ATOM      3  C   UNL     1       6.721   5.337  18.663  0.00  0.00    +0.000 A 
ATOM      4  C   UNL     1       5.387   5.336  18.290  0.00  0.00    +0.000 A 
ATOM      5  O   UNL     1       5.296   5.049  16.955  0.00  0.00    +0.000 OA
ENDROOT
BRANCH   4   6
ATOM      6  C   UNL     1       4.200   5.490  19.116  0.00  0.00    +0.000 C 
ATOM      7  O   UNL     1       3.617   6.577  19.145  0.00  0.00    +0.000 OA
ATOM      8  N   UNL     1       3.677   4.392  19.828  0.00  0.00    +0.000 N 
ATOM      9  C   UNL     1       4.219   3.027  19.797  0.00  0.00    +0.000 C 
ATOM     10  C   UNL     1       3.250   1.942  19.274  0.00  0.00    +0.000 C 
ATOM     11  N   UNL     1       1.811   2.062  19.570  0.00  0.00    +0.000 NA
ATOM     12  C   UNL     1       1.183   3.142  18.792  0.00  0.00    +0.000 C 
ATOM     13  C   UNL     1       1.237   4.519  19.456  0.00  0.00    +0.000 C 
ATOM     14  C   UNL     1       2.366   4.580  20.490  0.00  0.00    +0.000 C 
ATOM     15  C   UNL     1       2.063   3.543  21.588  0.00  0.00    +0.000 C 
ATOM     16  C   UNL     1       1.550   2.219  21.003  0.00  0.00    +0.000 C 
ENDBRANCH   4   6
BRANCH   1  21
ATOM     17  C   UNL     1       7.725   5.264  12.898  0.00  0.00    +0.000 A 
ATOM     18  C   UNL     1       6.903   4.322  12.273  0.00  0.00    +0.000 A 
ATOM     19  C   UNL     1       6.039   3.515  13.021  0.00  0.00    +0.000 A 
ATOM     20  C   UNL     1       5.942   3.689  14.400  0.00  0.00    +0.000 A 
ATOM     21  C   UNL     1       6.699   4.680  15.043  0.00  0.00    +0.000 A 
ATOM     22  C   UNL     1       7.583   5.458  14.275  0.00  0.00    +0.000 A 
BRANCH  17  23
ATOM     23  N   UNL     1       8.476   6.163  12.136  0.00  0.00    +0.000 N 
ATOM     24  H   UNL     1       8.381   7.131  12.424  0.00  0.00    +0.000 HD
ATOM     25  H   UNL     1       8.369   6.045  11.134  0.00  0.00    +0.000 HD
ENDBRANCH  17  23
ENDBRANCH   1  21
TORSDOF 3
ENDMDL
MODEL 5
REMARK VINA RESULT:      -7.9      4.071      7.551
REMARK  Name = 
REMARK  3 active torsions:
REMARK  status: ('A' for Active; 'I' for Inactive)
REMARK    1  A    between atoms: N_1  and  C_2
REMARK    2  A    between atoms: C_6  and  C_7
REMARK    3  A    between atoms: C_10  and  C_11
REMARK                            x       y       z     vdW  Elec       q    Type
REMARK                         _______ _______ _______ _____ _____    ______ ____
ROOT
ATOM      1  C   UNL     1       1.746   8.654  19.152  0.00  0.00    +0.000 A 
ATOM      2  C   UNL     1       2.151   8.822  17.845  0.00  0.00    +0.000 A 
ATOM      3  C   UNL     1       2.992   7.727  17.542  0.00  0.00    +0.000 A 
ATOM      4  C   UNL     1       3.084   6.958  18.690  0.00  0.00    +0.000 A 
ATOM      5  O   UNL     1       2.293   7.511  19.662  0.00  0.00    +0.000 OA
ENDROOT
BRANCH   4   6
ATOM      6  C   UNL     1       3.779   5.699  18.903  0.00  0.00    +0.000 C 
ATOM      7  O   UNL     1       4.866   5.697  19.487  0.00  0.00    +0.000 OA
ATOM      8  N   UNL     1       3.193   4.481  18.506  0.00  0.00    +0.000 N 
ATOM      9  C   UNL     1       1.865   4.342  17.893  0.00  0.00    +0.000 C 
ATOM     10  C   UNL     1       0.856   3.480  18.686  0.00  0.00    +0.000 C 
ATOM     11  N   UNL     1       1.347   2.314  19.442  0.00  0.00    +0.000 NA
ATOM     12  C   UNL     1       2.100   2.719  20.640  0.00  0.00    +0.000 C 
ATOM     13  C   UNL     1       3.594   2.952  20.405  0.00  0.00    +0.000 C 
ATOM     14  C   UNL     1       3.873   3.235  18.925  0.00  0.00    +0.000 C 
ATOM     15  C   UNL     1       3.461   1.991  18.115  0.00  0.00    +0.000 C 
ATOM     16  C   UNL     1       2.131   1.401  18.606  0.00  0.00    +0.000 C 
ENDBRANCH   4   6
BRANCH   1  21
ATOM     17  C   UNL     1       0.026   9.807  22.303  0.00  0.00    +0.000 A 
ATOM     18  C   UNL     1      -0.753  10.852  21.799  0.00  0.00    +0.000 A 
ATOM     19  C   UNL     1      -0.654  11.240  20.459  0.00  0.00    +0.000 A 
ATOM     20  C   UNL     1       0.182  10.540  19.591  0.00  0.00    +0.000 A 
ATOM     21  C   UNL     1       0.917   9.438  20.052  0.00  0.00    +0.000 A 
ATOM     22  C   UNL     1       0.825   9.086  21.411  0.00  0.00    +0.000 A 
BRANCH  17  23
ATOM     23  N   UNL     1      -0.182   9.331  23.600  0.00  0.00    +0.000 N 
ATOM     24  H   UNL     1      -1.100   8.926  23.751  0.00  0.00    +0.000 HD
ATOM     25  H   UNL     1       0.074   9.991  24.327  0.00  0.00    +0.000 HD
ENDBRANCH  17  23
ENDBRANCH   1  21
TORSDOF 3
ENDMDL
MODEL 6
REMARK VINA RESULT:      -7.6      4.500      7.426
REMARK  Name = 
REMARK  3 active torsions:
REMARK  status: ('A' for Active; 'I' for Inactive)
REMARK    1  A    between atoms: N_1  and  C_2
REMARK    2  A    between atoms: C_6  and  C_7
REMARK    3  A    between atoms: C_10  and  C_11
REMARK                            x       y       z     vdW  Elec       q    Type
REMARK                         _______ _______ _______ _____ _____    ______ ____
ROOT
ATOM      1  C   UNL     1       1.520   8.880  19.029  0.00  0.00    +0.000 A 
ATOM      2  C   UNL     1       2.328   8.576  17.954  0.00  0.00    +0.000 A 
ATOM      3  C   UNL     1       2.851   7.286  18.199  0.00  0.00    +0.000 A 
ATOM      4  C   UNL     1       2.361   6.877  19.427  0.00  0.00    +0.000 A 
ATOM      5  O   UNL     1       1.520   7.841  19.916  0.00  0.00    +0.000 OA
ENDROOT
BRANCH   4   6
ATOM      6  C   UNL     1       2.550   5.613  20.121  0.00  0.00    +0.000 C 
ATOM      7  O   UNL     1       2.151   5.492  21.282  0.00  0.00    +0.000 OA
ATOM      8  N   UNL     1       3.123   4.511  19.456  0.00  0.00    +0.000 N 
ATOM      9  C   UNL     1       3.545   4.497  18.049  0.00  0.00    +0.000 C 
ATOM     10  C   UNL     1       2.829   3.462  17.152  0.00  0.00    +0.000 C 
ATOM     11  N   UNL     1       2.444   2.160  17.726  0.00  0.00    +0.000 NA
ATOM     12  C   UNL     1       1.311   2.289  18.658  0.00  0.00    +0.000 C 
ATOM     13  C   UNL     1       1.709   2.591  20.105  0.00  0.00    +0.000 C 
ATOM     14  C   UNL     1       3.108   3.211  20.166  0.00  0.00    +0.000 C 
ATOM     15  C   UNL     1       4.111   2.182  19.611  0.00  0.00    +0.000 C 
ATOM     16  C   UNL     1       3.575   1.475  18.358  0.00  0.00    +0.000 C 
ENDBRANCH   4   6
BRANCH   1  21
ATOM     17  C   UNL     1      -0.612  11.973  18.705  0.00  0.00    +0.000 A 
ATOM     18  C   UNL     1      -0.690  12.369  20.044  0.00  0.00    +0.000 A 
ATOM     19  C   UNL     1      -0.127  11.587  21.057  0.00  0.00    +0.000 A 
ATOM     20  C   UNL     1       0.578  10.429  20.734  0.00  0.00    +0.000 A 
ATOM     21  C   UNL     1       0.736  10.049  19.393  0.00  0.00    +0.000 A 
ATOM     22  C   UNL     1       0.136  10.834  18.393  0.00  0.00    +0.000 A 
BRANCH  17  23
ATOM     23  N   UNL     1      -1.048  12.827  17.688  0.00  0.00    +0.000 N 
ATOM     24  H   UNL     1      -1.236  13.775  17.996  0.00  0.00    +0.000 HD
ATOM     25  H   UNL     1      -1.800  12.447  17.125  0.00  0.00    +0.000 HD
ENDBRANCH  17  23
ENDBRANCH   1  21
TORSDOF 3
ENDMDL
MODEL 7
REMARK VINA RESULT:      -7.6      4.738      7.691
REMARK  Name = 
REMARK  3 active torsions:
REMARK  status: ('A' for Active; 'I' for Inactive)
REMARK    1  A    between atoms: N_1  and  C_2
REMARK    2  A    between atoms: C_6  and  C_7
REMARK    3  A    between atoms: C_10  and  C_11
REMARK                            x       y       z     vdW  Elec       q    Type
REMARK                         _______ _______ _______ _____ _____    ______ ____
ROOT
ATOM      1  C   UNL     1       1.066   9.221  19.880  0.00  0.00    +0.000 A 
ATOM      2  C   UNL     1       1.170   8.401  20.983  0.00  0.00    +0.000 A 
ATOM      3  C   UNL     1       1.907   7.267  20.571  0.00  0.00    +0.000 A 
ATOM      4  C   UNL     1       2.191   7.437  19.227  0.00  0.00    +0.000 A 
ATOM      5  O   UNL     1       1.705   8.649  18.816  0.00  0.00    +0.000 OA
ENDROOT
BRANCH   4   6
ATOM      6  C   UNL     1       2.966   6.589  18.335  0.00  0.00    +0.000 C 
ATOM      7  O   UNL     1       3.929   7.066  17.728  0.00  0.00    +0.000 OA
ATOM      8  N   UNL     1       2.667   5.218  18.211  0.00  0.00    +0.000 N 
ATOM      9  C   UNL     1       1.614   4.511  18.953  0.00  0.00    +0.000 C 
ATOM     10  C   UNL     1       2.101   3.356  19.856  0.00  0.00    +0.000 C 
ATOM     11  N   UNL     1       3.247   2.538  19.419  0.00  0.00    +0.000 NA
ATOM     12  C   UNL     1       4.515   3.281  19.512  0.00  0.00    +0.000 C 
ATOM     13  C   UNL     1       4.868   4.095  18.265  0.00  0.00    +0.000 C 
ATOM     14  C   UNL     1       3.614   4.387  17.434  0.00  0.00    +0.000 C 
ATOM     15  C   UNL     1       3.030   3.041  16.963  0.00  0.00    +0.000 C 
ATOM     16  C   UNL     1       3.054   1.984  18.076  0.00  0.00    +0.000 C 
ENDBRANCH   4   6
BRANCH   1  21
ATOM     17  C   UNL     1      -1.128  11.848  18.299  0.00  0.00    +0.000 A 
ATOM     18  C   UNL     1      -0.783  12.964  19.068  0.00  0.00    +0.000 A 
ATOM     19  C   UNL     1       0.091  12.845  20.153  0.00  0.00    +0.000 A 
ATOM     20  C   UNL     1       0.682  11.616  20.441  0.00  0.00    +0.000 A 
ATOM     21  C   UNL     1       0.413  10.497  19.639  0.00  0.00    +0.000 A 
ATOM     22  C   UNL     1      -0.493  10.633  18.571  0.00  0.00    +0.000 A 
BRANCH  17  23
ATOM     23  N   UNL     1      -1.884  12.000  17.134  0.00  0.00    +0.000 N 
ATOM     24  H   UNL     1      -2.130  11.125  16.682  0.00  0.00    +0.000 HD
ATOM     25  H   UNL     1      -1.506  12.679  16.482  0.00  0.00    +0.000 HD
ENDBRANCH  17  23
ENDBRANCH   1  21
TORSDOF 3
ENDMDL
MODEL 8
REMARK VINA RESULT:      -7.5      4.505      8.502
REMARK  Name = 
REMARK  3 active torsions:
REMARK  status: ('A' for Active; 'I' for Inactive)
REMARK    1  A    between atoms: N_1  and  C_2
REMARK    2  A    between atoms: C_6  and  C_7
REMARK    3  A    between atoms: C_10  and  C_11
REMARK                            x       y       z     vdW  Elec       q    Type
REMARK                         _______ _______ _______ _____ _____    ______ ____
ROOT
ATOM      1  C   UNL     1       1.204   8.858  19.710  0.00  0.00    +0.000 A 
ATOM      2  C   UNL     1       1.417   9.049  18.362  0.00  0.00    +0.000 A 
ATOM      3  C   UNL     1       2.296   8.022  17.946  0.00  0.00    +0.000 A 
ATOM      4  C   UNL     1       2.601   7.272  19.069  0.00  0.00    +0.000 A 
ATOM      5  O   UNL     1       1.905   7.766  20.139  0.00  0.00    +0.000 OA
ENDROOT
BRANCH   4   6
ATOM      6  C   UNL     1       3.418   6.074  19.183  0.00  0.00    +0.000 C 
ATOM      7  O   UNL     1       3.034   5.143  19.896  0.00  0.00    +0.000 OA
ATOM      8  N   UNL     1       4.606   5.945  18.437  0.00  0.00    +0.000 N 
ATOM      9  C   UNL     1       5.117   6.937  17.481  0.00  0.00    +0.000 C 
ATOM     10  C   UNL     1       5.265   6.439  16.025  0.00  0.00    +0.000 C 
ATOM     11  N   UNL     1       5.661   5.039  15.783  0.00  0.00    +0.000 NA
ATOM     12  C   UNL     1       4.572   4.101  16.101  0.00  0.00    +0.000 C 
ATOM     13  C   UNL     1       4.539   3.636  17.558  0.00  0.00    +0.000 C 
ATOM     14  C   UNL     1       5.280   4.627  18.462  0.00  0.00    +0.000 C 
ATOM     15  C   UNL     1       6.754   4.667  18.018  0.00  0.00    +0.000 C 
ATOM     16  C   UNL     1       6.894   4.681  16.489  0.00  0.00    +0.000 C 
ENDBRANCH   4   6
BRANCH   1  21
ATOM     17  C   UNL     1      -0.829  11.570  21.361  0.00  0.00    +0.000 A 
ATOM     18  C   UNL     1      -0.936  11.055  22.657  0.00  0.00    +0.000 A 
ATOM     19  C   UNL     1      -0.428   9.791  22.969  0.00  0.00    +0.000 A 
ATOM     20  C   UNL     1       0.254   9.054  22.002  0.00  0.00    +0.000 A 
ATOM     21  C   UNL     1       0.443   9.580  20.716  0.00  0.00    +0.000 A 
ATOM     22  C   UNL     1      -0.104  10.841  20.415  0.00  0.00    +0.000 A 
BRANCH  17  23
ATOM     23  N   UNL     1      -1.209  12.888  21.091  0.00  0.00    +0.000 N 
ATOM     24  H   UNL     1      -0.560  13.393  20.496  0.00  0.00    +0.000 HD
ATOM     25  H   UNL     1      -1.471  13.419  21.915  0.00  0.00    +0.000 HD
ENDBRANCH  17  23
ENDBRANCH   1  21
TORSDOF 3
ENDMDL
MODEL 9
REMARK VINA RESULT:      -7.5      4.278      8.304
REMARK  Name = 
REMARK  3 active torsions:
REMARK  status: ('A' for Active; 'I' for Inactive)
REMARK    1  A    between atoms: N_1  and  C_2
REMARK    2  A    between atoms: C_6  and  C_7
REMARK    3  A    between atoms: C_10  and  C_11
REMARK                            x       y       z     vdW  Elec       q    Type
REMARK                         _______ _______ _______ _____ _____    ______ ____
ROOT
ATOM      1  C   UNL     1       1.382   8.922  19.261  0.00  0.00    +0.000 A 
ATOM      2  C   UNL     1       1.586   9.032  17.903  0.00  0.00    +0.000 A 
ATOM      3  C   UNL     1       2.441   7.966  17.538  0.00  0.00    +0.000 A 
ATOM      4  C   UNL     1       2.742   7.274  18.700  0.00  0.00    +0.000 A 
ATOM      5  O   UNL     1       2.065   7.842  19.746  0.00  0.00    +0.000 OA
ENDROOT
BRANCH   4   6
ATOM      6  C   UNL     1       3.537   6.070  18.875  0.00  0.00    +0.000 C 
ATOM      7  O   UNL     1       3.106   5.155  19.583  0.00  0.00    +0.000 OA
ATOM      8  N   UNL     1       4.759   5.913  18.192  0.00  0.00    +0.000 N 
ATOM      9  C   UNL     1       5.330   6.882  17.247  0.00  0.00    +0.000 C 
ATOM     10  C   UNL     1       5.545   6.357  15.809  0.00  0.00    +0.000 C 
ATOM     11  N   UNL     1       5.935   4.949  15.610  0.00  0.00    +0.000 NA
ATOM     12  C   UNL     1       4.819   4.030  15.888  0.00  0.00    +0.000 C 
ATOM     13  C   UNL     1       4.707   3.590  17.350  0.00  0.00    +0.000 C 
ATOM     14  C   UNL     1       5.414   4.588  18.273  0.00  0.00    +0.000 C 
ATOM     15  C   UNL     1       6.909   4.602  17.904  0.00  0.00    +0.000 C 
ATOM     16  C   UNL     1       7.126   4.588  16.384  0.00  0.00    +0.000 C 
ENDBRANCH   4   6
BRANCH   1  21
ATOM     17  C   UNL     1      -0.167  10.011  22.522  0.00  0.00    +0.000 A 
ATOM     18  C   UNL     1      -0.862  11.151  22.105  0.00  0.00    +0.000 A 
ATOM     19  C   UNL     1      -0.756  11.614  20.790  0.00  0.00    +0.000 A 
ATOM     20  C   UNL     1      -0.002  10.903  19.858  0.00  0.00    +0.000 A 
ATOM     21  C   UNL     1       0.643   9.714  20.231  0.00  0.00    +0.000 A 
ATOM     22  C   UNL     1       0.548   9.284  21.566  0.00  0.00    +0.000 A 
BRANCH  17  23
ATOM     23  N   UNL     1      -0.389   9.472  23.792  0.00  0.00    +0.000 N 
ATOM     24  H   UNL     1      -0.417   8.458  23.813  0.00  0.00    +0.000 HD
ATOM     25  H   UNL     1      -1.170   9.891  24.286  0.00  0.00    +0.000 HD
ENDBRANCH  17  23
ENDBRANCH   1  21
TORSDOF 3
ENDMDL
