MODEL 1
REMARK VINA RESULT:      -7.0      0.000      0.000
REMARK  Name = 
REMARK  10 active torsions:
REMARK  status: ('A' for Active; 'I' for Inactive)
REMARK    1  A    between atoms: C_1  and  C_2
REMARK    2  A    between atoms: C_4  and  C_5
REMARK    3  A    between atoms: C_8  and  O_9
REMARK    4  A    between atoms: O_9  and  C_10
REMARK    5  A    between atoms: C_10  and  C_11
REMARK    6  A    between atoms: C_11  and  O_12
REMARK    7  A    between atoms: O_12  and  S_13
REMARK    8  A    between atoms: S_13  and  C_14
REMARK    9  A    between atoms: C_23  and  O_24
REMARK   10  A    between atoms: C_33  and  O_34
REMARK                            x       y       z     vdW  Elec       q    Type
REMARK                         _______ _______ _______ _____ _____    ______ ____
ROOT
ATOM      1  C   UNL     1       6.661  14.285  23.106  0.00  0.00    +0.000 C 
ATOM      2  C   UNL     1       8.108  13.928  23.545  0.00  0.00    +0.000 C 
ATOM      3  C   UNL     1       9.057  15.081  23.176  0.00  0.00    +0.000 C 
ATOM      4  C   UNL     1       9.433  15.125  21.647  0.00  0.00    +0.000 C 
ATOM      5  C   UNL     1      10.040  13.755  21.195  0.00  0.00    +0.000 C 
ATOM      6  C   UNL     1      10.544  13.727  19.744  0.00  0.00    +0.000 A 
ATOM      7  C   UNL     1      11.067  14.888  19.135  0.00  0.00    +0.000 A 
ATOM      8  C   UNL     1      11.333  14.933  17.766  0.00  0.00    +0.000 A 
ATOM      9  C   UNL     1      11.128  13.798  17.001  0.00  0.00    +0.000 A 
ATOM     10  C   UNL     1      10.698  12.614  17.589  0.00  0.00    +0.000 A 
ATOM     11  C   UNL     1      10.416  12.556  18.967  0.00  0.00    +0.000 A 
ATOM     12  C   UNL     1       9.875  11.276  19.544  0.00  0.00    +0.000 C 
ATOM     13  C   UNL     1       9.724  11.278  21.068  0.00  0.00    +0.000 C 
ATOM     14  C   UNL     1       9.059  12.576  21.532  0.00  0.00    +0.000 C 
ATOM     15  C   UNL     1       8.727  12.600  23.023  0.00  0.00    +0.000 C 
ATOM     16  C   UNL     1       7.793  11.538  23.604  0.00  0.00    +0.000 C 
ATOM     17  C   UNL     1       7.420  12.107  24.989  0.00  0.00    +0.000 C 
ATOM     18  C   UNL     1       8.048  13.521  25.042  0.00  0.00    +0.000 C 
ENDROOT
BRANCH   4  19
ATOM     19  C   UNL     1       8.322  15.666  20.737  0.00  0.00    +0.000 A 
ATOM     20  C   UNL     1       7.999  17.026  20.792  0.00  0.00    +0.000 A 
ATOM     21  C   UNL     1       6.911  17.529  20.066  0.00  0.00    +0.000 A 
ATOM     22  C   UNL     1       6.138  16.691  19.269  0.00  0.00    +0.000 A 
ATOM     23  C   UNL     1       6.483  15.357  19.148  0.00  0.00    +0.000 A 
ATOM     24  C   UNL     1       7.571  14.862  19.857  0.00  0.00    +0.000 A 
BRANCH  22  25
ATOM     25  O   UNL     1       5.020  17.035  18.566  0.00  0.00    +0.000 OA
BRANCH  25  26
ATOM     26  C   UNL     1       3.805  16.937  19.293  0.00  0.00    +0.000 C 
BRANCH  26  27
ATOM     27  C   UNL     1       2.759  16.287  18.412  0.00  0.00    +0.000 C 
BRANCH  27  28
ATOM     28  O   UNL     1       3.230  14.994  18.080  0.00  0.00    +0.000 OA
BRANCH  28  29
ATOM     29  S   UNL     1       2.599  13.739  18.893  0.00  0.00    +0.000 S 
ATOM     30  C   UNL     1       0.932  14.341  18.941  0.00  0.00    +0.000 C 
ATOM     31  O   UNL     1       2.652  12.568  18.041  0.00  0.00    +0.000 OA
ATOM     32  O   UNL     1       3.141  13.744  20.234  0.00  0.00    +0.000 OA
ENDBRANCH  28  29
ENDBRANCH  27  28
ENDBRANCH  26  27
ENDBRANCH  25  26
ENDBRANCH  22  25
ENDBRANCH   4  19
BRANCH   9  33
ATOM     33  O   UNL     1      11.326  13.808  15.651  0.00  0.00    +0.000 OA
ATOM     34  H   UNL     1      11.416  14.733  15.363  0.00  0.00    +0.000 HD
ENDBRANCH   9  33
BRANCH  18  35
ATOM     35  O   UNL     1       7.335  14.409  25.881  0.00  0.00    +0.000 OA
ATOM     36  H   UNL     1       6.475  14.013  26.098  0.00  0.00    +0.000 HD
ENDBRANCH  18  35
TORSDOF 8
ENDMDL
MODEL 2
REMARK VINA RESULT:      -6.7      1.042      1.042
REMARK  Name = 
REMARK  10 active torsions:
REMARK  status: ('A' for Active; 'I' for Inactive)
REMARK    1  A    between atoms: C_1  and  C_2
REMARK    2  A    between atoms: C_4  and  C_5
REMARK    3  A    between atoms: C_8  and  O_9
REMARK    4  A    between atoms: O_9  and  C_10
REMARK    5  A    between atoms: C_10  and  C_11
REMARK    6  A    between atoms: C_11  and  O_12
REMARK    7  A    between atoms: O_12  and  S_13
REMARK    8  A    between atoms: S_13  and  C_14
REMARK    9  A    between atoms: C_23  and  O_24
REMARK   10  A    between atoms: C_33  and  O_34
REMARK                            x       y       z     vdW  Elec       q    Type
REMARK                         _______ _______ _______ _____ _____    ______ ____
ROOT
ATOM      1  C   UNL     1       6.742  14.325  23.135  0.00  0.00    +0.000 C 
ATOM      2  C   UNL     1       8.175  13.898  23.559  0.00  0.00    +0.000 C 
ATOM      3  C   UNL     1       9.170  15.015  23.203  0.00  0.00    +0.000 C 
ATOM      4  C   UNL     1       9.539  15.071  21.674  0.00  0.00    +0.000 C 
ATOM      5  C   UNL     1      10.084  13.684  21.194  0.00  0.00    +0.000 C 
ATOM      6  C   UNL     1      10.579  13.660  19.739  0.00  0.00    +0.000 A 
ATOM      7  C   UNL     1      11.147  14.808  19.147  0.00  0.00    +0.000 A 
ATOM      8  C   UNL     1      11.407  14.866  17.777  0.00  0.00    +0.000 A 
ATOM      9  C   UNL     1      11.149  13.755  16.994  0.00  0.00    +0.000 A 
ATOM     10  C   UNL     1      10.673  12.579  17.564  0.00  0.00    +0.000 A 
ATOM     11  C   UNL     1      10.396  12.509  18.943  0.00  0.00    +0.000 A 
ATOM     12  C   UNL     1       9.804  11.244  19.501  0.00  0.00    +0.000 C 
ATOM     13  C   UNL     1       9.662  11.225  21.026  0.00  0.00    +0.000 C 
ATOM     14  C   UNL     1       9.055  12.542  21.517  0.00  0.00    +0.000 C 
ATOM     15  C   UNL     1       8.733  12.555  23.009  0.00  0.00    +0.000 C 
ATOM     16  C   UNL     1       7.758  11.523  23.578  0.00  0.00    +0.000 C 
ATOM     17  C   UNL     1       7.417  12.083  24.975  0.00  0.00    +0.000 C 
ATOM     18  C   UNL     1       8.106  13.468  25.049  0.00  0.00    +0.000 C 
ENDROOT
BRANCH   4  19
ATOM     19  C   UNL     1       8.447  15.674  20.780  0.00  0.00    +0.000 A 
ATOM     20  C   UNL     1       8.212  17.053  20.829  0.00  0.00    +0.000 A 
ATOM     21  C   UNL     1       7.145  17.619  20.120  0.00  0.00    +0.000 A 
ATOM     22  C   UNL     1       6.305  16.826  19.345  0.00  0.00    +0.000 A 
ATOM     23  C   UNL     1       6.562  15.472  19.229  0.00  0.00    +0.000 A 
ATOM     24  C   UNL     1       7.629  14.913  19.921  0.00  0.00    +0.000 A 
BRANCH  22  25
ATOM     25  O   UNL     1       5.197  17.235  18.660  0.00  0.00    +0.000 OA
BRANCH  25  26
ATOM     26  C   UNL     1       4.310  16.193  18.287  0.00  0.00    +0.000 C 
BRANCH  26  27
ATOM     27  C   UNL     1       2.947  16.474  18.885  0.00  0.00    +0.000 C 
BRANCH  27  28
ATOM     28  O   UNL     1       2.079  15.437  18.463  0.00  0.00    +0.000 OA
BRANCH  28  29
ATOM     29  S   UNL     1       0.637  15.327  19.198  0.00  0.00    +0.000 S 
ATOM     30  C   UNL     1      -0.048  16.821  18.533  0.00  0.00    +0.000 C 
ATOM     31  O   UNL     1      -0.076  14.195  18.643  0.00  0.00    +0.000 OA
ATOM     32  O   UNL     1       0.835  15.492  20.621  0.00  0.00    +0.000 OA
ENDBRANCH  28  29
ENDBRANCH  27  28
ENDBRANCH  26  27
ENDBRANCH  25  26
ENDBRANCH  22  25
ENDBRANCH   4  19
BRANCH   9  33
ATOM     33  O   UNL     1      11.340  13.779  15.644  0.00  0.00    +0.000 OA
ATOM     34  H   UNL     1      10.473  13.880  15.215  0.00  0.00    +0.000 HD
ENDBRANCH   9  33
BRANCH  18  35
ATOM     35  O   UNL     1       7.437  14.371  25.908  0.00  0.00    +0.000 OA
ATOM     36  H   UNL     1       6.481  14.207  25.850  0.00  0.00    +0.000 HD
ENDBRANCH  18  35
TORSDOF 8
ENDMDL
MODEL 3
REMARK VINA RESULT:      -6.5      1.088      1.274
REMARK  Name = 
REMARK  10 active torsions:
REMARK  status: ('A' for Active; 'I' for Inactive)
REMARK    1  A    between atoms: C_1  and  C_2
REMARK    2  A    between atoms: C_4  and  C_5
REMARK    3  A    between atoms: C_8  and  O_9
REMARK    4  A    between atoms: O_9  and  C_10
REMARK    5  A    between atoms: C_10  and  C_11
REMARK    6  A    between atoms: C_11  and  O_12
REMARK    7  A    between atoms: O_12  and  S_13
REMARK    8  A    between atoms: S_13  and  C_14
REMARK    9  A    between atoms: C_23  and  O_24
REMARK   10  A    between atoms: C_33  and  O_34
REMARK                            x       y       z     vdW  Elec       q    Type
REMARK                         _______ _______ _______ _____ _____    ______ ____
ROOT
ATOM      1  C   UNL     1       6.310  14.044  22.543  0.00  0.00    +0.000 C 
ATOM      2  C   UNL     1       7.759  14.000  23.104  0.00  0.00    +0.000 C 
ATOM      3  C   UNL     1       8.533  15.242  22.629  0.00  0.00    +0.000 C 
ATOM      4  C   UNL     1       9.011  15.154  21.132  0.00  0.00    +0.000 C 
ATOM      5  C   UNL     1       9.866  13.862  20.908  0.00  0.00    +0.000 C 
ATOM      6  C   UNL     1      10.477  13.734  19.504  0.00  0.00    +0.000 A 
ATOM      7  C   UNL     1      10.849  14.880  18.768  0.00  0.00    +0.000 A 
ATOM      8  C   UNL     1      11.207  14.794  17.422  0.00  0.00    +0.000 A 
ATOM      9  C   UNL     1      11.249  13.553  16.812  0.00  0.00    +0.000 A 
ATOM     10  C   UNL     1      10.974  12.397  17.536  0.00  0.00    +0.000 A 
ATOM     11  C   UNL     1      10.601  12.469  18.891  0.00  0.00    +0.000 A 
ATOM     12  C   UNL     1      10.234  11.200  19.611  0.00  0.00    +0.000 C 
ATOM     13  C   UNL     1       9.969  11.371  21.110  0.00  0.00    +0.000 C 
ATOM     14  C   UNL     1       9.068  12.584  21.353  0.00  0.00    +0.000 C 
ATOM     15  C   UNL     1       8.623  12.743  22.805  0.00  0.00    +0.000 C 
ATOM     16  C   UNL     1       7.834  11.619  23.478  0.00  0.00    +0.000 C 
ATOM     17  C   UNL     1       7.268  12.289  24.748  0.00  0.00    +0.000 C 
ATOM     18  C   UNL     1       7.652  13.784  24.638  0.00  0.00    +0.000 C 
ENDROOT
BRANCH   4  19
ATOM     19  C   UNL     1       7.900  15.374  20.097  0.00  0.00    +0.000 A 
ATOM     20  C   UNL     1       7.158  16.560  20.136  0.00  0.00    +0.000 A 
ATOM     21  C   UNL     1       6.060  16.741  19.287  0.00  0.00    +0.000 A 
ATOM     22  C   UNL     1       5.689  15.753  18.381  0.00  0.00    +0.000 A 
ATOM     23  C   UNL     1       6.450  14.603  18.278  0.00  0.00    +0.000 A 
ATOM     24  C   UNL     1       7.549  14.430  19.111  0.00  0.00    +0.000 A 
BRANCH  22  25
ATOM     25  O   UNL     1       4.609  15.772  17.546  0.00  0.00    +0.000 OA
BRANCH  25  26
ATOM     26  C   UNL     1       3.403  16.221  18.143  0.00  0.00    +0.000 C 
BRANCH  26  27
ATOM     27  C   UNL     1       2.491  15.031  18.356  0.00  0.00    +0.000 C 
BRANCH  27  28
ATOM     28  O   UNL     1       2.971  14.327  19.487  0.00  0.00    +0.000 OA
BRANCH  28  29
ATOM     29  S   UNL     1       1.942  14.111  20.724  0.00  0.00    +0.000 S 
ATOM     30  C   UNL     1       2.795  15.145  21.885  0.00  0.00    +0.000 C 
ATOM     31  O   UNL     1       0.679  14.731  20.382  0.00  0.00    +0.000 OA
ATOM     32  O   UNL     1       2.035  12.735  21.160  0.00  0.00    +0.000 OA
ENDBRANCH  28  29
ENDBRANCH  27  28
ENDBRANCH  26  27
ENDBRANCH  25  26
ENDBRANCH  22  25
ENDBRANCH   4  19
BRANCH   9  33
ATOM     33  O   UNL     1      11.545  13.423  15.487  0.00  0.00    +0.000 OA
ATOM     34  H   UNL     1      12.177  14.123  15.247  0.00  0.00    +0.000 HD
ENDBRANCH   9  33
BRANCH  18  35
ATOM     35  O   UNL     1       6.742  14.637  25.305  0.00  0.00    +0.000 OA
ATOM     36  H   UNL     1       5.990  14.815  24.717  0.00  0.00    +0.000 HD
ENDBRANCH  18  35
TORSDOF 8
ENDMDL
MODEL 4
REMARK VINA RESULT:      -6.5      6.850     11.356
REMARK  Name = 
REMARK  10 active torsions:
REMARK  status: ('A' for Active; 'I' for Inactive)
REMARK    1  A    between atoms: C_1  and  C_2
REMARK    2  A    between atoms: C_4  and  C_5
REMARK    3  A    between atoms: C_8  and  O_9
REMARK    4  A    between atoms: O_9  and  C_10
REMARK    5  A    between atoms: C_10  and  C_11
REMARK    6  A    between atoms: C_11  and  O_12
REMARK    7  A    between atoms: O_12  and  S_13
REMARK    8  A    between atoms: S_13  and  C_14
REMARK    9  A    between atoms: C_23  and  O_24
REMARK   10  A    between atoms: C_33  and  O_34
REMARK                            x       y       z     vdW  Elec       q    Type
REMARK                         _______ _______ _______ _____ _____    ______ ____
ROOT
ATOM      1  C   UNL     1      -2.847   9.846  18.342  0.00  0.00    +0.000 C 
ATOM      2  C   UNL     1      -3.065  11.294  17.821  0.00  0.00    +0.000 C 
ATOM      3  C   UNL     1      -1.802  11.769  17.081  0.00  0.00    +0.000 C 
ATOM      4  C   UNL     1      -0.628  12.192  18.040  0.00  0.00    +0.000 C 
ATOM      5  C   UNL     1      -1.114  13.289  19.046  0.00  0.00    +0.000 C 
ATOM      6  C   UNL     1      -0.014  13.853  19.958  0.00  0.00    +0.000 A 
ATOM      7  C   UNL     1       1.322  13.944  19.511  0.00  0.00    +0.000 A 
ATOM      8  C   UNL     1       2.362  14.256  20.389  0.00  0.00    +0.000 A 
ATOM      9  C   UNL     1       2.068  14.531  21.713  0.00  0.00    +0.000 A 
ATOM     10  C   UNL     1       0.751  14.537  22.161  0.00  0.00    +0.000 A 
ATOM     11  C   UNL     1      -0.307  14.214  21.290  0.00  0.00    +0.000 A 
ATOM     12  C   UNL     1      -1.706  14.153  21.839  0.00  0.00    +0.000 C 
ATOM     13  C   UNL     1      -2.794  13.921  20.787  0.00  0.00    +0.000 C 
ATOM     14  C   UNL     1      -2.379  12.796  19.835  0.00  0.00    +0.000 C 
ATOM     15  C   UNL     1      -3.470  12.391  18.846  0.00  0.00    +0.000 C 
ATOM     16  C   UNL     1      -4.813  11.884  19.373  0.00  0.00    +0.000 C 
ATOM     17  C   UNL     1      -5.468  11.244  18.130  0.00  0.00    +0.000 C 
ATOM     18  C   UNL     1      -4.393  11.300  17.017  0.00  0.00    +0.000 C 
ENDROOT
BRANCH   4  19
ATOM     19  C   UNL     1       0.118  11.016  18.686  0.00  0.00    +0.000 A 
ATOM     20  C   UNL     1       1.014  10.271  17.911  0.00  0.00    +0.000 A 
ATOM     21  C   UNL     1       1.618   9.120  18.433  0.00  0.00    +0.000 A 
ATOM     22  C   UNL     1       1.349   8.699  19.731  0.00  0.00    +0.000 A 
ATOM     23  C   UNL     1       0.520   9.461  20.535  0.00  0.00    +0.000 A 
ATOM     24  C   UNL     1      -0.068  10.611  20.022  0.00  0.00    +0.000 A 
BRANCH  22  25
ATOM     25  O   UNL     1       1.815   7.570  20.337  0.00  0.00    +0.000 OA
BRANCH  25  26
ATOM     26  C   UNL     1       2.551   6.700  19.492  0.00  0.00    +0.000 C 
BRANCH  26  27
ATOM     27  C   UNL     1       2.466   5.292  20.045  0.00  0.00    +0.000 C 
BRANCH  27  28
ATOM     28  O   UNL     1       2.948   4.415  19.043  0.00  0.00    +0.000 OA
BRANCH  28  29
ATOM     29  S   UNL     1       1.873   3.424  18.339  0.00  0.00    +0.000 S 
ATOM     30  C   UNL     1       0.868   3.156  19.775  0.00  0.00    +0.000 C 
ATOM     31  O   UNL     1       1.115   4.185  17.369  0.00  0.00    +0.000 OA
ATOM     32  O   UNL     1       2.546   2.189  17.998  0.00  0.00    +0.000 OA
ENDBRANCH  28  29
ENDBRANCH  27  28
ENDBRANCH  26  27
ENDBRANCH  25  26
ENDBRANCH  22  25
ENDBRANCH   4  19
BRANCH   9  33
ATOM     33  O   UNL     1       3.053  14.792  22.619  0.00  0.00    +0.000 OA
ATOM     34  H   UNL     1       3.543  15.577  22.318  0.00  0.00    +0.000 HD
ENDBRANCH   9  33
BRANCH  18  35
ATOM     35  O   UNL     1      -4.528  10.260  16.068  0.00  0.00    +0.000 OA
ATOM     36  H   UNL     1      -3.875   9.569  16.264  0.00  0.00    +0.000 HD
ENDBRANCH  18  35
TORSDOF 8
ENDMDL
MODEL 5
REMARK VINA RESULT:      -6.5      6.932     11.472
REMARK  Name = 
REMARK  10 active torsions:
REMARK  status: ('A' for Active; 'I' for Inactive)
REMARK    1  A    between atoms: C_1  and  C_2
REMARK    2  A    between atoms: C_4  and  C_5
REMARK    3  A    between atoms: C_8  and  O_9
REMARK    4  A    between atoms: O_9  and  C_10
REMARK    5  A    between atoms: C_10  and  C_11
REMARK    6  A    between atoms: C_11  and  O_12
REMARK    7  A    between atoms: O_12  and  S_13
REMARK    8  A    between atoms: S_13  and  C_14
REMARK    9  A    between atoms: C_23  and  O_24
REMARK   10  A    between atoms: C_33  and  O_34
REMARK                            x       y       z     vdW  Elec       q    Type
REMARK                         _______ _______ _______ _____ _____    ______ ____
ROOT
ATOM      1  C   UNL     1      -2.823   9.746  18.290  0.00  0.00    +0.000 C 
ATOM      2  C   UNL     1      -3.045  11.186  17.748  0.00  0.00    +0.000 C 
ATOM      3  C   UNL     1      -1.773  11.665  17.028  0.00  0.00    +0.000 C 
ATOM      4  C   UNL     1      -0.623  12.111  18.006  0.00  0.00    +0.000 C 
ATOM      5  C   UNL     1      -1.141  13.214  18.989  0.00  0.00    +0.000 C 
ATOM      6  C   UNL     1      -0.065  13.801  19.916  0.00  0.00    +0.000 A 
ATOM      7  C   UNL     1       1.279  13.901  19.496  0.00  0.00    +0.000 A 
ATOM      8  C   UNL     1       2.297  14.233  20.391  0.00  0.00    +0.000 A 
ATOM      9  C   UNL     1       1.973  14.521  21.705  0.00  0.00    +0.000 A 
ATOM     10  C   UNL     1       0.648  14.517  22.127  0.00  0.00    +0.000 A 
ATOM     11  C   UNL     1      -0.389  14.173  21.238  0.00  0.00    +0.000 A 
ATOM     12  C   UNL     1      -1.798  14.103  21.760  0.00  0.00    +0.000 C 
ATOM     13  C   UNL     1      -2.862  13.849  20.688  0.00  0.00    +0.000 C 
ATOM     14  C   UNL     1      -2.417  12.717  19.758  0.00  0.00    +0.000 C 
ATOM     15  C   UNL     1      -3.482  12.289  18.752  0.00  0.00    +0.000 C 
ATOM     16  C   UNL     1      -4.831  11.774  19.257  0.00  0.00    +0.000 C 
ATOM     17  C   UNL     1      -5.453  11.114  18.009  0.00  0.00    +0.000 C 
ATOM     18  C   UNL     1      -4.357  11.168  16.917  0.00  0.00    +0.000 C 
ENDROOT
BRANCH   4  19
ATOM     19  C   UNL     1       0.122  10.951  18.680  0.00  0.00    +0.000 A 
ATOM     20  C   UNL     1       1.032  10.199  17.929  0.00  0.00    +0.000 A 
ATOM     21  C   UNL     1       1.637   9.060  18.477  0.00  0.00    +0.000 A 
ATOM     22  C   UNL     1       1.354   8.659  19.778  0.00  0.00    +0.000 A 
ATOM     23  C   UNL     1       0.510   9.428  20.560  0.00  0.00    +0.000 A 
ATOM     24  C   UNL     1      -0.078  10.566  20.021  0.00  0.00    +0.000 A 
BRANCH  22  25
ATOM     25  O   UNL     1       1.819   7.542  20.409  0.00  0.00    +0.000 OA
BRANCH  25  26
ATOM     26  C   UNL     1       2.633   6.701  19.607  0.00  0.00    +0.000 C 
BRANCH  26  27
ATOM     27  C   UNL     1       2.030   5.311  19.588  0.00  0.00    +0.000 C 
BRANCH  27  28
ATOM     28  O   UNL     1       2.401   4.672  20.796  0.00  0.00    +0.000 OA
BRANCH  28  29
ATOM     29  S   UNL     1       2.339   3.051  20.831  0.00  0.00    +0.000 S 
ATOM     30  C   UNL     1       3.824   2.768  19.903  0.00  0.00    +0.000 C 
ATOM     31  O   UNL     1       2.547   2.614  22.196  0.00  0.00    +0.000 OA
ATOM     32  O   UNL     1       1.204   2.620  20.045  0.00  0.00    +0.000 OA
ENDBRANCH  28  29
ENDBRANCH  27  28
ENDBRANCH  26  27
ENDBRANCH  25  26
ENDBRANCH  22  25
ENDBRANCH   4  19
BRANCH   9  33
ATOM     33  O   UNL     1       2.937  14.802  22.628  0.00  0.00    +0.000 OA
ATOM     34  H   UNL     1       3.783  14.447  22.303  0.00  0.00    +0.000 HD
ENDBRANCH   9  33
BRANCH  18  35
ATOM     35  O   UNL     1      -4.462  10.116  15.977  0.00  0.00    +0.000 OA
ATOM     36  H   UNL     1      -3.575   9.904  15.644  0.00  0.00    +0.000 HD
ENDBRANCH  18  35
TORSDOF 8
ENDMDL
MODEL 6
REMARK VINA RESULT:      -6.4      2.867      6.592
REMARK  Name = 
REMARK  10 active torsions:
REMARK  status: ('A' for Active; 'I' for Inactive)
REMARK    1  A    between atoms: C_1  and  C_2
REMARK    2  A    between atoms: C_4  and  C_5
REMARK    3  A    between atoms: C_8  and  O_9
REMARK    4  A    between atoms: O_9  and  C_10
REMARK    5  A    between atoms: C_10  and  C_11
REMARK    6  A    between atoms: C_11  and  O_12
REMARK    7  A    between atoms: O_12  and  S_13
REMARK    8  A    between atoms: S_13  and  C_14
REMARK    9  A    between atoms: C_23  and  O_24
REMARK   10  A    between atoms: C_33  and  O_34
REMARK                            x       y       z     vdW  Elec       q    Type
REMARK                         _______ _______ _______ _____ _____    ______ ____
ROOT
ATOM      1  C   UNL     1       9.586  11.825  20.937  0.00  0.00    +0.000 C 
ATOM      2  C   UNL     1      10.206  12.919  20.025  0.00  0.00    +0.000 C 
ATOM      3  C   UNL     1      10.448  14.198  20.846  0.00  0.00    +0.000 C 
ATOM      4  C   UNL     1       9.141  15.033  21.115  0.00  0.00    +0.000 C 
ATOM      5  C   UNL     1       8.429  15.380  19.765  0.00  0.00    +0.000 C 
ATOM      6  C   UNL     1       7.199  16.290  19.907  0.00  0.00    +0.000 A 
ATOM      7  C   UNL     1       7.125  17.256  20.934  0.00  0.00    +0.000 A 
ATOM      8  C   UNL     1       5.939  17.941  21.203  0.00  0.00    +0.000 A 
ATOM      9  C   UNL     1       4.829  17.704  20.413  0.00  0.00    +0.000 A 
ATOM     10  C   UNL     1       4.897  16.824  19.338  0.00  0.00    +0.000 A 
ATOM     11  C   UNL     1       6.083  16.118  19.060  0.00  0.00    +0.000 A 
ATOM     12  C   UNL     1       6.085  15.116  17.939  0.00  0.00    +0.000 C 
ATOM     13  C   UNL     1       7.454  14.499  17.637  0.00  0.00    +0.000 C 
ATOM     14  C   UNL     1       8.141  14.076  18.938  0.00  0.00    +0.000 C 
ATOM     15  C   UNL     1       9.445  13.311  18.726  0.00  0.00    +0.000 C 
ATOM     16  C   UNL     1       9.431  12.003  17.934  0.00  0.00    +0.000 C 
ATOM     17  C   UNL     1      10.802  11.372  18.257  0.00  0.00    +0.000 C 
ATOM     18  C   UNL     1      11.442  12.291  19.326  0.00  0.00    +0.000 C 
ENDROOT
BRANCH   4  19
ATOM     19  C   UNL     1       8.221  14.441  22.192  0.00  0.00    +0.000 A 
ATOM     20  C   UNL     1       6.989  13.897  21.811  0.00  0.00    +0.000 A 
ATOM     21  C   UNL     1       6.075  13.460  22.778  0.00  0.00    +0.000 A 
ATOM     22  C   UNL     1       6.375  13.547  24.133  0.00  0.00    +0.000 A 
ATOM     23  C   UNL     1       7.615  14.018  24.527  0.00  0.00    +0.000 A 
ATOM     24  C   UNL     1       8.527  14.438  23.567  0.00  0.00    +0.000 A 
BRANCH  22  25
ATOM     25  O   UNL     1       5.555  13.221  25.174  0.00  0.00    +0.000 OA
BRANCH  25  26
ATOM     26  C   UNL     1       6.191  12.530  26.237  0.00  0.00    +0.000 C 
BRANCH  26  27
ATOM     27  C   UNL     1       5.216  12.401  27.390  0.00  0.00    +0.000 C 
BRANCH  27  28
ATOM     28  O   UNL     1       4.024  11.836  26.874  0.00  0.00    +0.000 OA
BRANCH  28  29
ATOM     29  S   UNL     1       3.904  10.217  26.879  0.00  0.00    +0.000 S 
ATOM     30  C   UNL     1       5.312   9.909  27.912  0.00  0.00    +0.000 C 
ATOM     31  O   UNL     1       2.703   9.849  27.599  0.00  0.00    +0.000 OA
ATOM     32  O   UNL     1       4.184   9.734  25.545  0.00  0.00    +0.000 OA
ENDBRANCH  28  29
ENDBRANCH  27  28
ENDBRANCH  26  27
ENDBRANCH  25  26
ENDBRANCH  22  25
ENDBRANCH   4  19
BRANCH   9  33
ATOM     33  O   UNL     1       3.635  18.312  20.668  0.00  0.00    +0.000 OA
ATOM     34  H   UNL     1       3.645  18.630  21.587  0.00  0.00    +0.000 HD
ENDBRANCH   9  33
BRANCH  18  35
ATOM     35  O   UNL     1      12.333  11.602  20.182  0.00  0.00    +0.000 OA
ATOM     36  H   UNL     1      12.025  11.697  21.098  0.00  0.00    +0.000 HD
ENDBRANCH  18  35
TORSDOF 8
ENDMDL
MODEL 7
REMARK VINA RESULT:      -6.4      0.791      1.255
REMARK  Name = 
REMARK  10 active torsions:
REMARK  status: ('A' for Active; 'I' for Inactive)
REMARK    1  A    between atoms: C_1  and  C_2
REMARK    2  A    between atoms: C_4  and  C_5
REMARK    3  A    between atoms: C_8  and  O_9
REMARK    4  A    between atoms: O_9  and  C_10
REMARK    5  A    between atoms: C_10  and  C_11
REMARK    6  A    between atoms: C_11  and  O_12
REMARK    7  A    between atoms: O_12  and  S_13
REMARK    8  A    between atoms: S_13  and  C_14
REMARK    9  A    between atoms: C_23  and  O_24
REMARK   10  A    between atoms: C_33  and  O_34
REMARK                            x       y       z     vdW  Elec       q    Type
REMARK                         _______ _______ _______ _____ _____    ______ ____
ROOT
ATOM      1  C   UNL     1       6.732  14.205  23.510  0.00  0.00    +0.000 C 
ATOM      2  C   UNL     1       8.195  13.819  23.863  0.00  0.00    +0.000 C 
ATOM      3  C   UNL     1       9.133  14.987  23.512  0.00  0.00    +0.000 C 
ATOM      4  C   UNL     1       9.439  15.110  21.972  0.00  0.00    +0.000 C 
ATOM      5  C   UNL     1      10.016  13.763  21.422  0.00  0.00    +0.000 C 
ATOM      6  C   UNL     1      10.454  13.809  19.950  0.00  0.00    +0.000 A 
ATOM      7  C   UNL     1      10.956  14.999  19.379  0.00  0.00    +0.000 A 
ATOM      8  C   UNL     1      11.159  15.114  18.003  0.00  0.00    +0.000 A 
ATOM      9  C   UNL     1      10.913  14.022  17.190  0.00  0.00    +0.000 A 
ATOM     10  C   UNL     1      10.503  12.810  17.734  0.00  0.00    +0.000 A 
ATOM     11  C   UNL     1      10.283  12.681  19.119  0.00  0.00    +0.000 A 
ATOM     12  C   UNL     1       9.762  11.375  19.652  0.00  0.00    +0.000 C 
ATOM     13  C   UNL     1       9.681  11.297  21.180  0.00  0.00    +0.000 C 
ATOM     14  C   UNL     1       9.045  12.571  21.741  0.00  0.00    +0.000 C 
ATOM     15  C   UNL     1       8.781  12.519  23.244  0.00  0.00    +0.000 C 
ATOM     16  C   UNL     1       7.869  11.431  23.811  0.00  0.00    +0.000 C 
ATOM     17  C   UNL     1       7.562  11.928  25.240  0.00  0.00    +0.000 C 
ATOM     18  C   UNL     1       8.201  13.335  25.339  0.00  0.00    +0.000 C 
ENDROOT
BRANCH   4  19
ATOM     19  C   UNL     1       8.291  15.702  21.143  0.00  0.00    +0.000 A 
ATOM     20  C   UNL     1       7.574  14.866  20.280  0.00  0.00    +0.000 A 
ATOM     21  C   UNL     1       6.603  15.396  19.421  0.00  0.00    +0.000 A 
ATOM     22  C   UNL     1       6.324  16.759  19.414  0.00  0.00    +0.000 A 
ATOM     23  C   UNL     1       6.973  17.591  20.309  0.00  0.00    +0.000 A 
ATOM     24  C   UNL     1       7.926  17.062  21.171  0.00  0.00    +0.000 A 
BRANCH  22  25
ATOM     25  O   UNL     1       5.456  17.412  18.589  0.00  0.00    +0.000 OA
BRANCH  25  26
ATOM     26  C   UNL     1       4.339  16.643  18.171  0.00  0.00    +0.000 C 
BRANCH  26  27
ATOM     27  C   UNL     1       3.243  16.767  19.208  0.00  0.00    +0.000 C 
BRANCH  27  28
ATOM     28  O   UNL     1       3.046  15.482  19.770  0.00  0.00    +0.000 OA
BRANCH  28  29
ATOM     29  S   UNL     1       1.957  14.515  19.055  0.00  0.00    +0.000 S 
ATOM     30  C   UNL     1       1.721  13.418  20.428  0.00  0.00    +0.000 C 
ATOM     31  O   UNL     1       0.741  15.272  18.844  0.00  0.00    +0.000 OA
ATOM     32  O   UNL     1       2.615  13.796  17.986  0.00  0.00    +0.000 OA
ENDBRANCH  28  29
ENDBRANCH  27  28
ENDBRANCH  26  27
ENDBRANCH  25  26
ENDBRANCH  22  25
ENDBRANCH   4  19
BRANCH   9  33
ATOM     33  O   UNL     1      11.050  14.102  15.835  0.00  0.00    +0.000 OA
ATOM     34  H   UNL     1      11.772  13.507  15.567  0.00  0.00    +0.000 HD
ENDBRANCH   9  33
BRANCH  18  35
ATOM     35  O   UNL     1       7.532  14.181  26.254  0.00  0.00    +0.000 OA
ATOM     36  H   UNL     1       8.110  14.933  26.466  0.00  0.00    +0.000 HD
ENDBRANCH  18  35
TORSDOF 8
ENDMDL
MODEL 8
REMARK VINA RESULT:      -6.4      5.961     10.498
REMARK  Name = 
REMARK  10 active torsions:
REMARK  status: ('A' for Active; 'I' for Inactive)
REMARK    1  A    between atoms: C_1  and  C_2
REMARK    2  A    between atoms: C_4  and  C_5
REMARK    3  A    between atoms: C_8  and  O_9
REMARK    4  A    between atoms: O_9  and  C_10
REMARK    5  A    between atoms: C_10  and  C_11
REMARK    6  A    between atoms: C_11  and  O_12
REMARK    7  A    between atoms: O_12  and  S_13
REMARK    8  A    between atoms: S_13  and  C_14
REMARK    9  A    between atoms: C_23  and  O_24
REMARK   10  A    between atoms: C_33  and  O_34
REMARK                            x       y       z     vdW  Elec       q    Type
REMARK                         _______ _______ _______ _____ _____    ______ ____
ROOT
ATOM      1  C   UNL     1       1.819  13.873  17.752  0.00  0.00    +0.000 C 
ATOM      2  C   UNL     1       2.425  14.287  19.122  0.00  0.00    +0.000 C 
ATOM      3  C   UNL     1       2.538  13.051  20.030  0.00  0.00    +0.000 C 
ATOM      4  C   UNL     1       1.168  12.607  20.666  0.00  0.00    +0.000 C 
ATOM      5  C   UNL     1       0.519  13.797  21.448  0.00  0.00    +0.000 C 
ATOM      6  C   UNL     1      -0.771  13.440  22.202  0.00  0.00    +0.000 A 
ATOM      7  C   UNL     1      -0.965  12.147  22.734  0.00  0.00    +0.000 A 
ATOM      8  C   UNL     1      -2.205  11.746  23.235  0.00  0.00    +0.000 A 
ATOM      9  C   UNL     1      -3.249  12.654  23.257  0.00  0.00    +0.000 A 
ATOM     10  C   UNL     1      -3.062  13.961  22.822  0.00  0.00    +0.000 A 
ATOM     11  C   UNL     1      -1.821  14.377  22.304  0.00  0.00    +0.000 A 
ATOM     12  C   UNL     1      -1.689  15.777  21.770  0.00  0.00    +0.000 C 
ATOM     13  C   UNL     1      -0.269  16.169  21.352  0.00  0.00    +0.000 C 
ATOM     14  C   UNL     1       0.363  15.053  20.516  0.00  0.00    +0.000 C 
ATOM     15  C   UNL     1       1.722  15.419  19.924  0.00  0.00    +0.000 C 
ATOM     16  C   UNL     1       1.835  16.621  18.987  0.00  0.00    +0.000 C 
ATOM     17  C   UNL     1       3.220  16.436  18.330  0.00  0.00    +0.000 C 
ATOM     18  C   UNL     1       3.737  15.064  18.829  0.00  0.00    +0.000 C 
ENDROOT
BRANCH   4  19
ATOM     19  C   UNL     1       0.223  11.885  19.696  0.00  0.00    +0.000 A 
ATOM     20  C   UNL     1       0.488  10.555  19.350  0.00  0.00    +0.000 A 
ATOM     21  C   UNL     1      -0.282   9.907  18.377  0.00  0.00    +0.000 A 
ATOM     22  C   UNL     1      -1.330  10.564  17.742  0.00  0.00    +0.000 A 
ATOM     23  C   UNL     1      -1.652  11.856  18.120  0.00  0.00    +0.000 A 
ATOM     24  C   UNL     1      -0.897  12.494  19.097  0.00  0.00    +0.000 A 
BRANCH  22  25
ATOM     25  O   UNL     1      -2.114  10.076  16.737  0.00  0.00    +0.000 OA
BRANCH  25  26
ATOM     26  C   UNL     1      -2.976  11.029  16.137  0.00  0.00    +0.000 C 
BRANCH  26  27
ATOM     27  C   UNL     1      -4.385  10.800  16.641  0.00  0.00    +0.000 C 
BRANCH  27  28
ATOM     28  O   UNL     1      -4.983  12.072  16.818  0.00  0.00    +0.000 OA
BRANCH  28  29
ATOM     29  S   UNL     1      -6.131  12.204  17.957  0.00  0.00    +0.000 S 
ATOM     30  C   UNL     1      -5.033  12.421  19.333  0.00  0.00    +0.000 C 
ATOM     31  O   UNL     1      -6.857  13.437  17.736  0.00  0.00    +0.000 OA
ATOM     32  O   UNL     1      -6.798  10.926  18.083  0.00  0.00    +0.000 OA
ENDBRANCH  28  29
ENDBRANCH  27  28
ENDBRANCH  26  27
ENDBRANCH  25  26
ENDBRANCH  22  25
ENDBRANCH   4  19
BRANCH   9  33
ATOM     33  O   UNL     1      -4.491  12.295  23.691  0.00  0.00    +0.000 OA
ATOM     34  H   UNL     1      -4.821  11.583  23.115  0.00  0.00    +0.000 HD
ENDBRANCH   9  33
BRANCH  18  35
ATOM     35  O   UNL     1       4.616  14.441  17.912  0.00  0.00    +0.000 OA
ATOM     36  H   UNL     1       4.786  13.532  18.209  0.00  0.00    +0.000 HD
ENDBRANCH  18  35
TORSDOF 8
ENDMDL
MODEL 9
REMARK VINA RESULT:      -6.3      6.163      9.975
REMARK  Name = 
REMARK  10 active torsions:
REMARK  status: ('A' for Active; 'I' for Inactive)
REMARK    1  A    between atoms: C_1  and  C_2
REMARK    2  A    between atoms: C_4  and  C_5
REMARK    3  A    between atoms: C_8  and  O_9
REMARK    4  A    between atoms: O_9  and  C_10
REMARK    5  A    between atoms: C_10  and  C_11
REMARK    6  A    between atoms: C_11  and  O_12
REMARK    7  A    between atoms: O_12  and  S_13
REMARK    8  A    between atoms: S_13  and  C_14
REMARK    9  A    between atoms: C_23  and  O_24
REMARK   10  A    between atoms: C_33  and  O_34
REMARK                            x       y       z     vdW  Elec       q    Type
REMARK                         _______ _______ _______ _____ _____    ______ ____
ROOT
ATOM      1  C   UNL     1      -2.231  11.634  23.182  0.00  0.00    +0.000 C 
ATOM      2  C   UNL     1      -2.652  12.978  22.526  0.00  0.00    +0.000 C 
ATOM      3  C   UNL     1      -2.784  12.789  21.005  0.00  0.00    +0.000 C 
ATOM      4  C   UNL     1      -1.402  12.748  20.251  0.00  0.00    +0.000 C 
ATOM      5  C   UNL     1      -0.569  14.034  20.569  0.00  0.00    +0.000 C 
ATOM      6  C   UNL     1       0.754  14.147  19.795  0.00  0.00    +0.000 A 
ATOM      7  C   UNL     1       0.882  13.609  18.497  0.00  0.00    +0.000 A 
ATOM      8  C   UNL     1       2.125  13.519  17.868  0.00  0.00    +0.000 A 
ATOM      9  C   UNL     1       3.245  14.014  18.511  0.00  0.00    +0.000 A 
ATOM     10  C   UNL     1       3.135  14.631  19.753  0.00  0.00    +0.000 A 
ATOM     11  C   UNL     1       1.890  14.720  20.405  0.00  0.00    +0.000 A 
ATOM     12  C   UNL     1       1.834  15.321  21.783  0.00  0.00    +0.000 C 
ATOM     13  C   UNL     1       0.420  15.489  22.347  0.00  0.00    +0.000 C 
ATOM     14  C   UNL     1      -0.395  14.213  22.120  0.00  0.00    +0.000 C 
ATOM     15  C   UNL     1      -1.768  14.231  22.787  0.00  0.00    +0.000 C 
ATOM     16  C   UNL     1      -1.867  14.407  24.303  0.00  0.00    +0.000 C 
ATOM     17  C   UNL     1      -3.324  14.003  24.617  0.00  0.00    +0.000 C 
ATOM     18  C   UNL     1      -3.910  13.485  23.281  0.00  0.00    +0.000 C 
ENDROOT
BRANCH   4  19
ATOM     19  C   UNL     1      -0.633  11.430  20.411  0.00  0.00    +0.000 A 
ATOM     20  C   UNL     1       0.208  11.262  21.516  0.00  0.00    +0.000 A 
ATOM     21  C   UNL     1       1.017  10.123  21.629  0.00  0.00    +0.000 A 
ATOM     22  C   UNL     1       0.994   9.133  20.653  0.00  0.00    +0.000 A 
ATOM     23  C   UNL     1       0.118   9.248  19.587  0.00  0.00    +0.000 A 
ATOM     24  C   UNL     1      -0.694  10.371  19.483  0.00  0.00    +0.000 A 
BRANCH  22  25
ATOM     25  O   UNL     1       1.771   8.013  20.605  0.00  0.00    +0.000 OA
BRANCH  25  26
ATOM     26  C   UNL     1       2.133   7.594  19.299  0.00  0.00    +0.000 C 
BRANCH  26  27
ATOM     27  C   UNL     1       2.948   6.322  19.402  0.00  0.00    +0.000 C 
BRANCH  27  28
ATOM     28  O   UNL     1       2.048   5.233  19.303  0.00  0.00    +0.000 OA
BRANCH  28  29
ATOM     29  S   UNL     1       2.232   4.225  18.045  0.00  0.00    +0.000 S 
ATOM     30  C   UNL     1       2.203   2.719  18.981  0.00  0.00    +0.000 C 
ATOM     31  O   UNL     1       1.039   4.292  17.226  0.00  0.00    +0.000 OA
ATOM     32  O   UNL     1       3.557   4.414  17.498  0.00  0.00    +0.000 OA
ENDBRANCH  28  29
ENDBRANCH  27  28
ENDBRANCH  26  27
ENDBRANCH  25  26
ENDBRANCH  22  25
ENDBRANCH   4  19
BRANCH   9  33
ATOM     33  O   UNL     1       4.487  13.904  17.959  0.00  0.00    +0.000 OA
ATOM     34  H   UNL     1       4.927  13.130  18.350  0.00  0.00    +0.000 HD
ENDBRANCH   9  33
BRANCH  18  35
ATOM     35  O   UNL     1      -4.932  12.524  23.464  0.00  0.00    +0.000 OA
ATOM     36  H   UNL     1      -5.641  12.694  22.822  0.00  0.00    +0.000 HD
ENDBRANCH  18  35
TORSDOF 8
ENDMDL
