MODEL 1
REMARK VINA RESULT:      -6.8      0.000      0.000
REMARK  Name = 
REMARK  6 active torsions:
REMARK  status: ('A' for Active; 'I' for Inactive)
REMARK    1  A    between atoms: C_1  and  N_2
REMARK    2  A    between atoms: C_6  and  S_7
REMARK    3  A    between atoms: S_7  and  C_8
REMARK    4  A    between atoms: C_8  and  C_9
REMARK    5  A    between atoms: C_18  and  C_19
REMARK    6  A    between atoms: N_28  and  C_29
REMARK                            x       y       z     vdW  Elec       q    Type
REMARK                         _______ _______ _______ _____ _____    ______ ____
ROOT
ATOM      1  C   UNL     1      -4.298  15.476  24.467  0.00  0.00    +0.000 C 
ATOM      2  N   UNL     1      -4.204  14.675  23.258  0.00  0.00    +0.000 N 
ATOM      3  C   UNL     1      -3.037  14.749  22.509  0.00  0.00    +0.000 A 
ATOM      4  O   UNL     1      -2.094  15.447  22.866  0.00  0.00    +0.000 OA
ATOM      5  C   UNL     1      -2.970  13.936  21.282  0.00  0.00    +0.000 A 
ATOM      6  C   UNL     1      -1.889  13.887  20.401  0.00  0.00    +0.000 A 
ATOM      7  N   UNL     1      -1.882  13.082  19.313  0.00  0.00    +0.000 NA
ATOM      8  C   UNL     1      -2.985  12.360  19.065  0.00  0.00    +0.000 A 
ATOM      9  N   UNL     1      -4.058  12.340  19.874  0.00  0.00    +0.000 NA
ATOM     10  C   UNL     1      -4.048  13.130  20.971  0.00  0.00    +0.000 A 
ATOM     11  N   UNL     1      -5.181  13.091  21.821  0.00  0.00    +0.000 N 
ATOM     12  C   UNL     1      -6.307  12.229  21.504  0.00  0.00    +0.000 C 
ATOM     13  C   UNL     1      -5.280  13.858  22.967  0.00  0.00    +0.000 A 
ATOM     14  O   UNL     1      -6.275  13.808  23.695  0.00  0.00    +0.000 OA
ENDROOT
BRANCH   8  15
ATOM     15  C   UNL     1      -3.021  11.482  17.873  0.00  0.00    +0.000 A 
ATOM     16  C   UNL     1      -1.953  10.578  17.642  0.00  0.00    +0.000 A 
ATOM     17  C   UNL     1      -1.928   9.717  16.535  0.00  0.00    +0.000 A 
ATOM     18  C   UNL     1      -2.974   9.728  15.626  0.00  0.00    +0.000 A 
ATOM     19  C   UNL     1      -4.042  10.597  15.824  0.00  0.00    +0.000 A 
ATOM     20  C   UNL     1      -4.069  11.463  16.932  0.00  0.00    +0.000 A 
ATOM     21 CL   UNL     1      -5.495  12.437  17.056  0.00  0.00    +0.000 Cl
ENDBRANCH   8  15
BRANCH   6  22
ATOM     22  S   UNL     1      -0.343  14.757  20.689  0.00  0.00    +0.000 S 
BRANCH  22  23
ATOM     23  C   UNL     1       0.706  13.542  21.549  0.00  0.00    +0.000 C 
BRANCH  23  24
ATOM     24  C   UNL     1       0.932  12.232  20.798  0.00  0.00    +0.000 C 
ATOM     25  O   UNL     1       1.665  12.154  19.813  0.00  0.00    +0.000 OA
ATOM     26  N   UNL     1       0.265  11.107  21.287  0.00  0.00    +0.000 N 
ATOM     27  C   UNL     1      -0.637  11.049  22.445  0.00  0.00    +0.000 C 
ATOM     28  C   UNL     1      -0.441   9.739  23.227  0.00  0.00    +0.000 C 
ATOM     29  O   UNL     1      -0.534   8.587  22.373  0.00  0.00    +0.000 OA
ATOM     30  C   UNL     1       0.448   8.652  21.325  0.00  0.00    +0.000 C 
ATOM     31  C   UNL     1       0.237   9.897  20.465  0.00  0.00    +0.000 C 
ENDBRANCH  23  24
ENDBRANCH  22  23
ENDBRANCH   6  22
TORSDOF 4
ENDMDL
MODEL 2
REMARK VINA RESULT:      -6.3      3.314      6.529
REMARK  Name = 
REMARK  6 active torsions:
REMARK  status: ('A' for Active; 'I' for Inactive)
REMARK    1  A    between atoms: C_1  and  N_2
REMARK    2  A    between atoms: C_6  and  S_7
REMARK    3  A    between atoms: S_7  and  C_8
REMARK    4  A    between atoms: C_8  and  C_9
REMARK    5  A    between atoms: C_18  and  C_19
REMARK    6  A    between atoms: N_28  and  C_29
REMARK                            x       y       z     vdW  Elec       q    Type
REMARK                         _______ _______ _______ _____ _____    ______ ____
ROOT
ATOM      1  C   UNL     1      -2.684   9.932  15.869  0.00  0.00    +0.000 C 
ATOM      2  N   UNL     1      -2.779  10.637  17.136  0.00  0.00    +0.000 N 
ATOM      3  C   UNL     1      -1.655  10.680  17.951  0.00  0.00    +0.000 A 
ATOM      4  O   UNL     1      -0.597  10.165  17.604  0.00  0.00    +0.000 OA
ATOM      5  C   UNL     1      -1.779  11.391  19.234  0.00  0.00    +0.000 A 
ATOM      6  C   UNL     1      -0.766  11.531  20.183  0.00  0.00    +0.000 A 
ATOM      7  N   UNL     1      -0.940  12.237  21.326  0.00  0.00    +0.000 NA
ATOM      8  C   UNL     1      -2.153  12.760  21.556  0.00  0.00    +0.000 A 
ATOM      9  N   UNL     1      -3.174  12.683  20.683  0.00  0.00    +0.000 NA
ATOM     10  C   UNL     1      -2.984  11.996  19.535  0.00  0.00    +0.000 A 
ATOM     11  N   UNL     1      -4.064  11.931  18.620  0.00  0.00    +0.000 N 
ATOM     12  C   UNL     1      -5.326  12.584  18.927  0.00  0.00    +0.000 C 
ATOM     13  C   UNL     1      -3.983  11.254  17.417  0.00  0.00    +0.000 A 
ATOM     14  O   UNL     1      -4.935  11.212  16.633  0.00  0.00    +0.000 OA
ENDROOT
BRANCH   8  15
ATOM     15  C   UNL     1      -2.387  13.522  22.803  0.00  0.00    +0.000 A 
ATOM     16  C   UNL     1      -3.368  13.070  23.722  0.00  0.00    +0.000 A 
ATOM     17  C   UNL     1      -3.637  13.742  24.922  0.00  0.00    +0.000 A 
ATOM     18  C   UNL     1      -2.927  14.889  25.246  0.00  0.00    +0.000 A 
ATOM     19  C   UNL     1      -1.953  15.359  24.372  0.00  0.00    +0.000 A 
ATOM     20  C   UNL     1      -1.683  14.687  23.167  0.00  0.00    +0.000 A 
ATOM     21 CL   UNL     1      -0.404  15.375  22.223  0.00  0.00    +0.000 Cl
ENDBRANCH   8  15
BRANCH   6  22
ATOM     22  S   UNL     1       0.910  10.932  19.931  0.00  0.00    +0.000 S 
BRANCH  22  23
ATOM     23  C   UNL     1       1.780  12.334  19.160  0.00  0.00    +0.000 C 
BRANCH  23  24
ATOM     24  C   UNL     1       2.284  13.400  20.130  0.00  0.00    +0.000 C 
ATOM     25  O   UNL     1       2.408  13.189  21.336  0.00  0.00    +0.000 OA
ATOM     26  N   UNL     1       2.609  14.642  19.582  0.00  0.00    +0.000 N 
ATOM     27  C   UNL     1       2.512  15.037  18.170  0.00  0.00    +0.000 C 
ATOM     28  C   UNL     1       3.691  15.941  17.773  0.00  0.00    +0.000 C 
ATOM     29  O   UNL     1       3.836  17.056  18.668  0.00  0.00    +0.000 OA
ATOM     30  C   UNL     1       4.037  16.600  20.016  0.00  0.00    +0.000 C 
ATOM     31  C   UNL     1       2.845  15.767  20.487  0.00  0.00    +0.000 C 
ENDBRANCH  23  24
ENDBRANCH  22  23
ENDBRANCH   6  22
TORSDOF 4
ENDMDL
MODEL 3
REMARK VINA RESULT:      -6.3      3.274      6.694
REMARK  Name = 
REMARK  6 active torsions:
REMARK  status: ('A' for Active; 'I' for Inactive)
REMARK    1  A    between atoms: C_1  and  N_2
REMARK    2  A    between atoms: C_6  and  S_7
REMARK    3  A    between atoms: S_7  and  C_8
REMARK    4  A    between atoms: C_8  and  C_9
REMARK    5  A    between atoms: C_18  and  C_19
REMARK    6  A    between atoms: N_28  and  C_29
REMARK                            x       y       z     vdW  Elec       q    Type
REMARK                         _______ _______ _______ _____ _____    ______ ____
ROOT
ATOM      1  C   UNL     1      -0.220   9.254  22.604  0.00  0.00    +0.000 C 
ATOM      2  N   UNL     1      -0.045  10.444  21.789  0.00  0.00    +0.000 N 
ATOM      3  C   UNL     1      -0.585  11.639  22.247  0.00  0.00    +0.000 A 
ATOM      4  O   UNL     1      -1.168  11.704  23.324  0.00  0.00    +0.000 OA
ATOM      5  C   UNL     1      -0.405  12.829  21.398  0.00  0.00    +0.000 A 
ATOM      6  C   UNL     1      -0.881  14.109  21.686  0.00  0.00    +0.000 A 
ATOM      7  N   UNL     1      -0.640  15.167  20.877  0.00  0.00    +0.000 NA
ATOM      8  C   UNL     1       0.032  14.941  19.738  0.00  0.00    +0.000 A 
ATOM      9  N   UNL     1       0.537  13.742  19.399  0.00  0.00    +0.000 NA
ATOM     10  C   UNL     1       0.312  12.696  20.224  0.00  0.00    +0.000 A 
ATOM     11  N   UNL     1       0.858  11.440  19.861  0.00  0.00    +0.000 N 
ATOM     12  C   UNL     1       1.628  11.302  18.635  0.00  0.00    +0.000 C 
ATOM     13  C   UNL     1       0.688  10.302  20.626  0.00  0.00    +0.000 A 
ATOM     14  O   UNL     1       1.175   9.218  20.292  0.00  0.00    +0.000 OA
ENDROOT
BRANCH   8  15
ATOM     15  C   UNL     1       0.298  16.070  18.819  0.00  0.00    +0.000 A 
ATOM     16  C   UNL     1      -0.788  16.842  18.332  0.00  0.00    +0.000 A 
ATOM     17  C   UNL     1      -0.605  17.926  17.462  0.00  0.00    +0.000 A 
ATOM     18  C   UNL     1       0.673  18.278  17.055  0.00  0.00    +0.000 A 
ATOM     19  C   UNL     1       1.763  17.548  17.517  0.00  0.00    +0.000 A 
ATOM     20  C   UNL     1       1.582  16.459  18.388  0.00  0.00    +0.000 A 
ATOM     21 CL   UNL     1       3.046  15.696  18.910  0.00  0.00    +0.000 Cl
ENDBRANCH   8  15
BRANCH   6  22
ATOM     22  S   UNL     1      -1.722  14.525  23.219  0.00  0.00    +0.000 S 
BRANCH  22  23
ATOM     23  C   UNL     1      -3.460  14.768  22.729  0.00  0.00    +0.000 C 
BRANCH  23  24
ATOM     24  C   UNL     1      -4.255  13.486  22.497  0.00  0.00    +0.000 C 
ATOM     25  O   UNL     1      -4.002  12.437  23.087  0.00  0.00    +0.000 OA
ATOM     26  N   UNL     1      -5.301  13.556  21.575  0.00  0.00    +0.000 N 
ATOM     27  C   UNL     1      -5.717  14.732  20.799  0.00  0.00    +0.000 C 
ATOM     28  C   UNL     1      -7.248  14.791  20.671  0.00  0.00    +0.000 C 
ATOM     29  O   UNL     1      -7.791  13.557  20.172  0.00  0.00    +0.000 OA
ATOM     30  C   UNL     1      -7.441  12.463  21.036  0.00  0.00    +0.000 C 
ATOM     31  C   UNL     1      -5.923  12.311  21.124  0.00  0.00    +0.000 C 
ENDBRANCH  23  24
ENDBRANCH  22  23
ENDBRANCH   6  22
TORSDOF 4
ENDMDL
MODEL 4
REMARK VINA RESULT:      -6.3      3.283      6.514
REMARK  Name = 
REMARK  6 active torsions:
REMARK  status: ('A' for Active; 'I' for Inactive)
REMARK    1  A    between atoms: C_1  and  N_2
REMARK    2  A    between atoms: C_6  and  S_7
REMARK    3  A    between atoms: S_7  and  C_8
REMARK    4  A    between atoms: C_8  and  C_9
REMARK    5  A    between atoms: C_18  and  C_19
REMARK    6  A    between atoms: N_28  and  C_29
REMARK                            x       y       z     vdW  Elec       q    Type
REMARK                         _______ _______ _______ _____ _____    ______ ____
ROOT
ATOM      1  C   UNL     1      -2.539   9.818  16.515  0.00  0.00    +0.000 C 
ATOM      2  N   UNL     1      -2.669  10.677  17.680  0.00  0.00    +0.000 N 
ATOM      3  C   UNL     1      -1.558  10.850  18.497  0.00  0.00    +0.000 A 
ATOM      4  O   UNL     1      -0.484  10.320  18.232  0.00  0.00    +0.000 OA
ATOM      5  C   UNL     1      -1.717  11.716  19.677  0.00  0.00    +0.000 A 
ATOM      6  C   UNL     1      -0.722  12.000  20.613  0.00  0.00    +0.000 A 
ATOM      7  N   UNL     1      -0.929  12.842  21.653  0.00  0.00    +0.000 NA
ATOM      8  C   UNL     1      -2.157  13.361  21.799  0.00  0.00    +0.000 A 
ATOM      9  N   UNL     1      -3.162  13.149  20.931  0.00  0.00    +0.000 NA
ATOM     10  C   UNL     1      -2.939  12.326  19.883  0.00  0.00    +0.000 A 
ATOM     11  N   UNL     1      -4.004  12.119  18.971  0.00  0.00    +0.000 N 
ATOM     12  C   UNL     1      -5.285  12.775  19.176  0.00  0.00    +0.000 C 
ATOM     13  C   UNL     1      -3.890  11.296  17.866  0.00  0.00    +0.000 A 
ATOM     14  O   UNL     1      -4.829  11.131  17.082  0.00  0.00    +0.000 OA
ENDROOT
BRANCH   8  15
ATOM     15  C   UNL     1      -2.427  14.271  22.936  0.00  0.00    +0.000 A 
ATOM     16  C   UNL     1      -1.947  15.604  22.889  0.00  0.00    +0.000 A 
ATOM     17  C   UNL     1      -2.171  16.517  23.929  0.00  0.00    +0.000 A 
ATOM     18  C   UNL     1      -2.888  16.127  25.050  0.00  0.00    +0.000 A 
ATOM     19  C   UNL     1      -3.379  14.828  25.128  0.00  0.00    +0.000 A 
ATOM     20  C   UNL     1      -3.155  13.910  24.087  0.00  0.00    +0.000 A 
ATOM     21 CL   UNL     1      -3.882  12.356  24.320  0.00  0.00    +0.000 Cl
ENDBRANCH   8  15
BRANCH   6  22
ATOM     22  S   UNL     1       0.970  11.414  20.460  0.00  0.00    +0.000 S 
BRANCH  22  23
ATOM     23  C   UNL     1       1.977  12.932  20.463  0.00  0.00    +0.000 C 
BRANCH  23  24
ATOM     24  C   UNL     1       2.329  13.482  19.083  0.00  0.00    +0.000 C 
ATOM     25  O   UNL     1       2.227  12.807  18.059  0.00  0.00    +0.000 OA
ATOM     26  N   UNL     1       2.773  14.804  19.030  0.00  0.00    +0.000 N 
ATOM     27  C   UNL     1       2.945  15.724  20.163  0.00  0.00    +0.000 C 
ATOM     28  C   UNL     1       2.528  17.153  19.775  0.00  0.00    +0.000 C 
ATOM     29  O   UNL     1       3.185  17.596  18.577  0.00  0.00    +0.000 OA
ATOM     30  C   UNL     1       2.888  16.714  17.481  0.00  0.00    +0.000 C 
ATOM     31  C   UNL     1       3.366  15.295  17.786  0.00  0.00    +0.000 C 
ENDBRANCH  23  24
ENDBRANCH  22  23
ENDBRANCH   6  22
TORSDOF 4
ENDMDL
MODEL 5
REMARK VINA RESULT:      -6.2      3.370      6.505
REMARK  Name = 
REMARK  6 active torsions:
REMARK  status: ('A' for Active; 'I' for Inactive)
REMARK    1  A    between atoms: C_1  and  N_2
REMARK    2  A    between atoms: C_6  and  S_7
REMARK    3  A    between atoms: S_7  and  C_8
REMARK    4  A    between atoms: C_8  and  C_9
REMARK    5  A    between atoms: C_18  and  C_19
REMARK    6  A    between atoms: N_28  and  C_29
REMARK                            x       y       z     vdW  Elec       q    Type
REMARK                         _______ _______ _______ _____ _____    ______ ____
ROOT
ATOM      1  C   UNL     1      -2.763  10.039  15.902  0.00  0.00    +0.000 C 
ATOM      2  N   UNL     1      -2.840  10.729  17.178  0.00  0.00    +0.000 N 
ATOM      3  C   UNL     1      -1.697  10.785  17.965  0.00  0.00    +0.000 A 
ATOM      4  O   UNL     1      -0.638  10.294  17.587  0.00  0.00    +0.000 OA
ATOM      5  C   UNL     1      -1.802  11.480  19.259  0.00  0.00    +0.000 A 
ATOM      6  C   UNL     1      -0.769  11.630  20.184  0.00  0.00    +0.000 A 
ATOM      7  N   UNL     1      -0.928  12.321  21.338  0.00  0.00    +0.000 NA
ATOM      8  C   UNL     1      -2.145  12.818  21.604  0.00  0.00    +0.000 A 
ATOM      9  N   UNL     1      -3.185  12.730  20.756  0.00  0.00    +0.000 NA
ATOM     10  C   UNL     1      -3.010  12.059  19.596  0.00  0.00    +0.000 A 
ATOM     11  N   UNL     1      -4.111  11.983  18.707  0.00  0.00    +0.000 N 
ATOM     12  C   UNL     1      -5.378  12.607  19.052  0.00  0.00    +0.000 C 
ATOM     13  C   UNL     1      -4.048  11.320  17.496  0.00  0.00    +0.000 A 
ATOM     14  O   UNL     1      -5.018  11.267  16.735  0.00  0.00    +0.000 OA
ENDROOT
BRANCH   8  15
ATOM     15  C   UNL     1      -2.362  13.563  22.865  0.00  0.00    +0.000 A 
ATOM     16  C   UNL     1      -3.450  13.209  23.703  0.00  0.00    +0.000 A 
ATOM     17  C   UNL     1      -3.710  13.871  24.911  0.00  0.00    +0.000 A 
ATOM     18  C   UNL     1      -2.885  14.906  25.324  0.00  0.00    +0.000 A 
ATOM     19  C   UNL     1      -1.804  15.276  24.531  0.00  0.00    +0.000 A 
ATOM     20  C   UNL     1      -1.542  14.615  23.317  0.00  0.00    +0.000 A 
ATOM     21 CL   UNL     1      -0.128  15.164  22.482  0.00  0.00    +0.000 Cl
ENDBRANCH   8  15
BRANCH   6  22
ATOM     22  S   UNL     1       0.912  11.067  19.885  0.00  0.00    +0.000 S 
BRANCH  22  23
ATOM     23  C   UNL     1       1.940  12.546  20.154  0.00  0.00    +0.000 C 
BRANCH  23  24
ATOM     24  C   UNL     1       2.517  13.176  18.889  0.00  0.00    +0.000 C 
ATOM     25  O   UNL     1       2.679  12.538  17.850  0.00  0.00    +0.000 OA
ATOM     26  N   UNL     1       2.853  14.529  18.961  0.00  0.00    +0.000 N 
ATOM     27  C   UNL     1       2.717  15.413  20.127  0.00  0.00    +0.000 C 
ATOM     28  C   UNL     1       2.270  16.820  19.698  0.00  0.00    +0.000 C 
ATOM     29  O   UNL     1       3.117  17.360  18.670  0.00  0.00    +0.000 OA
ATOM     30  C   UNL     1       3.121  16.504  17.515  0.00  0.00    +0.000 C 
ATOM     31  C   UNL     1       3.642  15.114  17.877  0.00  0.00    +0.000 C 
ENDBRANCH  23  24
ENDBRANCH  22  23
ENDBRANCH   6  22
TORSDOF 4
ENDMDL
MODEL 6
REMARK VINA RESULT:      -6.2      2.995      6.362
REMARK  Name = 
REMARK  6 active torsions:
REMARK  status: ('A' for Active; 'I' for Inactive)
REMARK    1  A    between atoms: C_1  and  N_2
REMARK    2  A    between atoms: C_6  and  S_7
REMARK    3  A    between atoms: S_7  and  C_8
REMARK    4  A    between atoms: C_8  and  C_9
REMARK    5  A    between atoms: C_18  and  C_19
REMARK    6  A    between atoms: N_28  and  C_29
REMARK                            x       y       z     vdW  Elec       q    Type
REMARK                         _______ _______ _______ _____ _____    ______ ____
ROOT
ATOM      1  C   UNL     1      -3.039   9.942  16.417  0.00  0.00    +0.000 C 
ATOM      2  N   UNL     1      -3.053  10.765  17.615  0.00  0.00    +0.000 N 
ATOM      3  C   UNL     1      -1.875  10.889  18.341  0.00  0.00    +0.000 A 
ATOM      4  O   UNL     1      -0.838  10.348  17.971  0.00  0.00    +0.000 OA
ATOM      5  C   UNL     1      -1.917  11.719  19.557  0.00  0.00    +0.000 A 
ATOM      6  C   UNL     1      -0.842  11.953  20.414  0.00  0.00    +0.000 A 
ATOM      7  N   UNL     1      -0.945  12.765  21.494  0.00  0.00    +0.000 NA
ATOM      8  C   UNL     1      -2.144  13.302  21.758  0.00  0.00    +0.000 A 
ATOM      9  N   UNL     1      -3.222  13.137  20.971  0.00  0.00    +0.000 NA
ATOM     10  C   UNL     1      -3.105  12.345  19.882  0.00  0.00    +0.000 A 
ATOM     11  N   UNL     1      -4.245  12.189  19.056  0.00  0.00    +0.000 N 
ATOM     12  C   UNL     1      -5.490  12.862  19.388  0.00  0.00    +0.000 C 
ATOM     13  C   UNL     1      -4.241  11.400  17.920  0.00  0.00    +0.000 A 
ATOM     14  O   UNL     1      -5.245  11.279  17.213  0.00  0.00    +0.000 OA
ENDROOT
BRANCH   8  15
ATOM     15  C   UNL     1      -2.299  14.179  22.941  0.00  0.00    +0.000 A 
ATOM     16  C   UNL     1      -1.696  15.462  22.940  0.00  0.00    +0.000 A 
ATOM     17  C   UNL     1      -1.807  16.342  24.025  0.00  0.00    +0.000 A 
ATOM     18  C   UNL     1      -2.532  15.969  25.147  0.00  0.00    +0.000 A 
ATOM     19  C   UNL     1      -3.142  14.720  25.181  0.00  0.00    +0.000 A 
ATOM     20  C   UNL     1      -3.031  13.835  24.095  0.00  0.00    +0.000 A 
ATOM     21 CL   UNL     1      -3.897  12.346  24.279  0.00  0.00    +0.000 Cl
ENDBRANCH   8  15
BRANCH   6  22
ATOM     22  S   UNL     1       0.819  11.341  20.103  0.00  0.00    +0.000 S 
BRANCH  22  23
ATOM     23  C   UNL     1       1.596  12.637  19.088  0.00  0.00    +0.000 C 
BRANCH  23  24
ATOM     24  C   UNL     1       2.092  13.857  19.860  0.00  0.00    +0.000 C 
ATOM     25  O   UNL     1       3.135  13.847  20.511  0.00  0.00    +0.000 OA
ATOM     26  N   UNL     1       1.301  15.006  19.790  0.00  0.00    +0.000 N 
ATOM     27  C   UNL     1       0.037  15.165  19.057  0.00  0.00    +0.000 C 
ATOM     28  C   UNL     1      -0.056  16.564  18.425  0.00  0.00    +0.000 C 
ATOM     29  O   UNL     1       0.180  17.604  19.388  0.00  0.00    +0.000 OA
ATOM     30  C   UNL     1       1.476  17.454  19.989  0.00  0.00    +0.000 C 
ATOM     31  C   UNL     1       1.585  16.109  20.708  0.00  0.00    +0.000 C 
ENDBRANCH  23  24
ENDBRANCH  22  23
ENDBRANCH   6  22
TORSDOF 4
ENDMDL
MODEL 7
REMARK VINA RESULT:      -6.2      7.523     10.676
REMARK  Name = 
REMARK  6 active torsions:
REMARK  status: ('A' for Active; 'I' for Inactive)
REMARK    1  A    between atoms: C_1  and  N_2
REMARK    2  A    between atoms: C_6  and  S_7
REMARK    3  A    between atoms: S_7  and  C_8
REMARK    4  A    between atoms: C_8  and  C_9
REMARK    5  A    between atoms: C_18  and  C_19
REMARK    6  A    between atoms: N_28  and  C_29
REMARK                            x       y       z     vdW  Elec       q    Type
REMARK                         _______ _______ _______ _____ _____    ______ ____
ROOT
ATOM      1  C   UNL     1       1.966   4.011  21.520  0.00  0.00    +0.000 C 
ATOM      2  N   UNL     1       2.633   3.921  20.232  0.00  0.00    +0.000 N 
ATOM      3  C   UNL     1       2.979   5.102  19.588  0.00  0.00    +0.000 A 
ATOM      4  O   UNL     1       2.758   6.195  20.098  0.00  0.00    +0.000 OA
ATOM      5  C   UNL     1       3.643   4.985  18.279  0.00  0.00    +0.000 A 
ATOM      6  C   UNL     1       4.055   6.054  17.482  0.00  0.00    +0.000 A 
ATOM      7  N   UNL     1       4.701   5.870  16.306  0.00  0.00    +0.000 NA
ATOM      8  C   UNL     1       4.887   4.610  15.888  0.00  0.00    +0.000 A 
ATOM      9  N   UNL     1       4.535   3.529  16.606  0.00  0.00    +0.000 NA
ATOM     10  C   UNL     1       3.912   3.722  17.790  0.00  0.00    +0.000 A 
ATOM     11  N   UNL     1       3.556   2.575  18.541  0.00  0.00    +0.000 N 
ATOM     12  C   UNL     1       3.855   1.245  18.036  0.00  0.00    +0.000 C 
ATOM     13  C   UNL     1       2.913   2.652  19.762  0.00  0.00    +0.000 A 
ATOM     14  O   UNL     1       2.613   1.640  20.402  0.00  0.00    +0.000 OA
ENDROOT
BRANCH   8  15
ATOM     15  C   UNL     1       5.572   4.370  14.598  0.00  0.00    +0.000 A 
ATOM     16  C   UNL     1       4.894   3.667  13.570  0.00  0.00    +0.000 A 
ATOM     17  C   UNL     1       5.484   3.409  12.324  0.00  0.00    +0.000 A 
ATOM     18  C   UNL     1       6.771   3.853  12.063  0.00  0.00    +0.000 A 
ATOM     19  C   UNL     1       7.465   4.551  13.046  0.00  0.00    +0.000 A 
ATOM     20  C   UNL     1       6.877   4.809  14.297  0.00  0.00    +0.000 A 
ATOM     21 CL   UNL     1       7.856   5.737  15.382  0.00  0.00    +0.000 Cl
ENDBRANCH   8  15
BRANCH   6  22
ATOM     22  S   UNL     1       3.918   7.773  17.991  0.00  0.00    +0.000 S 
BRANCH  22  23
ATOM     23  C   UNL     1       2.148   8.159  17.808  0.00  0.00    +0.000 C 
BRANCH  23  24
ATOM     24  C   UNL     1       1.756   9.594  18.151  0.00  0.00    +0.000 C 
ATOM     25  O   UNL     1       1.883  10.521  17.352  0.00  0.00    +0.000 OA
ATOM     26  N   UNL     1       1.235   9.812  19.427  0.00  0.00    +0.000 N 
ATOM     27  C   UNL     1       1.028   8.809  20.481  0.00  0.00    +0.000 C 
ATOM     28  C   UNL     1      -0.272   9.087  21.253  0.00  0.00    +0.000 C 
ATOM     29  O   UNL     1      -0.330  10.440  21.735  0.00  0.00    +0.000 OA
ATOM     30  C   UNL     1      -0.232  11.371  20.644  0.00  0.00    +0.000 C 
ATOM     31  C   UNL     1       1.089  11.190  19.898  0.00  0.00    +0.000 C 
ENDBRANCH  23  24
ENDBRANCH  22  23
ENDBRANCH   6  22
TORSDOF 4
ENDMDL
MODEL 8
REMARK VINA RESULT:      -6.2      2.728      5.978
REMARK  Name = 
REMARK  6 active torsions:
REMARK  status: ('A' for Active; 'I' for Inactive)
REMARK    1  A    between atoms: C_1  and  N_2
REMARK    2  A    between atoms: C_6  and  S_7
REMARK    3  A    between atoms: S_7  and  C_8
REMARK    4  A    between atoms: C_8  and  C_9
REMARK    5  A    between atoms: C_18  and  C_19
REMARK    6  A    between atoms: N_28  and  C_29
REMARK                            x       y       z     vdW  Elec       q    Type
REMARK                         _______ _______ _______ _____ _____    ______ ____
ROOT
ATOM      1  C   UNL     1       3.806  16.366  22.137  0.00  0.00    +0.000 C 
ATOM      2  N   UNL     1       2.933  15.471  21.396  0.00  0.00    +0.000 N 
ATOM      3  C   UNL     1       1.730  15.094  21.979  0.00  0.00    +0.000 A 
ATOM      4  O   UNL     1       1.391  15.525  23.076  0.00  0.00    +0.000 OA
ATOM      5  C   UNL     1       0.867  14.178  21.213  0.00  0.00    +0.000 A 
ATOM      6  C   UNL     1      -0.368  13.685  21.637  0.00  0.00    +0.000 A 
ATOM      7  N   UNL     1      -1.127  12.878  20.859  0.00  0.00    +0.000 NA
ATOM      8  C   UNL     1      -0.628  12.508  19.671  0.00  0.00    +0.000 A 
ATOM      9  N   UNL     1       0.545  12.954  19.186  0.00  0.00    +0.000 NA
ATOM     10  C   UNL     1       1.285  13.778  19.959  0.00  0.00    +0.000 A 
ATOM     11  N   UNL     1       2.514  14.249  19.432  0.00  0.00    +0.000 N 
ATOM     12  C   UNL     1       2.946  13.843  18.105  0.00  0.00    +0.000 C 
ATOM     13  C   UNL     1       3.353  15.092  20.135  0.00  0.00    +0.000 A 
ATOM     14  O   UNL     1       4.418  15.492  19.656  0.00  0.00    +0.000 OA
ENDROOT
BRANCH   8  15
ATOM     15  C   UNL     1      -1.421  11.610  18.801  0.00  0.00    +0.000 A 
ATOM     16  C   UNL     1      -2.791  11.895  18.572  0.00  0.00    +0.000 A 
ATOM     17  C   UNL     1      -3.597  11.088  17.757  0.00  0.00    +0.000 A 
ATOM     18  C   UNL     1      -3.056   9.971  17.137  0.00  0.00    +0.000 A 
ATOM     19  C   UNL     1      -1.714   9.665  17.333  0.00  0.00    +0.000 A 
ATOM     20  C   UNL     1      -0.903  10.472  18.152  0.00  0.00    +0.000 A 
ATOM     21 CL   UNL     1       0.754   9.980  18.243  0.00  0.00    +0.000 Cl
ENDBRANCH   8  15
BRANCH   6  22
ATOM     22  S   UNL     1      -1.152  14.183  23.175  0.00  0.00    +0.000 S 
BRANCH  22  23
ATOM     23  C   UNL     1      -2.709  14.971  22.655  0.00  0.00    +0.000 C 
BRANCH  23  24
ATOM     24  C   UNL     1      -3.933  14.608  23.491  0.00  0.00    +0.000 C 
ATOM     25  O   UNL     1      -4.228  15.207  24.525  0.00  0.00    +0.000 OA
ATOM     26  N   UNL     1      -4.720  13.553  23.025  0.00  0.00    +0.000 N 
ATOM     27  C   UNL     1      -4.492  12.749  21.816  0.00  0.00    +0.000 C 
ATOM     28  C   UNL     1      -5.824  12.414  21.123  0.00  0.00    +0.000 C 
ATOM     29  O   UNL     1      -6.766  11.822  22.033  0.00  0.00    +0.000 OA
ATOM     30  C   UNL     1      -7.028  12.705  23.136  0.00  0.00    +0.000 C 
ATOM     31  C   UNL     1      -5.743  12.997  23.910  0.00  0.00    +0.000 C 
ENDBRANCH  23  24
ENDBRANCH  22  23
ENDBRANCH   6  22
TORSDOF 4
ENDMDL
MODEL 9
REMARK VINA RESULT:      -6.2      3.391      6.467
REMARK  Name = 
REMARK  6 active torsions:
REMARK  status: ('A' for Active; 'I' for Inactive)
REMARK    1  A    between atoms: C_1  and  N_2
REMARK    2  A    between atoms: C_6  and  S_7
REMARK    3  A    between atoms: S_7  and  C_8
REMARK    4  A    between atoms: C_8  and  C_9
REMARK    5  A    between atoms: C_18  and  C_19
REMARK    6  A    between atoms: N_28  and  C_29
REMARK                            x       y       z     vdW  Elec       q    Type
REMARK                         _______ _______ _______ _____ _____    ______ ____
ROOT
ATOM      1  C   UNL     1      -0.138  17.231  19.438  0.00  0.00    +0.000 C 
ATOM      2  N   UNL     1       0.282  15.843  19.343  0.00  0.00    +0.000 N 
ATOM      3  C   UNL     1      -0.620  14.856  19.718  0.00  0.00    +0.000 A 
ATOM      4  O   UNL     1      -1.754  15.137  20.090  0.00  0.00    +0.000 OA
ATOM      5  C   UNL     1      -0.167  13.458  19.624  0.00  0.00    +0.000 A 
ATOM      6  C   UNL     1      -0.926  12.337  19.962  0.00  0.00    +0.000 A 
ATOM      7  N   UNL     1      -0.457  11.076  19.809  0.00  0.00    +0.000 NA
ATOM      8  C   UNL     1       0.802  10.928  19.371  0.00  0.00    +0.000 A 
ATOM      9  N   UNL     1       1.588  11.957  19.009  0.00  0.00    +0.000 NA
ATOM     10  C   UNL     1       1.104  13.211  19.142  0.00  0.00    +0.000 A 
ATOM     11  N   UNL     1       1.939  14.285  18.748  0.00  0.00    +0.000 N 
ATOM     12  C   UNL     1       3.270  14.026  18.223  0.00  0.00    +0.000 C 
ATOM     13  C   UNL     1       1.549  15.608  18.843  0.00  0.00    +0.000 A 
ATOM     14  O   UNL     1       2.291  16.529  18.491  0.00  0.00    +0.000 OA
ENDROOT
BRANCH   8  15
ATOM     15  C   UNL     1       1.356   9.565  19.209  0.00  0.00    +0.000 A 
ATOM     16  C   UNL     1       1.776   9.132  17.926  0.00  0.00    +0.000 A 
ATOM     17  C   UNL     1       2.312   7.855  17.705  0.00  0.00    +0.000 A 
ATOM     18  C   UNL     1       2.452   6.971  18.764  0.00  0.00    +0.000 A 
ATOM     19  C   UNL     1       2.055   7.363  20.038  0.00  0.00    +0.000 A 
ATOM     20  C   UNL     1       1.516   8.642  20.262  0.00  0.00    +0.000 A 
ATOM     21 CL   UNL     1       1.127   8.987  21.914  0.00  0.00    +0.000 Cl
ENDBRANCH   8  15
BRANCH   6  22
ATOM     22  S   UNL     1      -2.643  12.430  20.484  0.00  0.00    +0.000 S 
BRANCH  22  23
ATOM     23  C   UNL     1      -3.588  12.469  18.927  0.00  0.00    +0.000 C 
BRANCH  23  24
ATOM     24  C   UNL     1      -4.834  11.588  18.901  0.00  0.00    +0.000 C 
ATOM     25  O   UNL     1      -4.931  10.605  18.168  0.00  0.00    +0.000 OA
ATOM     26  N   UNL     1      -5.874  11.948  19.760  0.00  0.00    +0.000 N 
ATOM     27  C   UNL     1      -5.900  13.089  20.685  0.00  0.00    +0.000 C 
ATOM     28  C   UNL     1      -6.602  12.712  22.000  0.00  0.00    +0.000 C 
ATOM     29  O   UNL     1      -7.898  12.135  21.769  0.00  0.00    +0.000 OA
ATOM     30  C   UNL     1      -7.790  10.960  20.949  0.00  0.00    +0.000 C 
ATOM     31  C   UNL     1      -7.177  11.304  19.592  0.00  0.00    +0.000 C 
ENDBRANCH  23  24
ENDBRANCH  22  23
ENDBRANCH   6  22
TORSDOF 4
ENDMDL
