MODEL 1
REMARK VINA RESULT:      -8.6      0.000      0.000
REMARK  Name = 
REMARK  5 active torsions:
REMARK  status: ('A' for Active; 'I' for Inactive)
REMARK    1  A    between atoms: C_1  and  C_2
REMARK    2  A    between atoms: N_5  and  C_6
REMARK    3  A    between atoms: C_6  and  C_7
REMARK    4  A    between atoms: C_13  and  C_15
REMARK    5  A    between atoms: C_19  and  C_20
REMARK                            x       y       z     vdW  Elec       q    Type
REMARK                         _______ _______ _______ _____ _____    ______ ____
ROOT
ATOM      1  C   UNL     1       4.365   3.953  18.528  0.00  0.00    +0.000 C 
ATOM      2  C   UNL     1       3.952   2.726  17.674  0.00  0.00    +0.000 C 
ATOM      3  C   UNL     1       2.527   2.241  17.917  0.00  0.00    +0.000 C 
ATOM      4  C   UNL     1       1.541   3.385  17.826  0.00  0.00    +0.000 C 
ATOM      5  C   UNL     1       1.945   4.511  18.756  0.00  0.00    +0.000 C 
ATOM      6  N   UNL     1       3.297   5.010  18.469  0.00  0.00    +0.000 N 
ATOM      7  C   UNL     1       3.617   6.375  18.358  0.00  0.00    +0.000 C 
ATOM      8  O   UNL     1       4.721   6.781  17.993  0.00  0.00    +0.000 OA
ENDROOT
BRANCH   7   9
ATOM      9  C   UNL     1       2.625   7.448  18.657  0.00  0.00    +0.000 A 
ATOM     10  C   UNL     1       2.235   8.314  17.625  0.00  0.00    +0.000 A 
ATOM     11  C   UNL     1       1.345   9.361  17.879  0.00  0.00    +0.000 A 
ATOM     12  C   UNL     1       0.812   9.538  19.159  0.00  0.00    +0.000 A 
ATOM     13  C   UNL     1       1.207   8.689  20.200  0.00  0.00    +0.000 A 
ATOM     14  C   UNL     1       2.152   7.688  19.947  0.00  0.00    +0.000 A 
BRANCH  13  15
ATOM     15  C   UNL     1       0.672   8.751  21.593  0.00  0.00    +0.000 C 
ATOM     16  N   UNL     1       1.534   9.044  22.610  0.00  0.00    +0.000 N 
ATOM     17  O   UNL     1      -0.510   8.559  21.824  0.00  0.00    +0.000 OA
ATOM     18  H   UNL     1       2.528   9.177  22.515  0.00  0.00    +0.000 HD
ATOM     19  H   UNL     1       1.138   9.041  23.541  0.00  0.00    +0.000 HD
ENDBRANCH  13  15
ENDBRANCH   7   9
BRANCH   1  20
ATOM     20  C   UNL     1       5.802   4.386  18.147  0.00  0.00    +0.000 C 
BRANCH  20  25
ATOM     21  C   UNL     1       5.347   3.928  13.176  0.00  0.00    +0.000 C 
ATOM     22  C   UNL     1       5.867   4.168  14.539  0.00  0.00    +0.000 A 
ATOM     23  C   UNL     1       7.151   4.610  14.928  0.00  0.00    +0.000 A 
ATOM     24  N   UNL     1       7.282   4.706  16.252  0.00  0.00    +0.000 NA
ATOM     25  N   UNL     1       6.073   4.344  16.720  0.00  0.00    +0.000 N 
ATOM     26  C   UNL     1       5.192   4.015  15.731  0.00  0.00    +0.000 A 
ENDBRANCH  20  25
ENDBRANCH   1  20
TORSDOF 4
ENDMDL
MODEL 2
REMARK VINA RESULT:      -8.5      2.076      2.606
REMARK  Name = 
REMARK  5 active torsions:
REMARK  status: ('A' for Active; 'I' for Inactive)
REMARK    1  A    between atoms: C_1  and  C_2
REMARK    2  A    between atoms: N_5  and  C_6
REMARK    3  A    between atoms: C_6  and  C_7
REMARK    4  A    between atoms: C_13  and  C_15
REMARK    5  A    between atoms: C_19  and  C_20
REMARK                            x       y       z     vdW  Elec       q    Type
REMARK                         _______ _______ _______ _____ _____    ______ ____
ROOT
ATOM      1  C   UNL     1       3.770   4.513  19.238  0.00  0.00    +0.000 C 
ATOM      2  C   UNL     1       3.155   3.090  19.288  0.00  0.00    +0.000 C 
ATOM      3  C   UNL     1       2.179   2.867  20.438  0.00  0.00    +0.000 C 
ATOM      4  C   UNL     1       1.138   3.965  20.488  0.00  0.00    +0.000 C 
ATOM      5  C   UNL     1       1.803   5.326  20.537  0.00  0.00    +0.000 C 
ATOM      6  N   UNL     1       2.693   5.551  19.389  0.00  0.00    +0.000 N 
ATOM      7  C   UNL     1       2.690   6.728  18.620  0.00  0.00    +0.000 C 
ATOM      8  O   UNL     1       3.347   6.859  17.586  0.00  0.00    +0.000 OA
ENDROOT
BRANCH   7   9
ATOM      9  C   UNL     1       1.866   7.915  18.991  0.00  0.00    +0.000 A 
ATOM     10  C   UNL     1       1.343   8.719  17.968  0.00  0.00    +0.000 A 
ATOM     11  C   UNL     1       0.608   9.867  18.277  0.00  0.00    +0.000 A 
ATOM     12  C   UNL     1       0.362  10.208  19.610  0.00  0.00    +0.000 A 
ATOM     13  C   UNL     1       0.894   9.421  20.639  0.00  0.00    +0.000 A 
ATOM     14  C   UNL     1       1.686   8.314  20.315  0.00  0.00    +0.000 A 
BRANCH  13  15
ATOM     15  C   UNL     1       0.659   9.658  22.095  0.00  0.00    +0.000 C 
ATOM     16  N   UNL     1      -0.561  10.122  22.491  0.00  0.00    +0.000 N 
ATOM     17  O   UNL     1       1.529   9.431  22.920  0.00  0.00    +0.000 OA
ATOM     18  H   UNL     1      -1.320  10.373  21.877  0.00  0.00    +0.000 HD
ATOM     19  H   UNL     1      -0.667  10.303  23.480  0.00  0.00    +0.000 HD
ENDBRANCH  13  15
ENDBRANCH   7   9
BRANCH   1  20
ATOM     20  C   UNL     1       4.690   4.633  17.998  0.00  0.00    +0.000 C 
BRANCH  20  25
ATOM     21  C   UNL     1       8.333   8.074  17.953  0.00  0.00    +0.000 C 
ATOM     22  C   UNL     1       7.509   6.883  18.245  0.00  0.00    +0.000 A 
ATOM     23  C   UNL     1       7.756   5.843  19.167  0.00  0.00    +0.000 A 
ATOM     24  N   UNL     1       6.800   4.912  19.161  0.00  0.00    +0.000 NA
ATOM     25  N   UNL     1       5.923   5.362  18.245  0.00  0.00    +0.000 N 
ATOM     26  C   UNL     1       6.303   6.540  17.670  0.00  0.00    +0.000 A 
ENDBRANCH  20  25
ENDBRANCH   1  20
TORSDOF 4
ENDMDL
MODEL 3
REMARK VINA RESULT:      -8.5      3.280      7.681
REMARK  Name = 
REMARK  5 active torsions:
REMARK  status: ('A' for Active; 'I' for Inactive)
REMARK    1  A    between atoms: C_1  and  C_2
REMARK    2  A    between atoms: N_5  and  C_6
REMARK    3  A    between atoms: C_6  and  C_7
REMARK    4  A    between atoms: C_13  and  C_15
REMARK    5  A    between atoms: C_19  and  C_20
REMARK                            x       y       z     vdW  Elec       q    Type
REMARK                         _______ _______ _______ _____ _____    ______ ____
ROOT
ATOM      1  C   UNL     1       0.012   9.899  19.771  0.00  0.00    +0.000 C 
ATOM      2  C   UNL     1       0.168  10.676  21.104  0.00  0.00    +0.000 C 
ATOM      3  C   UNL     1       0.428   9.793  22.320  0.00  0.00    +0.000 C 
ATOM      4  C   UNL     1       1.567   8.831  22.059  0.00  0.00    +0.000 C 
ATOM      5  C   UNL     1       1.309   8.032  20.797  0.00  0.00    +0.000 C 
ATOM      6  N   UNL     1       1.122   8.895  19.622  0.00  0.00    +0.000 N 
ATOM      7  C   UNL     1       1.763   8.681  18.388  0.00  0.00    +0.000 C 
ATOM      8  O   UNL     1       1.700   9.477  17.450  0.00  0.00    +0.000 OA
ENDROOT
BRANCH   7   9
ATOM      9  C   UNL     1       2.592   7.470  18.125  0.00  0.00    +0.000 A 
ATOM     10  C   UNL     1       3.883   7.636  17.601  0.00  0.00    +0.000 A 
ATOM     11  C   UNL     1       4.671   6.523  17.297  0.00  0.00    +0.000 A 
ATOM     12  C   UNL     1       4.191   5.233  17.539  0.00  0.00    +0.000 A 
ATOM     13  C   UNL     1       2.898   5.055  18.046  0.00  0.00    +0.000 A 
ATOM     14  C   UNL     1       2.094   6.177  18.282  0.00  0.00    +0.000 A 
BRANCH  13  15
ATOM     15  C   UNL     1       2.297   3.731  18.389  0.00  0.00    +0.000 C 
ATOM     16  N   UNL     1       2.652   3.141  19.567  0.00  0.00    +0.000 N 
ATOM     17  O   UNL     1       1.495   3.191  17.646  0.00  0.00    +0.000 OA
ATOM     18  H   UNL     1       3.333   3.496  20.219  0.00  0.00    +0.000 HD
ATOM     19  H   UNL     1       2.249   2.230  19.745  0.00  0.00    +0.000 HD
ENDBRANCH  13  15
ENDBRANCH   7   9
BRANCH   1  20
ATOM     20  C   UNL     1      -0.184  10.903  18.609  0.00  0.00    +0.000 C 
BRANCH  20  25
ATOM     21  C   UNL     1      -4.846  11.723  16.959  0.00  0.00    +0.000 C 
ATOM     22  C   UNL     1      -3.500  11.157  17.191  0.00  0.00    +0.000 A 
ATOM     23  C   UNL     1      -2.902  10.028  16.588  0.00  0.00    +0.000 A 
ATOM     24  N   UNL     1      -1.671   9.793  17.047  0.00  0.00    +0.000 NA
ATOM     25  N   UNL     1      -1.466  10.784  17.934  0.00  0.00    +0.000 N 
ATOM     26  C   UNL     1      -2.533  11.627  18.053  0.00  0.00    +0.000 A 
ENDBRANCH  20  25
ENDBRANCH   1  20
TORSDOF 4
ENDMDL
MODEL 4
REMARK VINA RESULT:      -8.5      1.797      2.449
REMARK  Name = 
REMARK  5 active torsions:
REMARK  status: ('A' for Active; 'I' for Inactive)
REMARK    1  A    between atoms: C_1  and  C_2
REMARK    2  A    between atoms: N_5  and  C_6
REMARK    3  A    between atoms: C_6  and  C_7
REMARK    4  A    between atoms: C_13  and  C_15
REMARK    5  A    between atoms: C_19  and  C_20
REMARK                            x       y       z     vdW  Elec       q    Type
REMARK                         _______ _______ _______ _____ _____    ______ ____
ROOT
ATOM      1  C   UNL     1       3.310   4.091  18.936  0.00  0.00    +0.000 C 
ATOM      2  C   UNL     1       2.497   2.771  18.963  0.00  0.00    +0.000 C 
ATOM      3  C   UNL     1       1.591   2.615  20.179  0.00  0.00    +0.000 C 
ATOM      4  C   UNL     1       0.731   3.844  20.377  0.00  0.00    +0.000 C 
ATOM      5  C   UNL     1       1.591   5.090  20.441  0.00  0.00    +0.000 C 
ATOM      6  N   UNL     1       2.413   5.260  19.234  0.00  0.00    +0.000 N 
ATOM      7  C   UNL     1       2.524   6.474  18.531  0.00  0.00    +0.000 C 
ATOM      8  O   UNL     1       3.111   6.576  17.454  0.00  0.00    +0.000 OA
ENDROOT
BRANCH   7   9
ATOM      9  C   UNL     1       1.916   7.739  19.034  0.00  0.00    +0.000 A 
ATOM     10  C   UNL     1       1.673   8.780  18.125  0.00  0.00    +0.000 A 
ATOM     11  C   UNL     1       1.150   9.997  18.567  0.00  0.00    +0.000 A 
ATOM     12  C   UNL     1       0.835  10.180  19.917  0.00  0.00    +0.000 A 
ATOM     13  C   UNL     1       1.089   9.154  20.836  0.00  0.00    +0.000 A 
ATOM     14  C   UNL     1       1.678   7.966  20.390  0.00  0.00    +0.000 A 
BRANCH  13  15
ATOM     15  C   UNL     1       0.752   9.216  22.290  0.00  0.00    +0.000 C 
ATOM     16  N   UNL     1      -0.536   8.974  22.670  0.00  0.00    +0.000 N 
ATOM     17  O   UNL     1       1.605   9.463  23.125  0.00  0.00    +0.000 OA
ATOM     18  H   UNL     1      -1.309   8.803  22.047  0.00  0.00    +0.000 HD
ATOM     19  H   UNL     1      -0.729   9.061  23.659  0.00  0.00    +0.000 HD
ENDBRANCH  13  15
ENDBRANCH   7   9
BRANCH   1  20
ATOM     20  C   UNL     1       4.139   4.159  17.629  0.00  0.00    +0.000 C 
BRANCH  20  25
ATOM     21  C   UNL     1       8.401   5.941  19.573  0.00  0.00    +0.000 C 
ATOM     22  C   UNL     1       7.397   5.312  18.690  0.00  0.00    +0.000 A 
ATOM     23  C   UNL     1       7.591   4.687  17.438  0.00  0.00    +0.000 A 
ATOM     24  N   UNL     1       6.453   4.237  16.906  0.00  0.00    +0.000 NA
ATOM     25  N   UNL     1       5.524   4.554  17.827  0.00  0.00    +0.000 N 
ATOM     26  C   UNL     1       6.042   5.198  18.913  0.00  0.00    +0.000 A 
ENDBRANCH  20  25
ENDBRANCH   1  20
TORSDOF 4
ENDMDL
MODEL 5
REMARK VINA RESULT:      -8.4      3.189      7.944
REMARK  Name = 
REMARK  5 active torsions:
REMARK  status: ('A' for Active; 'I' for Inactive)
REMARK    1  A    between atoms: C_1  and  C_2
REMARK    2  A    between atoms: N_5  and  C_6
REMARK    3  A    between atoms: C_6  and  C_7
REMARK    4  A    between atoms: C_13  and  C_15
REMARK    5  A    between atoms: C_19  and  C_20
REMARK                            x       y       z     vdW  Elec       q    Type
REMARK                         _______ _______ _______ _____ _____    ______ ____
ROOT
ATOM      1  C   UNL     1       0.016   9.921  19.789  0.00  0.00    +0.000 C 
ATOM      2  C   UNL     1       0.179  10.694  21.123  0.00  0.00    +0.000 C 
ATOM      3  C   UNL     1       0.441   9.808  22.336  0.00  0.00    +0.000 C 
ATOM      4  C   UNL     1       1.576   8.843  22.068  0.00  0.00    +0.000 C 
ATOM      5  C   UNL     1       1.310   8.047  20.805  0.00  0.00    +0.000 C 
ATOM      6  N   UNL     1       1.121   8.913  19.633  0.00  0.00    +0.000 N 
ATOM      7  C   UNL     1       1.756   8.700  18.396  0.00  0.00    +0.000 C 
ATOM      8  O   UNL     1       1.693   9.498  17.461  0.00  0.00    +0.000 OA
ENDROOT
BRANCH   7   9
ATOM      9  C   UNL     1       2.580   7.487  18.127  0.00  0.00    +0.000 A 
ATOM     10  C   UNL     1       2.098   6.237  18.546  0.00  0.00    +0.000 A 
ATOM     11  C   UNL     1       2.864   5.084  18.355  0.00  0.00    +0.000 A 
ATOM     12  C   UNL     1       4.106   5.161  17.718  0.00  0.00    +0.000 A 
ATOM     13  C   UNL     1       4.604   6.405  17.311  0.00  0.00    +0.000 A 
ATOM     14  C   UNL     1       3.857   7.560  17.571  0.00  0.00    +0.000 A 
BRANCH  13  15
ATOM     15  C   UNL     1       5.892   6.605  16.581  0.00  0.00    +0.000 C 
ATOM     16  N   UNL     1       6.087   5.931  15.411  0.00  0.00    +0.000 N 
ATOM     17  O   UNL     1       6.748   7.361  17.007  0.00  0.00    +0.000 OA
ATOM     18  H   UNL     1       5.453   5.259  15.008  0.00  0.00    +0.000 HD
ATOM     19  H   UNL     1       6.986   6.067  14.966  0.00  0.00    +0.000 HD
ENDBRANCH  13  15
ENDBRANCH   7   9
BRANCH   1  20
ATOM     20  C   UNL     1      -0.182  10.929  18.630  0.00  0.00    +0.000 C 
BRANCH  20  25
ATOM     21  C   UNL     1      -4.845  11.759  16.988  0.00  0.00    +0.000 C 
ATOM     22  C   UNL     1      -3.500  11.190  17.218  0.00  0.00    +0.000 A 
ATOM     23  C   UNL     1      -2.905  10.060  16.614  0.00  0.00    +0.000 A 
ATOM     24  N   UNL     1      -1.674   9.822  17.070  0.00  0.00    +0.000 NA
ATOM     25  N   UNL     1      -1.466  10.812  17.958  0.00  0.00    +0.000 N 
ATOM     26  C   UNL     1      -2.530  11.657  18.079  0.00  0.00    +0.000 A 
ENDBRANCH  20  25
ENDBRANCH   1  20
TORSDOF 4
ENDMDL
MODEL 6
REMARK VINA RESULT:      -8.3      1.929      6.735
REMARK  Name = 
REMARK  5 active torsions:
REMARK  status: ('A' for Active; 'I' for Inactive)
REMARK    1  A    between atoms: C_1  and  C_2
REMARK    2  A    between atoms: N_5  and  C_6
REMARK    3  A    between atoms: C_6  and  C_7
REMARK    4  A    between atoms: C_13  and  C_15
REMARK    5  A    between atoms: C_19  and  C_20
REMARK                            x       y       z     vdW  Elec       q    Type
REMARK                         _______ _______ _______ _____ _____    ______ ____
ROOT
ATOM      1  C   UNL     1       1.780   4.772  19.426  0.00  0.00    +0.000 C 
ATOM      2  C   UNL     1       0.956   3.570  19.956  0.00  0.00    +0.000 C 
ATOM      3  C   UNL     1       0.685   2.488  18.917  0.00  0.00    +0.000 C 
ATOM      4  C   UNL     1       1.963   2.069  18.222  0.00  0.00    +0.000 C 
ATOM      5  C   UNL     1       2.671   3.277  17.641  0.00  0.00    +0.000 C 
ATOM      6  N   UNL     1       2.982   4.284  18.665  0.00  0.00    +0.000 N 
ATOM      7  C   UNL     1       4.238   4.903  18.794  0.00  0.00    +0.000 C 
ATOM      8  O   UNL     1       4.528   5.650  19.729  0.00  0.00    +0.000 OA
ENDROOT
BRANCH   7   9
ATOM      9  C   UNL     1       5.334   4.684  17.806  0.00  0.00    +0.000 A 
ATOM     10  C   UNL     1       6.664   4.732  18.252  0.00  0.00    +0.000 A 
ATOM     11  C   UNL     1       7.718   4.580  17.347  0.00  0.00    +0.000 A 
ATOM     12  C   UNL     1       7.457   4.350  15.993  0.00  0.00    +0.000 A 
ATOM     13  C   UNL     1       6.134   4.317  15.535  0.00  0.00    +0.000 A 
ATOM     14  C   UNL     1       5.090   4.540  16.441  0.00  0.00    +0.000 A 
BRANCH  13  15
ATOM     15  C   UNL     1       5.732   4.033  14.125  0.00  0.00    +0.000 C 
ATOM     16  N   UNL     1       6.583   3.312  13.339  0.00  0.00    +0.000 N 
ATOM     17  O   UNL     1       4.664   4.420  13.683  0.00  0.00    +0.000 OA
ATOM     18  H   UNL     1       7.498   2.988  13.609  0.00  0.00    +0.000 HD
ATOM     19  H   UNL     1       6.290   3.171  12.381  0.00  0.00    +0.000 HD
ENDBRANCH  13  15
ENDBRANCH   7   9
BRANCH   1  20
ATOM     20  C   UNL     1       2.041   5.767  20.584  0.00  0.00    +0.000 C 
BRANCH  20  25
ATOM     21  C   UNL     1       1.561  10.137  18.176  0.00  0.00    +0.000 C 
ATOM     22  C   UNL     1       1.514   9.060  19.187  0.00  0.00    +0.000 A 
ATOM     23  C   UNL     1       0.947   9.088  20.480  0.00  0.00    +0.000 A 
ATOM     24  N   UNL     1       1.098   7.934  21.133  0.00  0.00    +0.000 NA
ATOM     25  N   UNL     1       1.748   7.152  20.251  0.00  0.00    +0.000 N 
ATOM     26  C   UNL     1       2.017   7.782  19.071  0.00  0.00    +0.000 A 
ENDBRANCH  20  25
ENDBRANCH   1  20
TORSDOF 4
ENDMDL
MODEL 7
REMARK VINA RESULT:      -8.3      2.592      7.697
REMARK  Name = 
REMARK  5 active torsions:
REMARK  status: ('A' for Active; 'I' for Inactive)
REMARK    1  A    between atoms: C_1  and  C_2
REMARK    2  A    between atoms: N_5  and  C_6
REMARK    3  A    between atoms: C_6  and  C_7
REMARK    4  A    between atoms: C_13  and  C_15
REMARK    5  A    between atoms: C_19  and  C_20
REMARK                            x       y       z     vdW  Elec       q    Type
REMARK                         _______ _______ _______ _____ _____    ______ ____
ROOT
ATOM      1  C   UNL     1       5.489   4.248  18.556  0.00  0.00    +0.000 C 
ATOM      2  C   UNL     1       5.948   5.349  19.547  0.00  0.00    +0.000 C 
ATOM      3  C   UNL     1       7.443   5.646  19.508  0.00  0.00    +0.000 C 
ATOM      4  C   UNL     1       7.911   5.893  18.089  0.00  0.00    +0.000 C 
ATOM      5  C   UNL     1       7.518   4.737  17.192  0.00  0.00    +0.000 C 
ATOM      6  N   UNL     1       6.068   4.502  17.191  0.00  0.00    +0.000 N 
ATOM      7  C   UNL     1       5.308   4.317  16.022  0.00  0.00    +0.000 C 
ATOM      8  O   UNL     1       4.079   4.247  16.022  0.00  0.00    +0.000 OA
ENDROOT
BRANCH   7   9
ATOM      9  C   UNL     1       5.940   4.209  14.676  0.00  0.00    +0.000 A 
ATOM     10  C   UNL     1       7.066   4.997  14.393  0.00  0.00    +0.000 A 
ATOM     11  C   UNL     1       7.655   4.959  13.127  0.00  0.00    +0.000 A 
ATOM     12  C   UNL     1       7.146   4.112  12.138  0.00  0.00    +0.000 A 
ATOM     13  C   UNL     1       6.014   3.334  12.404  0.00  0.00    +0.000 A 
ATOM     14  C   UNL     1       5.392   3.434  13.654  0.00  0.00    +0.000 A 
BRANCH  13  15
ATOM     15  C   UNL     1       5.410   2.360  11.445  0.00  0.00    +0.000 C 
ATOM     16  N   UNL     1       6.068   1.188  11.208  0.00  0.00    +0.000 N 
ATOM     17  O   UNL     1       4.348   2.593  10.894  0.00  0.00    +0.000 OA
ATOM     18  H   UNL     1       6.965   0.932  11.588  0.00  0.00    +0.000 HD
ATOM     19  H   UNL     1       5.644   0.572  10.527  0.00  0.00    +0.000 HD
ENDBRANCH  13  15
ENDBRANCH   7   9
BRANCH   1  20
ATOM     20  C   UNL     1       3.952   4.083  18.646  0.00  0.00    +0.000 C 
BRANCH  20  25
ATOM     21  C   UNL     1       1.844   8.629  18.518  0.00  0.00    +0.000 C 
ATOM     22  C   UNL     1       2.300   7.286  18.934  0.00  0.00    +0.000 A 
ATOM     23  C   UNL     1       2.043   6.602  20.143  0.00  0.00    +0.000 A 
ATOM     24  N   UNL     1       2.626   5.403  20.190  0.00  0.00    +0.000 NA
ATOM     25  N   UNL     1       3.246   5.304  18.999  0.00  0.00    +0.000 N 
ATOM     26  C   UNL     1       3.077   6.406  18.212  0.00  0.00    +0.000 A 
ENDBRANCH  20  25
ENDBRANCH   1  20
TORSDOF 4
ENDMDL
MODEL 8
REMARK VINA RESULT:      -8.3      3.507      7.849
REMARK  Name = 
REMARK  5 active torsions:
REMARK  status: ('A' for Active; 'I' for Inactive)
REMARK    1  A    between atoms: C_1  and  C_2
REMARK    2  A    between atoms: N_5  and  C_6
REMARK    3  A    between atoms: C_6  and  C_7
REMARK    4  A    between atoms: C_13  and  C_15
REMARK    5  A    between atoms: C_19  and  C_20
REMARK                            x       y       z     vdW  Elec       q    Type
REMARK                         _______ _______ _______ _____ _____    ______ ____
ROOT
ATOM      1  C   UNL     1       5.290   4.587  18.426  0.00  0.00    +0.000 C 
ATOM      2  C   UNL     1       5.928   5.524  19.485  0.00  0.00    +0.000 C 
ATOM      3  C   UNL     1       7.448   5.442  19.562  0.00  0.00    +0.000 C 
ATOM      4  C   UNL     1       8.071   5.589  18.190  0.00  0.00    +0.000 C 
ATOM      5  C   UNL     1       7.477   4.581  17.227  0.00  0.00    +0.000 C 
ATOM      6  N   UNL     1       6.018   4.713  17.115  0.00  0.00    +0.000 N 
ATOM      7  C   UNL     1       5.328   4.741  15.890  0.00  0.00    +0.000 C 
ATOM      8  O   UNL     1       4.124   4.978  15.799  0.00  0.00    +0.000 OA
ENDROOT
BRANCH   7   9
ATOM      9  C   UNL     1       6.017   4.501  14.588  0.00  0.00    +0.000 A 
ATOM     10  C   UNL     1       7.158   5.257  14.279  0.00  0.00    +0.000 A 
ATOM     11  C   UNL     1       7.801   5.096  13.050  0.00  0.00    +0.000 A 
ATOM     12  C   UNL     1       7.330   4.157  12.126  0.00  0.00    +0.000 A 
ATOM     13  C   UNL     1       6.183   3.410  12.418  0.00  0.00    +0.000 A 
ATOM     14  C   UNL     1       5.509   3.632  13.624  0.00  0.00    +0.000 A 
BRANCH  13  15
ATOM     15  C   UNL     1       5.616   2.348  11.533  0.00  0.00    +0.000 C 
ATOM     16  N   UNL     1       6.392   1.266  11.236  0.00  0.00    +0.000 N 
ATOM     17  O   UNL     1       4.481   2.432  11.093  0.00  0.00    +0.000 OA
ATOM     18  H   UNL     1       7.349   1.134  11.522  0.00  0.00    +0.000 HD
ATOM     19  H   UNL     1       5.983   0.587  10.606  0.00  0.00    +0.000 HD
ENDBRANCH  13  15
ENDBRANCH   7   9
BRANCH   1  20
ATOM     20  C   UNL     1       3.758   4.806  18.401  0.00  0.00    +0.000 C 
BRANCH  20  25
ATOM     21  C   UNL     1       1.269   2.459  22.064  0.00  0.00    +0.000 C 
ATOM     22  C   UNL     1       1.895   2.812  20.773  0.00  0.00    +0.000 A 
ATOM     23  C   UNL     1       1.876   2.094  19.557  0.00  0.00    +0.000 A 
ATOM     24  N   UNL     1       2.561   2.704  18.588  0.00  0.00    +0.000 NA
ATOM     25  N   UNL     1       3.008   3.830  19.175  0.00  0.00    +0.000 N 
ATOM     26  C   UNL     1       2.632   3.940  20.482  0.00  0.00    +0.000 A 
ENDBRANCH  20  25
ENDBRANCH   1  20
TORSDOF 4
ENDMDL
MODEL 9
REMARK VINA RESULT:      -8.2      1.360      1.673
REMARK  Name = 
REMARK  5 active torsions:
REMARK  status: ('A' for Active; 'I' for Inactive)
REMARK    1  A    between atoms: C_1  and  C_2
REMARK    2  A    between atoms: N_5  and  C_6
REMARK    3  A    between atoms: C_6  and  C_7
REMARK    4  A    between atoms: C_13  and  C_15
REMARK    5  A    between atoms: C_19  and  C_20
REMARK                            x       y       z     vdW  Elec       q    Type
REMARK                         _______ _______ _______ _____ _____    ______ ____
ROOT
ATOM      1  C   UNL     1       4.098   5.764  18.312  0.00  0.00    +0.000 C 
ATOM      2  C   UNL     1       3.787   4.336  17.795  0.00  0.00    +0.000 C 
ATOM      3  C   UNL     1       2.831   3.542  18.678  0.00  0.00    +0.000 C 
ATOM      4  C   UNL     1       1.586   4.343  18.990  0.00  0.00    +0.000 C 
ATOM      5  C   UNL     1       1.955   5.688  19.583  0.00  0.00    +0.000 C 
ATOM      6  N   UNL     1       2.825   6.468  18.693  0.00  0.00    +0.000 N 
ATOM      7  C   UNL     1       2.612   7.824  18.386  0.00  0.00    +0.000 C 
ATOM      8  O   UNL     1       3.270   8.435  17.543  0.00  0.00    +0.000 OA
ENDROOT
BRANCH   7   9
ATOM      9  C   UNL     1       1.547   8.629  19.051  0.00  0.00    +0.000 A 
ATOM     10  C   UNL     1       0.654   9.360  18.253  0.00  0.00    +0.000 A 
ATOM     11  C   UNL     1      -0.325  10.164  18.841  0.00  0.00    +0.000 A 
ATOM     12  C   UNL     1      -0.443  10.225  20.233  0.00  0.00    +0.000 A 
ATOM     13  C   UNL     1       0.453   9.514  21.039  0.00  0.00    +0.000 A 
ATOM     14  C   UNL     1       1.473   8.767  20.437  0.00  0.00    +0.000 A 
BRANCH  13  15
ATOM     15  C   UNL     1       0.396   9.465  22.531  0.00  0.00    +0.000 C 
ATOM     16  N   UNL     1      -0.810   9.239  23.129  0.00  0.00    +0.000 N 
ATOM     17  O   UNL     1       1.401   9.608  23.207  0.00  0.00    +0.000 OA
ATOM     18  H   UNL     1      -1.693   9.150  22.652  0.00  0.00    +0.000 HD
ATOM     19  H   UNL     1      -0.812   9.248  24.140  0.00  0.00    +0.000 HD
ENDBRANCH  13  15
ENDBRANCH   7   9
BRANCH   1  20
ATOM     20  C   UNL     1       5.023   6.487  17.302  0.00  0.00    +0.000 C 
BRANCH  20  25
ATOM     21  C   UNL     1       6.293   3.882  13.213  0.00  0.00    +0.000 C 
ATOM     22  C   UNL     1       6.262   4.473  14.567  0.00  0.00    +0.000 A 
ATOM     23  C   UNL     1       7.192   4.319  15.619  0.00  0.00    +0.000 A 
ATOM     24  N   UNL     1       6.841   4.991  16.717  0.00  0.00    +0.000 NA
ATOM     25  N   UNL     1       5.690   5.595  16.368  0.00  0.00    +0.000 N 
ATOM     26  C   UNL     1       5.305   5.317  15.089  0.00  0.00    +0.000 A 
ENDBRANCH  20  25
ENDBRANCH   1  20
TORSDOF 4
ENDMDL
