MODEL 1
REMARK VINA RESULT:      -6.4      0.000      0.000
REMARK  Name = 
REMARK  6 active torsions:
REMARK  status: ('A' for Active; 'I' for Inactive)
REMARK    1  A    between atoms: C_1  and  N_2
REMARK    2  A    between atoms: N_2  and  C_3
REMARK    3  A    between atoms: N_2  and  C_4
REMARK    4  A    between atoms: C_4  and  C_5
REMARK    5  A    between atoms: C_4  and  C_12
REMARK    6  A    between atoms: C_8  and  O_9
REMARK                            x       y       z     vdW  Elec       q    Type
REMARK                         _______ _______ _______ _____ _____    ______ ____
ROOT
ATOM      1  C   UNL     1       3.767   3.904  18.759  0.00  0.00    +0.000 C 
ENDROOT
BRANCH   1   2
ATOM      2  C   UNL     1       4.834   4.181  17.691  0.00  0.00    +0.000 A 
ATOM      3  C   UNL     1       4.566   4.160  16.313  0.00  0.00    +0.000 A 
ATOM      4  C   UNL     1       5.554   4.474  15.383  0.00  0.00    +0.000 A 
ATOM      5  C   UNL     1       6.810   4.872  15.821  0.00  0.00    +0.000 A 
ATOM      6  C   UNL     1       7.093   4.945  17.177  0.00  0.00    +0.000 A 
ATOM      7  C   UNL     1       6.116   4.588  18.107  0.00  0.00    +0.000 A 
BRANCH   5   8
ATOM      8  O   UNL     1       7.794   5.221  14.945  0.00  0.00    +0.000 OA
ATOM      9  H   UNL     1       7.683   4.699  14.134  0.00  0.00    +0.000 HD
ENDBRANCH   5   8
ENDBRANCH   1   2
BRANCH   1  10
ATOM     10  C   UNL     1       2.405   4.589  18.383  0.00  0.00    +0.000 C 
ATOM     11  C   UNL     1       2.486   6.125  18.445  0.00  0.00    +0.000 C 
ATOM     12  O   UNL     1       2.738   6.561  19.777  0.00  0.00    +0.000 OA
ATOM     13  C   UNL     1       1.700   6.141  20.651  0.00  0.00    +0.000 C 
ATOM     14  O   UNL     1       1.548   4.727  20.669  0.00  0.00    +0.000 OA
ATOM     15  C   UNL     1       1.288   4.208  19.359  0.00  0.00    +0.000 C 
ENDBRANCH   1  10
BRANCH   1  17
ATOM     16  C   UNL     1       3.684   1.456  18.144  0.00  0.00    +0.000 C 
ATOM     17  N   UNL     1       3.647   2.477  19.183  0.00  0.00    +0.000 NA
ATOM     18  C   UNL     1       4.603   2.141  20.245  0.00  0.00    +0.000 C 
ENDBRANCH   1  17
TORSDOF 4
ENDMDL
MODEL 2
REMARK VINA RESULT:      -6.2      0.143      1.177
REMARK  Name = 
REMARK  6 active torsions:
REMARK  status: ('A' for Active; 'I' for Inactive)
REMARK    1  A    between atoms: C_1  and  N_2
REMARK    2  A    between atoms: N_2  and  C_3
REMARK    3  A    between atoms: N_2  and  C_4
REMARK    4  A    between atoms: C_4  and  C_5
REMARK    5  A    between atoms: C_4  and  C_12
REMARK    6  A    between atoms: C_8  and  O_9
REMARK                            x       y       z     vdW  Elec       q    Type
REMARK                         _______ _______ _______ _____ _____    ______ ____
ROOT
ATOM      1  C   UNL     1       3.741   3.924  18.852  0.00  0.00    +0.000 C 
ENDROOT
BRANCH   1   2
ATOM      2  C   UNL     1       4.845   4.254  17.837  0.00  0.00    +0.000 A 
ATOM      3  C   UNL     1       6.162   4.565  18.208  0.00  0.00    +0.000 A 
ATOM      4  C   UNL     1       7.143   4.802  17.248  0.00  0.00    +0.000 A 
ATOM      5  C   UNL     1       6.833   4.673  15.901  0.00  0.00    +0.000 A 
ATOM      6  C   UNL     1       5.551   4.324  15.503  0.00  0.00    +0.000 A 
ATOM      7  C   UNL     1       4.558   4.129  16.464  0.00  0.00    +0.000 A 
BRANCH   5   8
ATOM      8  O   UNL     1       7.772   4.863  14.932  0.00  0.00    +0.000 OA
ATOM      9  H   UNL     1       8.584   5.190  15.350  0.00  0.00    +0.000 HD
ENDBRANCH   5   8
ENDBRANCH   1   2
BRANCH   1  10
ATOM     10  C   UNL     1       2.384   4.598  18.444  0.00  0.00    +0.000 C 
ATOM     11  C   UNL     1       2.463   6.135  18.471  0.00  0.00    +0.000 C 
ATOM     12  O   UNL     1       2.698   6.602  19.795  0.00  0.00    +0.000 OA
ATOM     13  C   UNL     1       1.650   6.202  20.666  0.00  0.00    +0.000 C 
ATOM     14  O   UNL     1       1.499   4.788  20.715  0.00  0.00    +0.000 OA
ATOM     15  C   UNL     1       1.255   4.238  19.415  0.00  0.00    +0.000 C 
ENDBRANCH   1  10
BRANCH   1  17
ATOM     16  C   UNL     1       3.652   1.500  18.147  0.00  0.00    +0.000 C 
ATOM     17  N   UNL     1       3.630   2.481  19.224  0.00  0.00    +0.000 NA
ATOM     18  C   UNL     1       4.603   2.108  20.257  0.00  0.00    +0.000 C 
ENDBRANCH   1  17
TORSDOF 4
ENDMDL
MODEL 3
REMARK VINA RESULT:      -6.1      0.784      1.503
REMARK  Name = 
REMARK  6 active torsions:
REMARK  status: ('A' for Active; 'I' for Inactive)
REMARK    1  A    between atoms: C_1  and  N_2
REMARK    2  A    between atoms: N_2  and  C_3
REMARK    3  A    between atoms: N_2  and  C_4
REMARK    4  A    between atoms: C_4  and  C_5
REMARK    5  A    between atoms: C_4  and  C_12
REMARK    6  A    between atoms: C_8  and  O_9
REMARK                            x       y       z     vdW  Elec       q    Type
REMARK                         _______ _______ _______ _____ _____    ______ ____
ROOT
ATOM      1  C   UNL     1       3.981   4.216  18.730  0.00  0.00    +0.000 C 
ENDROOT
BRANCH   1   2
ATOM      2  C   UNL     1       5.050   4.566  17.685  0.00  0.00    +0.000 A 
ATOM      3  C   UNL     1       6.428   4.482  17.938  0.00  0.00    +0.000 A 
ATOM      4  C   UNL     1       7.360   4.755  16.939  0.00  0.00    +0.000 A 
ATOM      5  C   UNL     1       6.925   5.059  15.656  0.00  0.00    +0.000 A 
ATOM      6  C   UNL     1       5.570   5.107  15.364  0.00  0.00    +0.000 A 
ATOM      7  C   UNL     1       4.636   4.876  16.376  0.00  0.00    +0.000 A 
BRANCH   5   8
ATOM      8  O   UNL     1       7.804   5.299  14.643  0.00  0.00    +0.000 OA
ATOM      9  H   UNL     1       8.418   4.550  14.584  0.00  0.00    +0.000 HD
ENDBRANCH   5   8
ENDBRANCH   1   2
BRANCH   1  10
ATOM     10  C   UNL     1       2.686   5.078  18.519  0.00  0.00    +0.000 C 
ATOM     11  C   UNL     1       2.348   5.936  19.751  0.00  0.00    +0.000 C 
ATOM     12  O   UNL     1       2.035   5.110  20.868  0.00  0.00    +0.000 OA
ATOM     13  C   UNL     1       0.915   4.283  20.588  0.00  0.00    +0.000 C 
ATOM     14  O   UNL     1       1.133   3.443  19.462  0.00  0.00    +0.000 OA
ATOM     15  C   UNL     1       1.450   4.202  18.290  0.00  0.00    +0.000 C 
ENDBRANCH   1  10
BRANCH   1  17
ATOM     16  C   UNL     1       3.944   1.878  17.776  0.00  0.00    +0.000 C 
ATOM     17  N   UNL     1       3.730   2.756  18.920  0.00  0.00    +0.000 NA
ATOM     18  C   UNL     1       4.437   2.227  20.091  0.00  0.00    +0.000 C 
ENDBRANCH   1  17
TORSDOF 4
ENDMDL
MODEL 4
REMARK VINA RESULT:      -5.8      1.970      3.398
REMARK  Name = 
REMARK  6 active torsions:
REMARK  status: ('A' for Active; 'I' for Inactive)
REMARK    1  A    between atoms: C_1  and  N_2
REMARK    2  A    between atoms: N_2  and  C_3
REMARK    3  A    between atoms: N_2  and  C_4
REMARK    4  A    between atoms: C_4  and  C_5
REMARK    5  A    between atoms: C_4  and  C_12
REMARK    6  A    between atoms: C_8  and  O_9
REMARK                            x       y       z     vdW  Elec       q    Type
REMARK                         _______ _______ _______ _____ _____    ______ ____
ROOT
ATOM      1  C   UNL     1       2.789   5.222  18.787  0.00  0.00    +0.000 C 
ENDROOT
BRANCH   1   2
ATOM      2  C   UNL     1       4.235   5.087  18.290  0.00  0.00    +0.000 A 
ATOM      3  C   UNL     1       5.352   5.397  19.082  0.00  0.00    +0.000 A 
ATOM      4  C   UNL     1       6.646   5.203  18.606  0.00  0.00    +0.000 A 
ATOM      5  C   UNL     1       6.842   4.640  17.353  0.00  0.00    +0.000 A 
ATOM      6  C   UNL     1       5.759   4.282  16.564  0.00  0.00    +0.000 A 
ATOM      7  C   UNL     1       4.462   4.517  17.023  0.00  0.00    +0.000 A 
BRANCH   5   8
ATOM      8  O   UNL     1       8.092   4.403  16.864  0.00  0.00    +0.000 OA
ATOM      9  H   UNL     1       8.731   4.512  17.587  0.00  0.00    +0.000 HD
ENDBRANCH   5   8
ENDBRANCH   1   2
BRANCH   1  10
ATOM     10  C   UNL     1       2.572   4.411  20.113  0.00  0.00    +0.000 C 
ATOM     11  C   UNL     1       3.263   3.036  20.077  0.00  0.00    +0.000 C 
ATOM     12  O   UNL     1       2.688   2.211  19.068  0.00  0.00    +0.000 OA
ATOM     13  C   UNL     1       1.305   2.002  19.315  0.00  0.00    +0.000 C 
ATOM     14  O   UNL     1       0.574   3.220  19.362  0.00  0.00    +0.000 OA
ATOM     15  C   UNL     1       1.091   4.108  20.359  0.00  0.00    +0.000 C 
ENDBRANCH   1  10
BRANCH   1  17
ATOM     16  C   UNL     1       2.190   7.289  20.110  0.00  0.00    +0.000 C 
ATOM     17  N   UNL     1       2.255   6.617  18.818  0.00  0.00    +0.000 NA
ATOM     18  C   UNL     1       2.928   7.481  17.842  0.00  0.00    +0.000 C 
ENDBRANCH   1  17
TORSDOF 4
ENDMDL
MODEL 5
REMARK VINA RESULT:      -5.8      1.780      2.826
REMARK  Name = 
REMARK  6 active torsions:
REMARK  status: ('A' for Active; 'I' for Inactive)
REMARK    1  A    between atoms: C_1  and  N_2
REMARK    2  A    between atoms: N_2  and  C_3
REMARK    3  A    between atoms: N_2  and  C_4
REMARK    4  A    between atoms: C_4  and  C_5
REMARK    5  A    between atoms: C_4  and  C_12
REMARK    6  A    between atoms: C_8  and  O_9
REMARK                            x       y       z     vdW  Elec       q    Type
REMARK                         _______ _______ _______ _____ _____    ______ ____
ROOT
ATOM      1  C   UNL     1       3.807   4.284  18.038  0.00  0.00    +0.000 C 
ENDROOT
BRANCH   1   2
ATOM      2  C   UNL     1       4.684   4.586  16.815  0.00  0.00    +0.000 A 
ATOM      3  C   UNL     1       4.840   5.874  16.280  0.00  0.00    +0.000 A 
ATOM      4  C   UNL     1       5.692   6.108  15.203  0.00  0.00    +0.000 A 
ATOM      5  C   UNL     1       6.446   5.065  14.684  0.00  0.00    +0.000 A 
ATOM      6  C   UNL     1       6.347   3.789  15.218  0.00  0.00    +0.000 A 
ATOM      7  C   UNL     1       5.461   3.546  16.268  0.00  0.00    +0.000 A 
BRANCH   5   8
ATOM      8  O   UNL     1       7.316   5.258  13.653  0.00  0.00    +0.000 OA
ATOM      9  H   UNL     1       7.146   4.585  12.975  0.00  0.00    +0.000 HD
ENDBRANCH   5   8
ENDBRANCH   1   2
BRANCH   1  10
ATOM     10  C   UNL     1       3.623   2.737  18.228  0.00  0.00    +0.000 C 
ATOM     11  C   UNL     1       2.351   2.210  17.538  0.00  0.00    +0.000 C 
ATOM     12  O   UNL     1       1.187   2.774  18.134  0.00  0.00    +0.000 OA
ATOM     13  C   UNL     1       1.110   2.437  19.511  0.00  0.00    +0.000 C 
ATOM     14  O   UNL     1       2.245   2.887  20.241  0.00  0.00    +0.000 OA
ATOM     15  C   UNL     1       3.463   2.359  19.704  0.00  0.00    +0.000 C 
ENDBRANCH   1  10
BRANCH   1  17
ATOM     16  C   UNL     1       5.566   5.430  19.442  0.00  0.00    +0.000 C 
ATOM     17  N   UNL     1       4.176   5.022  19.283  0.00  0.00    +0.000 NA
ATOM     18  C   UNL     1       3.290   6.167  19.522  0.00  0.00    +0.000 C 
ENDBRANCH   1  17
TORSDOF 4
ENDMDL
MODEL 6
REMARK VINA RESULT:      -5.8      1.791      2.376
REMARK  Name = 
REMARK  6 active torsions:
REMARK  status: ('A' for Active; 'I' for Inactive)
REMARK    1  A    between atoms: C_1  and  N_2
REMARK    2  A    between atoms: N_2  and  C_3
REMARK    3  A    between atoms: N_2  and  C_4
REMARK    4  A    between atoms: C_4  and  C_5
REMARK    5  A    between atoms: C_4  and  C_12
REMARK    6  A    between atoms: C_8  and  O_9
REMARK                            x       y       z     vdW  Elec       q    Type
REMARK                         _______ _______ _______ _____ _____    ______ ____
ROOT
ATOM      1  C   UNL     1       3.895   4.482  19.295  0.00  0.00    +0.000 C 
ENDROOT
BRANCH   1   2
ATOM      2  C   UNL     1       4.999   5.385  18.728  0.00  0.00    +0.000 A 
ATOM      3  C   UNL     1       6.337   5.320  19.148  0.00  0.00    +0.000 A 
ATOM      4  C   UNL     1       7.314   6.122  18.563  0.00  0.00    +0.000 A 
ATOM      5  C   UNL     1       6.977   6.958  17.507  0.00  0.00    +0.000 A 
ATOM      6  C   UNL     1       5.673   7.013  17.040  0.00  0.00    +0.000 A 
ATOM      7  C   UNL     1       4.685   6.242  17.656  0.00  0.00    +0.000 A 
BRANCH   5   8
ATOM      8  O   UNL     1       7.910   7.733  16.885  0.00  0.00    +0.000 OA
ATOM      9  H   UNL     1       8.749   7.649  17.365  0.00  0.00    +0.000 HD
ENDBRANCH   5   8
ENDBRANCH   1   2
BRANCH   1  10
ATOM     10  C   UNL     1       2.497   5.192  19.224  0.00  0.00    +0.000 C 
ATOM     11  C   UNL     1       1.842   5.332  20.610  0.00  0.00    +0.000 C 
ATOM     12  O   UNL     1       1.552   4.051  21.160  0.00  0.00    +0.000 OA
ATOM     13  C   UNL     1       0.659   3.332  20.323  0.00  0.00    +0.000 C 
ATOM     14  O   UNL     1       1.179   3.144  19.013  0.00  0.00    +0.000 OA
ATOM     15  C   UNL     1       1.494   4.393  18.386  0.00  0.00    +0.000 C 
ENDBRANCH   1  10
BRANCH   1  17
ATOM     16  C   UNL     1       4.496   2.828  17.483  0.00  0.00    +0.000 C 
ATOM     17  N   UNL     1       3.903   3.076  18.791  0.00  0.00    +0.000 NA
ATOM     18  C   UNL     1       4.464   2.145  19.777  0.00  0.00    +0.000 C 
ENDBRANCH   1  17
TORSDOF 4
ENDMDL
MODEL 7
REMARK VINA RESULT:      -5.8      2.008      2.387
REMARK  Name = 
REMARK  6 active torsions:
REMARK  status: ('A' for Active; 'I' for Inactive)
REMARK    1  A    between atoms: C_1  and  N_2
REMARK    2  A    between atoms: N_2  and  C_3
REMARK    3  A    between atoms: N_2  and  C_4
REMARK    4  A    between atoms: C_4  and  C_5
REMARK    5  A    between atoms: C_4  and  C_12
REMARK    6  A    between atoms: C_8  and  O_9
REMARK                            x       y       z     vdW  Elec       q    Type
REMARK                         _______ _______ _______ _____ _____    ______ ____
ROOT
ATOM      1  C   UNL     1       3.396   3.774  19.167  0.00  0.00    +0.000 C 
ENDROOT
BRANCH   1   2
ATOM      2  C   UNL     1       4.326   4.787  18.485  0.00  0.00    +0.000 A 
ATOM      3  C   UNL     1       3.867   5.968  17.882  0.00  0.00    +0.000 A 
ATOM      4  C   UNL     1       4.756   6.885  17.326  0.00  0.00    +0.000 A 
ATOM      5  C   UNL     1       6.123   6.661  17.418  0.00  0.00    +0.000 A 
ATOM      6  C   UNL     1       6.610   5.525  18.046  0.00  0.00    +0.000 A 
ATOM      7  C   UNL     1       5.717   4.585  18.564  0.00  0.00    +0.000 A 
BRANCH   5   8
ATOM      8  O   UNL     1       7.027   7.549  16.917  0.00  0.00    +0.000 OA
ATOM      9  H   UNL     1       7.092   8.300  17.529  0.00  0.00    +0.000 HD
ENDBRANCH   5   8
ENDBRANCH   1   2
BRANCH   1  10
ATOM     10  C   UNL     1       2.265   4.505  19.973  0.00  0.00    +0.000 C 
ATOM     11  C   UNL     1       2.550   4.533  21.486  0.00  0.00    +0.000 C 
ATOM     12  O   UNL     1       2.559   3.212  22.019  0.00  0.00    +0.000 OA
ATOM     13  C   UNL     1       1.304   2.579  21.821  0.00  0.00    +0.000 C 
ATOM     14  O   UNL     1       0.950   2.499  20.446  0.00  0.00    +0.000 OA
ATOM     15  C   UNL     1       0.916   3.794  19.834  0.00  0.00    +0.000 C 
ENDBRANCH   1  10
BRANCH   1  17
ATOM     16  C   UNL     1       2.807   2.925  16.862  0.00  0.00    +0.000 C 
ATOM     17  N   UNL     1       2.915   2.663  18.291  0.00  0.00    +0.000 NA
ATOM     18  C   UNL     1       3.670   1.426  18.514  0.00  0.00    +0.000 C 
ENDBRANCH   1  17
TORSDOF 4
ENDMDL
MODEL 8
REMARK VINA RESULT:      -5.8      2.317      5.534
REMARK  Name = 
REMARK  6 active torsions:
REMARK  status: ('A' for Active; 'I' for Inactive)
REMARK    1  A    between atoms: C_1  and  N_2
REMARK    2  A    between atoms: N_2  and  C_3
REMARK    3  A    between atoms: N_2  and  C_4
REMARK    4  A    between atoms: C_4  and  C_5
REMARK    5  A    between atoms: C_4  and  C_12
REMARK    6  A    between atoms: C_8  and  O_9
REMARK                            x       y       z     vdW  Elec       q    Type
REMARK                         _______ _______ _______ _____ _____    ______ ____
ROOT
ATOM      1  C   UNL     1       5.290   4.408  16.991  0.00  0.00    +0.000 C 
ENDROOT
BRANCH   1   2
ATOM      2  C   UNL     1       3.992   3.791  17.531  0.00  0.00    +0.000 A 
ATOM      3  C   UNL     1       2.770   4.480  17.564  0.00  0.00    +0.000 A 
ATOM      4  C   UNL     1       1.606   3.859  18.011  0.00  0.00    +0.000 A 
ATOM      5  C   UNL     1       1.637   2.520  18.376  0.00  0.00    +0.000 A 
ATOM      6  C   UNL     1       2.820   1.800  18.313  0.00  0.00    +0.000 A 
ATOM      7  C   UNL     1       3.995   2.435  17.907  0.00  0.00    +0.000 A 
BRANCH   5   8
ATOM      8  O   UNL     1       0.514   1.866  18.787  0.00  0.00    +0.000 OA
ATOM      9  H   UNL     1       0.776   1.153  19.391  0.00  0.00    +0.000 HD
ENDBRANCH   5   8
ENDBRANCH   1   2
BRANCH   1  10
ATOM     10  C   UNL     1       5.024   5.204  15.664  0.00  0.00    +0.000 C 
ATOM     11  C   UNL     1       5.111   4.307  14.416  0.00  0.00    +0.000 C 
ATOM     12  O   UNL     1       6.431   3.798  14.256  0.00  0.00    +0.000 OA
ATOM     13  C   UNL     1       7.366   4.856  14.102  0.00  0.00    +0.000 C 
ATOM     14  O   UNL     1       7.365   5.743  15.214  0.00  0.00    +0.000 OA
ATOM     15  C   UNL     1       6.066   6.303  15.441  0.00  0.00    +0.000 C 
ENDBRANCH   1  10
BRANCH   1  17
ATOM     16  C   UNL     1       5.552   5.322  19.330  0.00  0.00    +0.000 C 
ATOM     17  N   UNL     1       6.114   5.140  17.998  0.00  0.00    +0.000 NA
ATOM     18  C   UNL     1       7.469   4.586  18.102  0.00  0.00    +0.000 C 
ENDBRANCH   1  17
TORSDOF 4
ENDMDL
MODEL 9
REMARK VINA RESULT:      -5.8      2.496      4.496
REMARK  Name = 
REMARK  6 active torsions:
REMARK  status: ('A' for Active; 'I' for Inactive)
REMARK    1  A    between atoms: C_1  and  N_2
REMARK    2  A    between atoms: N_2  and  C_3
REMARK    3  A    between atoms: N_2  and  C_4
REMARK    4  A    between atoms: C_4  and  C_5
REMARK    5  A    between atoms: C_4  and  C_12
REMARK    6  A    between atoms: C_8  and  O_9
REMARK                            x       y       z     vdW  Elec       q    Type
REMARK                         _______ _______ _______ _____ _____    ______ ____
ROOT
ATOM      1  C   UNL     1       3.782   4.679  18.547  0.00  0.00    +0.000 C 
ENDROOT
BRANCH   1   2
ATOM      2  C   UNL     1       3.184   6.086  18.693  0.00  0.00    +0.000 A 
ATOM      3  C   UNL     1       3.143   7.016  17.643  0.00  0.00    +0.000 A 
ATOM      4  C   UNL     1       2.538   8.260  17.808  0.00  0.00    +0.000 A 
ATOM      5  C   UNL     1       1.914   8.569  19.009  0.00  0.00    +0.000 A 
ATOM      6  C   UNL     1       1.900   7.654  20.051  0.00  0.00    +0.000 A 
ATOM      7  C   UNL     1       2.544   6.425  19.900  0.00  0.00    +0.000 A 
BRANCH   5   8
ATOM      8  O   UNL     1       1.283   9.761  19.199  0.00  0.00    +0.000 OA
ATOM      9  H   UNL     1       0.895  10.042  18.355  0.00  0.00    +0.000 HD
ENDBRANCH   5   8
ENDBRANCH   1   2
BRANCH   1  10
ATOM     10  C   UNL     1       2.921   3.802  17.571  0.00  0.00    +0.000 C 
ATOM     11  C   UNL     1       1.415   3.892  17.877  0.00  0.00    +0.000 C 
ATOM     12  O   UNL     1       1.132   3.356  19.166  0.00  0.00    +0.000 OA
ATOM     13  C   UNL     1       1.514   1.990  19.240  0.00  0.00    +0.000 C 
ATOM     14  O   UNL     1       2.898   1.802  18.975  0.00  0.00    +0.000 OA
ATOM     15  C   UNL     1       3.265   2.314  17.689  0.00  0.00    +0.000 C 
ENDBRANCH   1  10
BRANCH   1  17
ATOM     16  C   UNL     1       5.711   4.963  16.943  0.00  0.00    +0.000 C 
ATOM     17  N   UNL     1       5.252   4.637  18.287  0.00  0.00    +0.000 NA
ATOM     18  C   UNL     1       6.004   5.419  19.273  0.00  0.00    +0.000 C 
ENDBRANCH   1  17
TORSDOF 4
ENDMDL
