MODEL 1
REMARK VINA RESULT:      -7.9      0.000      0.000
REMARK  Name = 
REMARK  3 active torsions:
REMARK  status: ('A' for Active; 'I' for Inactive)
REMARK    1  A    between atoms: C_1  and  N_2
REMARK    2  A    between atoms: C_5  and  N_6
REMARK    3  A    between atoms: C_14  and  N_15
REMARK                            x       y       z     vdW  Elec       q    Type
REMARK                         _______ _______ _______ _____ _____    ______ ____
ROOT
ATOM      1  N   UNL     1       1.576   8.755  19.333  0.00  0.00    +0.000 N 
ATOM      2  C   UNL     1       2.401   8.647  18.212  0.00  0.00    +0.000 C 
ATOM      3  O   UNL     1       2.564   9.533  17.378  0.00  0.00    +0.000 OA
ATOM      4  C   UNL     1       3.121   7.370  18.011  0.00  0.00    +0.000 A 
ATOM      5  C   UNL     1       3.971   7.250  16.904  0.00  0.00    +0.000 A 
ATOM      6  C   UNL     1       4.641   6.059  16.671  0.00  0.00    +0.000 A 
ATOM      7  C   UNL     1       4.462   4.986  17.543  0.00  0.00    +0.000 A 
ATOM      8  C   UNL     1       3.625   5.077  18.680  0.00  0.00    +0.000 A 
ATOM      9  C   UNL     1       3.439   4.002  19.597  0.00  0.00    +0.000 A 
ATOM     10  C   UNL     1       2.540   4.169  20.670  0.00  0.00    +0.000 A 
ATOM     11 CL   UNL     1       2.251   2.877  21.788  0.00  0.00    +0.000 Cl
ATOM     12  C   UNL     1       1.886   5.377  20.885  0.00  0.00    +0.000 A 
ATOM     13  C   UNL     1       2.088   6.440  20.001  0.00  0.00    +0.000 A 
ATOM     14  C   UNL     1       2.943   6.308  18.904  0.00  0.00    +0.000 A 
ATOM     15  C   UNL     1       1.364   7.713  20.238  0.00  0.00    +0.000 C 
ATOM     16  O   UNL     1       0.617   7.786  21.210  0.00  0.00    +0.000 OA
ENDROOT
BRANCH   1  21
ATOM     17  C   UNL     1      -2.031  12.846  21.037  0.00  0.00    +0.000 C 
ATOM     18  N   UNL     1      -1.263  11.632  20.767  0.00  0.00    +0.000 NA
ATOM     19  C   UNL     1      -1.330  11.284  19.342  0.00  0.00    +0.000 C 
ATOM     20  C   UNL     1      -0.609   9.967  19.064  0.00  0.00    +0.000 C 
ATOM     21  C   UNL     1       0.842  10.019  19.562  0.00  0.00    +0.000 C 
ATOM     22  C   UNL     1       0.914  10.490  21.022  0.00  0.00    +0.000 C 
ATOM     23  C   UNL     1       0.126  11.784  21.218  0.00  0.00    +0.000 C 
ENDBRANCH   1  21
BRANCH   9  24
ATOM     24  N   UNL     1       3.973   2.717  19.330  0.00  0.00    +0.000 N 
ATOM     25  H   UNL     1       3.698   2.312  18.443  0.00  0.00    +0.000 HD
ATOM     26  H   UNL     1       4.982   2.680  19.471  0.00  0.00    +0.000 HD
ENDBRANCH   9  24
TORSDOF 2
ENDMDL
MODEL 2
REMARK VINA RESULT:      -7.9      1.657      3.166
REMARK  Name = 
REMARK  3 active torsions:
REMARK  status: ('A' for Active; 'I' for Inactive)
REMARK    1  A    between atoms: C_1  and  N_2
REMARK    2  A    between atoms: C_5  and  N_6
REMARK    3  A    between atoms: C_14  and  N_15
REMARK                            x       y       z     vdW  Elec       q    Type
REMARK                         _______ _______ _______ _____ _____    ______ ____
ROOT
ATOM      1  N   UNL     1       1.539   8.707  19.376  0.00  0.00    +0.000 N 
ATOM      2  C   UNL     1       1.343   7.703  20.327  0.00  0.00    +0.000 C 
ATOM      3  O   UNL     1       0.653   7.824  21.336  0.00  0.00    +0.000 OA
ATOM      4  C   UNL     1       2.021   6.407  20.106  0.00  0.00    +0.000 A 
ATOM      5  C   UNL     1       1.818   5.380  21.035  0.00  0.00    +0.000 A 
ATOM      6  C   UNL     1       2.459   4.161  20.873  0.00  0.00    +0.000 A 
ATOM      7  C   UNL     1       3.304   3.968  19.781  0.00  0.00    +0.000 A 
ATOM      8  C   UNL     1       3.519   4.977  18.813  0.00  0.00    +0.000 A 
ATOM      9  C   UNL     1       4.363   4.799  17.678  0.00  0.00    +0.000 A 
ATOM     10  C   UNL     1       4.560   5.883  16.799  0.00  0.00    +0.000 A 
ATOM     11 CL   UNL     1       5.608   5.726  15.428  0.00  0.00    +0.000 Cl
ATOM     12  C   UNL     1       3.899   7.092  16.981  0.00  0.00    +0.000 A 
ATOM     13  C   UNL     1       3.050   7.259  18.079  0.00  0.00    +0.000 A 
ATOM     14  C   UNL     1       2.854   6.224  18.996  0.00  0.00    +0.000 A 
ATOM     15  C   UNL     1       2.372   8.564  18.265  0.00  0.00    +0.000 C 
ATOM     16  O   UNL     1       2.577   9.451  17.440  0.00  0.00    +0.000 OA
ENDROOT
BRANCH   1  21
ATOM     17  C   UNL     1      -1.849  13.030  20.952  0.00  0.00    +0.000 C 
ATOM     18  N   UNL     1      -1.147  11.770  20.716  0.00  0.00    +0.000 NA
ATOM     19  C   UNL     1      -1.223  11.392  19.300  0.00  0.00    +0.000 C 
ATOM     20  C   UNL     1      -0.574  10.031  19.059  0.00  0.00    +0.000 C 
ATOM     21  C   UNL     1       0.874  10.015  19.569  0.00  0.00    +0.000 C 
ATOM     22  C   UNL     1       0.962  10.516  21.017  0.00  0.00    +0.000 C 
ATOM     23  C   UNL     1       0.245  11.856  21.177  0.00  0.00    +0.000 C 
ENDBRANCH   1  21
BRANCH   9  24
ATOM     24  N   UNL     1       5.161   3.637  17.541  0.00  0.00    +0.000 N 
ATOM     25  H   UNL     1       5.932   3.564  18.193  0.00  0.00    +0.000 HD
ATOM     26  H   UNL     1       4.603   2.784  17.512  0.00  0.00    +0.000 HD
ENDBRANCH   9  24
TORSDOF 2
ENDMDL
MODEL 3
REMARK VINA RESULT:      -7.8      0.759      1.260
REMARK  Name = 
REMARK  3 active torsions:
REMARK  status: ('A' for Active; 'I' for Inactive)
REMARK    1  A    between atoms: C_1  and  N_2
REMARK    2  A    between atoms: C_5  and  N_6
REMARK    3  A    between atoms: C_14  and  N_15
REMARK                            x       y       z     vdW  Elec       q    Type
REMARK                         _______ _______ _______ _____ _____    ______ ____
ROOT
ATOM      1  N   UNL     1       1.544   8.520  19.388  0.00  0.00    +0.000 N 
ATOM      2  C   UNL     1       2.358   8.511  18.253  0.00  0.00    +0.000 C 
ATOM      3  O   UNL     1       2.443   9.436  17.449  0.00  0.00    +0.000 OA
ATOM      4  C   UNL     1       3.166   7.299  17.998  0.00  0.00    +0.000 A 
ATOM      5  C   UNL     1       4.006   7.280  16.878  0.00  0.00    +0.000 A 
ATOM      6  C   UNL     1       4.759   6.151  16.594  0.00  0.00    +0.000 A 
ATOM      7  C   UNL     1       4.672   5.038  17.430  0.00  0.00    +0.000 A 
ATOM      8  C   UNL     1       3.847   5.028  18.580  0.00  0.00    +0.000 A 
ATOM      9  C   UNL     1       3.754   3.911  19.460  0.00  0.00    +0.000 A 
ATOM     10  C   UNL     1       2.861   3.974  20.549  0.00  0.00    +0.000 A 
ATOM     11 CL   UNL     1       2.684   2.627  21.624  0.00  0.00    +0.000 Cl
ATOM     12  C   UNL     1       2.123   5.122  20.815  0.00  0.00    +0.000 A 
ATOM     13  C   UNL     1       2.234   6.228  19.967  0.00  0.00    +0.000 A 
ATOM     14  C   UNL     1       3.080   6.196  18.855  0.00  0.00    +0.000 A 
ATOM     15  C   UNL     1       1.422   7.434  20.258  0.00  0.00    +0.000 C 
ATOM     16  O   UNL     1       0.687   7.419  21.240  0.00  0.00    +0.000 OA
ENDROOT
BRANCH   1  21
ATOM     17  C   UNL     1      -0.884  13.692  19.459  0.00  0.00    +0.000 C 
ATOM     18  N   UNL     1      -0.106  12.475  19.232  0.00  0.00    +0.000 NA
ATOM     19  C   UNL     1       0.665  12.123  20.429  0.00  0.00    +0.000 C 
ATOM     20  C   UNL     1       1.552  10.907  20.174  0.00  0.00    +0.000 C 
ATOM     21  C   UNL     1       0.723   9.718  19.670  0.00  0.00    +0.000 C 
ATOM     22  C   UNL     1      -0.166  10.119  18.485  0.00  0.00    +0.000 C 
ATOM     23  C   UNL     1      -0.979  11.372  18.811  0.00  0.00    +0.000 C 
ENDBRANCH   1  21
BRANCH   9  24
ATOM     24  N   UNL     1       4.377   2.679  19.141  0.00  0.00    +0.000 N 
ATOM     25  H   UNL     1       5.382   2.659  19.267  0.00  0.00    +0.000 HD
ATOM     26  H   UNL     1       3.919   1.886  19.590  0.00  0.00    +0.000 HD
ENDBRANCH   9  24
TORSDOF 2
ENDMDL
MODEL 4
REMARK VINA RESULT:      -7.5      1.934      3.462
REMARK  Name = 
REMARK  3 active torsions:
REMARK  status: ('A' for Active; 'I' for Inactive)
REMARK    1  A    between atoms: C_1  and  N_2
REMARK    2  A    between atoms: C_5  and  N_6
REMARK    3  A    between atoms: C_14  and  N_15
REMARK                            x       y       z     vdW  Elec       q    Type
REMARK                         _______ _______ _______ _____ _____    ______ ____
ROOT
ATOM      1  N   UNL     1       1.492   8.705  19.303  0.00  0.00    +0.000 N 
ATOM      2  C   UNL     1       1.319   7.724  20.282  0.00  0.00    +0.000 C 
ATOM      3  O   UNL     1       0.632   7.860  21.291  0.00  0.00    +0.000 OA
ATOM      4  C   UNL     1       2.021   6.435  20.093  0.00  0.00    +0.000 A 
ATOM      5  C   UNL     1       1.842   5.431  21.052  0.00  0.00    +0.000 A 
ATOM      6  C   UNL     1       2.504   4.220  20.920  0.00  0.00    +0.000 A 
ATOM      7  C   UNL     1       3.347   4.012  19.829  0.00  0.00    +0.000 A 
ATOM      8  C   UNL     1       3.539   4.999  18.832  0.00  0.00    +0.000 A 
ATOM      9  C   UNL     1       4.380   4.804  17.698  0.00  0.00    +0.000 A 
ATOM     10  C   UNL     1       4.553   5.867  16.788  0.00  0.00    +0.000 A 
ATOM     11 CL   UNL     1       5.596   5.693  15.417  0.00  0.00    +0.000 Cl
ATOM     12  C   UNL     1       3.870   7.069  16.941  0.00  0.00    +0.000 A 
ATOM     13  C   UNL     1       3.024   7.250  18.038  0.00  0.00    +0.000 A 
ATOM     14  C   UNL     1       2.852   6.237  18.985  0.00  0.00    +0.000 A 
ATOM     15  C   UNL     1       2.322   8.547  18.191  0.00  0.00    +0.000 C 
ATOM     16  O   UNL     1       2.506   9.414  17.342  0.00  0.00    +0.000 OA
ENDROOT
BRANCH   1  21
ATOM     17  C   UNL     1      -0.592  13.991  18.700  0.00  0.00    +0.000 C 
ATOM     18  N   UNL     1       0.062  12.687  18.605  0.00  0.00    +0.000 NA
ATOM     19  C   UNL     1       1.019  12.507  19.702  0.00  0.00    +0.000 C 
ATOM     20  C   UNL     1       1.776  11.189  19.561  0.00  0.00    +0.000 C 
ATOM     21  C   UNL     1       0.804  10.005  19.464  0.00  0.00    +0.000 C 
ATOM     22  C   UNL     1      -0.264  10.247  18.387  0.00  0.00    +0.000 C 
ATOM     23  C   UNL     1      -0.933  11.608  18.577  0.00  0.00    +0.000 C 
ENDBRANCH   1  21
BRANCH   9  24
ATOM     24  N   UNL     1       5.200   3.654  17.588  0.00  0.00    +0.000 N 
ATOM     25  H   UNL     1       4.721   2.810  17.298  0.00  0.00    +0.000 HD
ATOM     26  H   UNL     1       6.038   3.828  17.035  0.00  0.00    +0.000 HD
ENDBRANCH   9  24
TORSDOF 2
ENDMDL
MODEL 5
REMARK VINA RESULT:      -7.2      2.813      7.351
REMARK  Name = 
REMARK  3 active torsions:
REMARK  status: ('A' for Active; 'I' for Inactive)
REMARK    1  A    between atoms: C_1  and  N_2
REMARK    2  A    between atoms: C_5  and  N_6
REMARK    3  A    between atoms: C_14  and  N_15
REMARK                            x       y       z     vdW  Elec       q    Type
REMARK                         _______ _______ _______ _____ _____    ______ ____
ROOT
ATOM      1  N   UNL     1       2.230   7.132  19.137  0.00  0.00    +0.000 N 
ATOM      2  C   UNL     1       1.551   7.061  20.355  0.00  0.00    +0.000 C 
ATOM      3  O   UNL     1       1.373   6.028  20.995  0.00  0.00    +0.000 OA
ATOM      4  C   UNL     1       1.001   8.318  20.908  0.00  0.00    +0.000 A 
ATOM      5  C   UNL     1       0.337   8.272  22.140  0.00  0.00    +0.000 A 
ATOM      6  C   UNL     1      -0.213   9.427  22.675  0.00  0.00    +0.000 A 
ATOM      7  C   UNL     1      -0.102  10.629  21.978  0.00  0.00    +0.000 A 
ATOM      8  C   UNL     1       0.577  10.716  20.739  0.00  0.00    +0.000 A 
ATOM      9  C   UNL     1       0.721  11.936  20.016  0.00  0.00    +0.000 A 
ATOM     10  C   UNL     1       1.364  11.913  18.762  0.00  0.00    +0.000 A 
ATOM     11 CL   UNL     1       1.528  13.363  17.828  0.00  0.00    +0.000 Cl
ATOM     12  C   UNL     1       1.914  10.742  18.252  0.00  0.00    +0.000 A 
ATOM     13  C   UNL     1       1.796   9.551  18.974  0.00  0.00    +0.000 A 
ATOM     14  C   UNL     1       1.135   9.520  20.204  0.00  0.00    +0.000 A 
ATOM     15  C   UNL     1       2.372   8.310  18.401  0.00  0.00    +0.000 C 
ATOM     16  O   UNL     1       2.939   8.378  17.314  0.00  0.00    +0.000 OA
ENDROOT
BRANCH   1  21
ATOM     17  C   UNL     1       3.719   1.747  17.938  0.00  0.00    +0.000 C 
ATOM     18  N   UNL     1       3.197   3.009  18.460  0.00  0.00    +0.000 NA
ATOM     19  C   UNL     1       4.295   3.890  18.875  0.00  0.00    +0.000 C 
ATOM     20  C   UNL     1       3.761   5.173  19.507  0.00  0.00    +0.000 C 
ATOM     21  C   UNL     1       2.792   5.892  18.558  0.00  0.00    +0.000 C 
ATOM     22  C   UNL     1       1.708   4.936  18.040  0.00  0.00    +0.000 C 
ATOM     23  C   UNL     1       2.329   3.661  17.471  0.00  0.00    +0.000 C 
ENDBRANCH   1  21
BRANCH   9  24
ATOM     24  N   UNL     1       0.051  13.113  20.433  0.00  0.00    +0.000 N 
ATOM     25  H   UNL     1      -0.512  13.563  19.721  0.00  0.00    +0.000 HD
ATOM     26  H   UNL     1      -0.466  12.977  21.301  0.00  0.00    +0.000 HD
ENDBRANCH   9  24
TORSDOF 2
ENDMDL
MODEL 6
REMARK VINA RESULT:      -7.1      2.308      3.721
REMARK  Name = 
REMARK  3 active torsions:
REMARK  status: ('A' for Active; 'I' for Inactive)
REMARK    1  A    between atoms: C_1  and  N_2
REMARK    2  A    between atoms: C_5  and  N_6
REMARK    3  A    between atoms: C_14  and  N_15
REMARK                            x       y       z     vdW  Elec       q    Type
REMARK                         _______ _______ _______ _____ _____    ______ ____
ROOT
ATOM      1  N   UNL     1       2.368   7.282  19.265  0.00  0.00    +0.000 N 
ATOM      2  C   UNL     1       2.039   6.044  19.819  0.00  0.00    +0.000 C 
ATOM      3  O   UNL     1       1.311   5.887  20.796  0.00  0.00    +0.000 OA
ATOM      4  C   UNL     1       2.616   4.836  19.189  0.00  0.00    +0.000 A 
ATOM      5  C   UNL     1       2.280   3.583  19.715  0.00  0.00    +0.000 A 
ATOM      6  C   UNL     1       2.822   2.431  19.165  0.00  0.00    +0.000 A 
ATOM      7  C   UNL     1       3.703   2.532  18.089  0.00  0.00    +0.000 A 
ATOM      8  C   UNL     1       4.052   3.780  17.521  0.00  0.00    +0.000 A 
ATOM      9  C   UNL     1       4.935   3.909  16.409  0.00  0.00    +0.000 A 
ATOM     10  C   UNL     1       5.268   5.199  15.949  0.00  0.00    +0.000 A 
ATOM     11 CL   UNL     1       6.367   5.407  14.627  0.00  0.00    +0.000 Cl
ATOM     12  C   UNL     1       4.703   6.337  16.514  0.00  0.00    +0.000 A 
ATOM     13  C   UNL     1       3.816   6.210  17.587  0.00  0.00    +0.000 A 
ATOM     14  C   UNL     1       3.486   4.953  18.099  0.00  0.00    +0.000 A 
ATOM     15  C   UNL     1       3.242   7.438  18.187  0.00  0.00    +0.000 C 
ATOM     16  O   UNL     1       3.563   8.524  17.713  0.00  0.00    +0.000 OA
ENDROOT
BRANCH   1  21
ATOM     17  C   UNL     1      -0.927  11.244  21.736  0.00  0.00    +0.000 C 
ATOM     18  N   UNL     1      -0.312  10.066  21.125  0.00  0.00    +0.000 NA
ATOM     19  C   UNL     1       0.086  10.350  19.742  0.00  0.00    +0.000 C 
ATOM     20  C   UNL     1       0.645   9.101  19.063  0.00  0.00    +0.000 C 
ATOM     21  C   UNL     1       1.807   8.509  19.873  0.00  0.00    +0.000 C 
ATOM     22  C   UNL     1       1.420   8.317  21.346  0.00  0.00    +0.000 C 
ATOM     23  C   UNL     1       0.825   9.599  21.928  0.00  0.00    +0.000 C 
ENDBRANCH   1  21
BRANCH   9  24
ATOM     24  N   UNL     1       5.638   2.787  15.905  0.00  0.00    +0.000 N 
ATOM     25  H   UNL     1       5.125   1.914  15.920  0.00  0.00    +0.000 HD
ATOM     26  H   UNL     1       6.055   2.970  14.993  0.00  0.00    +0.000 HD
ENDBRANCH   9  24
TORSDOF 2
ENDMDL
MODEL 7
REMARK VINA RESULT:      -7.1      2.256      6.600
REMARK  Name = 
REMARK  3 active torsions:
REMARK  status: ('A' for Active; 'I' for Inactive)
REMARK    1  A    between atoms: C_1  and  N_2
REMARK    2  A    between atoms: C_5  and  N_6
REMARK    3  A    between atoms: C_14  and  N_15
REMARK                            x       y       z     vdW  Elec       q    Type
REMARK                         _______ _______ _______ _____ _____    ______ ____
ROOT
ATOM      1  N   UNL     1       2.416   6.994  18.845  0.00  0.00    +0.000 N 
ATOM      2  C   UNL     1       2.662   8.089  18.014  0.00  0.00    +0.000 C 
ATOM      3  O   UNL     1       3.299   8.039  16.966  0.00  0.00    +0.000 OA
ATOM      4  C   UNL     1       2.123   9.402  18.432  0.00  0.00    +0.000 A 
ATOM      5  C   UNL     1       2.339  10.508  17.601  0.00  0.00    +0.000 A 
ATOM      6  C   UNL     1       1.871  11.758  17.974  0.00  0.00    +0.000 A 
ATOM      7  C   UNL     1       1.187  11.905  19.180  0.00  0.00    +0.000 A 
ATOM      8  C   UNL     1       0.936  10.807  20.037  0.00  0.00    +0.000 A 
ATOM      9  C   UNL     1       0.223  10.927  21.266  0.00  0.00    +0.000 A 
ATOM     10  C   UNL     1       0.073   9.786  22.080  0.00  0.00    +0.000 A 
ATOM     11 CL   UNL     1      -0.751   9.891  23.600  0.00  0.00    +0.000 Cl
ATOM     12  C   UNL     1       0.545   8.542  21.677  0.00  0.00    +0.000 A 
ATOM     13  C   UNL     1       1.221   8.419  20.460  0.00  0.00    +0.000 A 
ATOM     14  C   UNL     1       1.425   9.530  19.638  0.00  0.00    +0.000 A 
ATOM     15  C   UNL     1       1.735   7.086  20.061  0.00  0.00    +0.000 C 
ATOM     16  O   UNL     1       1.540   6.137  20.814  0.00  0.00    +0.000 OA
ENDROOT
BRANCH   1  21
ATOM     17  C   UNL     1       3.695   1.442  18.409  0.00  0.00    +0.000 C 
ATOM     18  N   UNL     1       3.213   2.782  18.742  0.00  0.00    +0.000 NA
ATOM     19  C   UNL     1       4.333   3.662  19.093  0.00  0.00    +0.000 C 
ATOM     20  C   UNL     1       3.835   5.037  19.532  0.00  0.00    +0.000 C 
ATOM     21  C   UNL     1       2.941   5.667  18.455  0.00  0.00    +0.000 C 
ATOM     22  C   UNL     1       1.835   4.700  18.011  0.00  0.00    +0.000 C 
ATOM     23  C   UNL     1       2.418   3.337  17.639  0.00  0.00    +0.000 C 
ENDBRANCH   1  21
BRANCH   9  24
ATOM     24  N   UNL     1      -0.143  12.198  21.773  0.00  0.00    +0.000 N 
ATOM     25  H   UNL     1       0.382  12.979  21.400  0.00  0.00    +0.000 HD
ATOM     26  H   UNL     1      -1.149  12.357  21.728  0.00  0.00    +0.000 HD
ENDBRANCH   9  24
TORSDOF 2
ENDMDL
MODEL 8
REMARK VINA RESULT:      -7.0      1.888      3.367
REMARK  Name = 
REMARK  3 active torsions:
REMARK  status: ('A' for Active; 'I' for Inactive)
REMARK    1  A    between atoms: C_1  and  N_2
REMARK    2  A    between atoms: C_5  and  N_6
REMARK    3  A    between atoms: C_14  and  N_15
REMARK                            x       y       z     vdW  Elec       q    Type
REMARK                         _______ _______ _______ _____ _____    ______ ____
ROOT
ATOM      1  N   UNL     1       1.974   7.626  19.380  0.00  0.00    +0.000 N 
ATOM      2  C   UNL     1       1.460   6.655  20.242  0.00  0.00    +0.000 C 
ATOM      3  O   UNL     1       0.728   6.890  21.199  0.00  0.00    +0.000 OA
ATOM      4  C   UNL     1       1.833   5.246  19.988  0.00  0.00    +0.000 A 
ATOM      5  C   UNL     1       1.309   4.255  20.827  0.00  0.00    +0.000 A 
ATOM      6  C   UNL     1       1.657   2.927  20.633  0.00  0.00    +0.000 A 
ATOM      7  C   UNL     1       2.531   2.588  19.601  0.00  0.00    +0.000 A 
ATOM      8  C   UNL     1       3.067   3.561  18.724  0.00  0.00    +0.000 A 
ATOM      9  C   UNL     1       3.946   3.238  17.650  0.00  0.00    +0.000 A 
ATOM     10  C   UNL     1       4.474   4.284  16.864  0.00  0.00    +0.000 A 
ATOM     11 CL   UNL     1       5.578   3.945  15.573  0.00  0.00    +0.000 Cl
ATOM     12  C   UNL     1       4.101   5.607  17.075  0.00  0.00    +0.000 A 
ATOM     13  C   UNL     1       3.217   5.920  18.111  0.00  0.00    +0.000 A 
ATOM     14  C   UNL     1       2.699   4.920  18.938  0.00  0.00    +0.000 A 
ATOM     15  C   UNL     1       2.850   7.340  18.331  0.00  0.00    +0.000 C 
ATOM     16  O   UNL     1       3.333   8.189  17.587  0.00  0.00    +0.000 OA
ENDROOT
BRANCH   1  21
ATOM     17  C   UNL     1      -0.659  12.591  20.413  0.00  0.00    +0.000 C 
ATOM     18  N   UNL     1      -0.242  11.209  20.178  0.00  0.00    +0.000 NA
ATOM     19  C   UNL     1       0.318  11.060  18.830  0.00  0.00    +0.000 C 
ATOM     20  C   UNL     1       0.671   9.603  18.539  0.00  0.00    +0.000 C 
ATOM     21  C   UNL     1       1.621   9.045  19.608  0.00  0.00    +0.000 C 
ATOM     22  C   UNL     1       1.083   9.301  21.022  0.00  0.00    +0.000 C 
ATOM     23  C   UNL     1       0.709  10.771  21.207  0.00  0.00    +0.000 C 
ENDBRANCH   1  21
BRANCH   9  24
ATOM     24  N   UNL     1       4.458   1.927  17.497  0.00  0.00    +0.000 N 
ATOM     25  H   UNL     1       5.034   1.597  18.263  0.00  0.00    +0.000 HD
ATOM     26  H   UNL     1       3.734   1.255  17.247  0.00  0.00    +0.000 HD
ENDBRANCH   9  24
TORSDOF 2
ENDMDL
MODEL 9
REMARK VINA RESULT:      -7.0      2.833      7.431
REMARK  Name = 
REMARK  3 active torsions:
REMARK  status: ('A' for Active; 'I' for Inactive)
REMARK    1  A    between atoms: C_1  and  N_2
REMARK    2  A    between atoms: C_5  and  N_6
REMARK    3  A    between atoms: C_14  and  N_15
REMARK                            x       y       z     vdW  Elec       q    Type
REMARK                         _______ _______ _______ _____ _____    ______ ____
ROOT
ATOM      1  N   UNL     1       1.931   7.879  19.235  0.00  0.00    +0.000 N 
ATOM      2  C   UNL     1       1.451   7.683  20.532  0.00  0.00    +0.000 C 
ATOM      3  O   UNL     1       1.544   6.632  21.159  0.00  0.00    +0.000 OA
ATOM      4  C   UNL     1       0.775   8.822  21.192  0.00  0.00    +0.000 A 
ATOM      5  C   UNL     1       0.308   8.654  22.501  0.00  0.00    +0.000 A 
ATOM      6  C   UNL     1      -0.352   9.691  23.141  0.00  0.00    +0.000 A 
ATOM      7  C   UNL     1      -0.548  10.898  22.472  0.00  0.00    +0.000 A 
ATOM      8  C   UNL     1      -0.075  11.110  21.155  0.00  0.00    +0.000 A 
ATOM      9  C   UNL     1      -0.245  12.341  20.457  0.00  0.00    +0.000 A 
ATOM     10  C   UNL     1       0.211  12.437  19.126  0.00  0.00    +0.000 A 
ATOM     11 CL   UNL     1      -0.008  13.899  18.223  0.00  0.00    +0.000 Cl
ATOM     12  C   UNL     1       0.878  11.383  18.511  0.00  0.00    +0.000 A 
ATOM     13  C   UNL     1       1.069  10.186  19.205  0.00  0.00    +0.000 A 
ATOM     14  C   UNL     1       0.601  10.033  20.513  0.00  0.00    +0.000 A 
ATOM     15  C   UNL     1       1.764   9.068  18.522  0.00  0.00    +0.000 C 
ATOM     16  O   UNL     1       2.153   9.240  17.371  0.00  0.00    +0.000 OA
ENDROOT
BRANCH   1  21
ATOM     17  C   UNL     1       4.194   2.859  17.710  0.00  0.00    +0.000 C 
ATOM     18  N   UNL     1       3.539   4.007  18.334  0.00  0.00    +0.000 NA
ATOM     19  C   UNL     1       4.502   5.089  18.567  0.00  0.00    +0.000 C 
ATOM     20  C   UNL     1       3.850   6.257  19.303  0.00  0.00    +0.000 C 
ATOM     21  C   UNL     1       2.611   6.759  18.548  0.00  0.00    +0.000 C 
ATOM     22  C   UNL     1       1.657   5.605  18.210  0.00  0.00    +0.000 C 
ATOM     23  C   UNL     1       2.404   4.462  17.522  0.00  0.00    +0.000 C 
ENDBRANCH   1  21
BRANCH   9  24
ATOM     24  N   UNL     1      -1.042  13.380  20.996  0.00  0.00    +0.000 N 
ATOM     25  H   UNL     1      -1.034  13.448  22.007  0.00  0.00    +0.000 HD
ATOM     26  H   UNL     1      -0.860  14.279  20.551  0.00  0.00    +0.000 HD
ENDBRANCH   9  24
TORSDOF 2
ENDMDL
