MODEL 1
REMARK VINA RESULT:      -7.7      0.000      0.000
REMARK  Name = 
REMARK  6 active torsions:
REMARK  status: ('A' for Active; 'I' for Inactive)
REMARK    1  A    between atoms: C_1  and  O_2
REMARK    2  A    between atoms: O_2  and  C_3
REMARK    3  A    between atoms: C_8  and  C_9
REMARK    4  A    between atoms: C_9  and  N_10
REMARK    5  A    between atoms: C_15  and  C_16
REMARK    6  A    between atoms: C_18  and  O_19
REMARK                            x       y       z     vdW  Elec       q    Type
REMARK                         _______ _______ _______ _____ _____    ______ ____
ROOT
ATOM      1  N   UNL     1       8.815   8.691  18.558  0.00  0.00    +0.000 N 
ATOM      2  C   UNL     1       7.937   7.751  18.180  0.00  0.00    +0.000 A 
ATOM      3  N   UNL     1       7.825   6.657  18.980  0.00  0.00    +0.000 NA
ATOM      4  C   UNL     1       6.877   5.944  18.410  0.00  0.00    +0.000 A 
ATOM      5  N   UNL     1       6.293   4.782  18.834  0.00  0.00    +0.000 NA
ATOM      6  C   UNL     1       5.376   4.276  18.065  0.00  0.00    +0.000 A 
ATOM      7  C   UNL     1       4.645   3.038  18.525  0.00  0.00    +0.000 C 
ATOM      8  C   UNL     1       4.952   4.838  16.742  0.00  0.00    +0.000 A 
ATOM      9  C   UNL     1       5.523   5.997  16.381  0.00  0.00    +0.000 A 
ATOM     10  N   UNL     1       6.481   6.584  17.229  0.00  0.00    +0.000 N 
ATOM     11  N   UNL     1       7.140   7.762  17.115  0.00  0.00    +0.000 NA
ATOM     12  H   UNL     1       9.326   8.514  19.412  0.00  0.00    +0.000 HD
ENDROOT
BRANCH   9  13
ATOM     13  O   UNL     1       5.196   6.629  15.191  0.00  0.00    +0.000 OA
ATOM     14  H   UNL     1       4.332   6.318  14.878  0.00  0.00    +0.000 HD
ENDBRANCH   9  13
BRANCH   1  15
ATOM     15  C   UNL     1       8.608  10.097  18.255  0.00  0.00    +0.000 C 
BRANCH  15  21
ATOM     16  C   UNL     1      10.049  11.222  20.062  0.00  0.00    +0.000 A 
ATOM     17  C   UNL     1      11.226  11.899  20.427  0.00  0.00    +0.000 A 
ATOM     18  C   UNL     1      12.118  12.343  19.454  0.00  0.00    +0.000 A 
ATOM     19  C   UNL     1      11.855  12.104  18.109  0.00  0.00    +0.000 A 
ATOM     20  C   UNL     1      10.710  11.397  17.741  0.00  0.00    +0.000 A 
ATOM     21  C   UNL     1       9.793  10.936  18.707  0.00  0.00    +0.000 A 
BRANCH  16  23
ATOM     22  C   UNL     1       8.685  11.768  21.911  0.00  0.00    +0.000 C 
ATOM     23  O   UNL     1       9.147  10.773  20.995  0.00  0.00    +0.000 OA
ENDBRANCH  16  23
ENDBRANCH  15  21
ENDBRANCH   1  15
TORSDOF 4
ENDMDL
MODEL 2
REMARK VINA RESULT:      -7.4      2.231      2.813
REMARK  Name = 
REMARK  6 active torsions:
REMARK  status: ('A' for Active; 'I' for Inactive)
REMARK    1  A    between atoms: C_1  and  O_2
REMARK    2  A    between atoms: O_2  and  C_3
REMARK    3  A    between atoms: C_8  and  C_9
REMARK    4  A    between atoms: C_9  and  N_10
REMARK    5  A    between atoms: C_15  and  C_16
REMARK    6  A    between atoms: C_18  and  O_19
REMARK                            x       y       z     vdW  Elec       q    Type
REMARK                         _______ _______ _______ _____ _____    ______ ____
ROOT
ATOM      1  N   UNL     1       8.604  10.316  18.229  0.00  0.00    +0.000 N 
ATOM      2  C   UNL     1       8.277   9.018  18.158  0.00  0.00    +0.000 A 
ATOM      3  N   UNL     1       7.550   8.624  17.078  0.00  0.00    +0.000 NA
ATOM      4  C   UNL     1       7.424   7.325  17.238  0.00  0.00    +0.000 A 
ATOM      5  N   UNL     1       6.856   6.400  16.404  0.00  0.00    +0.000 NA
ATOM      6  C   UNL     1       6.854   5.168  16.816  0.00  0.00    +0.000 A 
ATOM      7  C   UNL     1       6.311   4.099  15.899  0.00  0.00    +0.000 C 
ATOM      8  C   UNL     1       7.376   4.699  18.140  0.00  0.00    +0.000 A 
ATOM      9  C   UNL     1       7.957   5.630  18.910  0.00  0.00    +0.000 A 
ATOM     10  N   UNL     1       8.012   6.961  18.454  0.00  0.00    +0.000 N 
ATOM     11  N   UNL     1       8.592   8.051  19.015  0.00  0.00    +0.000 NA
ATOM     12  H   UNL     1       8.286  10.904  17.471  0.00  0.00    +0.000 HD
ENDROOT
BRANCH   9  13
ATOM     13  O   UNL     1       8.501   5.316  20.147  0.00  0.00    +0.000 OA
ATOM     14  H   UNL     1       8.392   6.064  20.755  0.00  0.00    +0.000 HD
ENDBRANCH   9  13
BRANCH   1  15
ATOM     15  C   UNL     1       9.830  10.762  18.869  0.00  0.00    +0.000 C 
BRANCH  15  21
ATOM     16  C   UNL     1       9.662  13.261  18.293  0.00  0.00    +0.000 A 
ATOM     17  C   UNL     1      10.254  14.431  17.785  0.00  0.00    +0.000 A 
ATOM     18  C   UNL     1      11.497  14.382  17.160  0.00  0.00    +0.000 A 
ATOM     19  C   UNL     1      12.171  13.170  17.049  0.00  0.00    +0.000 A 
ATOM     20  C   UNL     1      11.610  12.012  17.588  0.00  0.00    +0.000 A 
ATOM     21  C   UNL     1      10.353  12.037  18.226  0.00  0.00    +0.000 A 
BRANCH  16  23
ATOM     22  C   UNL     1       8.366  14.077  20.091  0.00  0.00    +0.000 C 
ATOM     23  O   UNL     1       8.436  13.274  18.911  0.00  0.00    +0.000 OA
ENDBRANCH  16  23
ENDBRANCH  15  21
ENDBRANCH   1  15
TORSDOF 4
ENDMDL
MODEL 3
REMARK VINA RESULT:      -7.3      3.418      8.500
REMARK  Name = 
REMARK  6 active torsions:
REMARK  status: ('A' for Active; 'I' for Inactive)
REMARK    1  A    between atoms: C_1  and  O_2
REMARK    2  A    between atoms: O_2  and  C_3
REMARK    3  A    between atoms: C_8  and  C_9
REMARK    4  A    between atoms: C_9  and  N_10
REMARK    5  A    between atoms: C_15  and  C_16
REMARK    6  A    between atoms: C_18  and  O_19
REMARK                            x       y       z     vdW  Elec       q    Type
REMARK                         _______ _______ _______ _____ _____    ______ ____
ROOT
ATOM      1  N   UNL     1       4.385   2.977  17.297  0.00  0.00    +0.000 N 
ATOM      2  C   UNL     1       5.250   3.961  17.578  0.00  0.00    +0.000 A 
ATOM      3  N   UNL     1       5.126   5.112  16.864  0.00  0.00    +0.000 NA
ATOM      4  C   UNL     1       6.046   5.903  17.375  0.00  0.00    +0.000 A 
ATOM      5  N   UNL     1       6.313   7.215  17.095  0.00  0.00    +0.000 NA
ATOM      6  C   UNL     1       7.297   7.760  17.744  0.00  0.00    +0.000 A 
ATOM      7  C   UNL     1       7.582   9.227  17.531  0.00  0.00    +0.000 C 
ATOM      8  C   UNL     1       8.180   7.053  18.727  0.00  0.00    +0.000 A 
ATOM      9  C   UNL     1       7.861   5.780  19.000  0.00  0.00    +0.000 A 
ATOM     10  N   UNL     1       6.765   5.191  18.341  0.00  0.00    +0.000 N 
ATOM     11  N   UNL     1       6.218   3.960  18.490  0.00  0.00    +0.000 NA
ATOM     12  H   UNL     1       3.704   3.167  16.575  0.00  0.00    +0.000 HD
ENDROOT
BRANCH   9  13
ATOM     13  O   UNL     1       8.587   5.027  19.910  0.00  0.00    +0.000 OA
ATOM     14  H   UNL     1       8.032   4.805  20.674  0.00  0.00    +0.000 HD
ENDBRANCH   9  13
BRANCH   1  15
ATOM     15  C   UNL     1       3.949   2.030  18.309  0.00  0.00    +0.000 C 
BRANCH  15  21
ATOM     16  C   UNL     1       1.859   3.380  18.956  0.00  0.00    +0.000 A 
ATOM     17  C   UNL     1       0.990   3.868  19.947  0.00  0.00    +0.000 A 
ATOM     18  C   UNL     1       1.306   3.732  21.297  0.00  0.00    +0.000 A 
ATOM     19  C   UNL     1       2.484   3.095  21.673  0.00  0.00    +0.000 A 
ATOM     20  C   UNL     1       3.332   2.571  20.697  0.00  0.00    +0.000 A 
ATOM     21  C   UNL     1       3.033   2.695  19.324  0.00  0.00    +0.000 A 
BRANCH  16  23
ATOM     22  C   UNL     1       1.282   4.829  17.182  0.00  0.00    +0.000 C 
ATOM     23  O   UNL     1       1.579   3.500  17.617  0.00  0.00    +0.000 OA
ENDBRANCH  16  23
ENDBRANCH  15  21
ENDBRANCH   1  15
TORSDOF 4
ENDMDL
MODEL 4
REMARK VINA RESULT:      -7.3      6.469      9.818
REMARK  Name = 
REMARK  6 active torsions:
REMARK  status: ('A' for Active; 'I' for Inactive)
REMARK    1  A    between atoms: C_1  and  O_2
REMARK    2  A    between atoms: O_2  and  C_3
REMARK    3  A    between atoms: C_8  and  C_9
REMARK    4  A    between atoms: C_9  and  N_10
REMARK    5  A    between atoms: C_15  and  C_16
REMARK    6  A    between atoms: C_18  and  O_19
REMARK                            x       y       z     vdW  Elec       q    Type
REMARK                         _______ _______ _______ _____ _____    ______ ____
ROOT
ATOM      1  N   UNL     1       2.291   6.962  20.071  0.00  0.00    +0.000 N 
ATOM      2  C   UNL     1       1.573   8.010  20.496  0.00  0.00    +0.000 A 
ATOM      3  N   UNL     1       1.303   8.983  19.584  0.00  0.00    +0.000 NA
ATOM      4  C   UNL     1       0.557   9.840  20.246  0.00  0.00    +0.000 A 
ATOM      5  N   UNL     1      -0.071  10.970  19.797  0.00  0.00    +0.000 NA
ATOM      6  C   UNL     1      -0.744  11.650  20.676  0.00  0.00    +0.000 A 
ATOM      7  C   UNL     1      -1.521  12.860  20.216  0.00  0.00    +0.000 C 
ATOM      8  C   UNL     1      -0.841  11.320  22.134  0.00  0.00    +0.000 A 
ATOM      9  C   UNL     1      -0.242  10.186  22.525  0.00  0.00    +0.000 A 
ATOM     10  N   UNL     1       0.448   9.411  21.574  0.00  0.00    +0.000 N 
ATOM     11  N   UNL     1       1.071   8.215  21.711  0.00  0.00    +0.000 NA
ATOM     12  H   UNL     1       2.576   6.973  19.101  0.00  0.00    +0.000 HD
ENDROOT
BRANCH   9  13
ATOM     13  O   UNL     1      -0.281   9.760  23.845  0.00  0.00    +0.000 OA
ATOM     14  H   UNL     1      -1.124  10.017  24.250  0.00  0.00    +0.000 HD
ENDBRANCH   9  13
BRANCH   1  15
ATOM     15  C   UNL     1       2.115   5.635  20.636  0.00  0.00    +0.000 C 
BRANCH  15  21
ATOM     16  C   UNL     1       3.254   4.492  18.635  0.00  0.00    +0.000 A 
ATOM     17  C   UNL     1       3.335   3.409  17.741  0.00  0.00    +0.000 A 
ATOM     18  C   UNL     1       2.342   2.432  17.720  0.00  0.00    +0.000 A 
ATOM     19  C   UNL     1       1.267   2.516  18.599  0.00  0.00    +0.000 A 
ATOM     20  C   UNL     1       1.201   3.565  19.517  0.00  0.00    +0.000 A 
ATOM     21  C   UNL     1       2.194   4.565  19.558  0.00  0.00    +0.000 A 
BRANCH  16  23
ATOM     22  C   UNL     1       5.490   5.044  19.157  0.00  0.00    +0.000 C 
ATOM     23  O   UNL     1       4.213   5.473  18.679  0.00  0.00    +0.000 OA
ENDBRANCH  16  23
ENDBRANCH  15  21
ENDBRANCH   1  15
TORSDOF 4
ENDMDL
MODEL 5
REMARK VINA RESULT:      -7.1      1.102      2.008
REMARK  Name = 
REMARK  6 active torsions:
REMARK  status: ('A' for Active; 'I' for Inactive)
REMARK    1  A    between atoms: C_1  and  O_2
REMARK    2  A    between atoms: O_2  and  C_3
REMARK    3  A    between atoms: C_8  and  C_9
REMARK    4  A    between atoms: C_9  and  N_10
REMARK    5  A    between atoms: C_15  and  C_16
REMARK    6  A    between atoms: C_18  and  O_19
REMARK                            x       y       z     vdW  Elec       q    Type
REMARK                         _______ _______ _______ _____ _____    ______ ____
ROOT
ATOM      1  N   UNL     1       8.831   8.489  18.585  0.00  0.00    +0.000 N 
ATOM      2  C   UNL     1       7.928   7.574  18.210  0.00  0.00    +0.000 A 
ATOM      3  N   UNL     1       7.733   6.522  19.050  0.00  0.00    +0.000 NA
ATOM      4  C   UNL     1       6.777   5.827  18.472  0.00  0.00    +0.000 A 
ATOM      5  N   UNL     1       6.124   4.712  18.921  0.00  0.00    +0.000 NA
ATOM      6  C   UNL     1       5.217   4.213  18.135  0.00  0.00    +0.000 A 
ATOM      7  C   UNL     1       4.412   3.030  18.617  0.00  0.00    +0.000 C 
ATOM      8  C   UNL     1       4.874   4.733  16.772  0.00  0.00    +0.000 A 
ATOM      9  C   UNL     1       5.511   5.848  16.387  0.00  0.00    +0.000 A 
ATOM     10  N   UNL     1       6.459   6.429  17.249  0.00  0.00    +0.000 N 
ATOM     11  N   UNL     1       7.176   7.571  17.113  0.00  0.00    +0.000 NA
ATOM     12  H   UNL     1       9.299   8.330  19.466  0.00  0.00    +0.000 HD
ENDROOT
BRANCH   9  13
ATOM     13  O   UNL     1       5.262   6.440  15.157  0.00  0.00    +0.000 OA
ATOM     14  H   UNL     1       6.042   6.353  14.586  0.00  0.00    +0.000 HD
ENDBRANCH   9  13
BRANCH   1  15
ATOM     15  C   UNL     1       8.702   9.888  18.212  0.00  0.00    +0.000 C 
BRANCH  15  21
ATOM     16  C   UNL     1      10.455  11.685  18.767  0.00  0.00    +0.000 A 
ATOM     17  C   UNL     1      11.028  12.576  19.692  0.00  0.00    +0.000 A 
ATOM     18  C   UNL     1      10.656  12.540  21.033  0.00  0.00    +0.000 A 
ATOM     19  C   UNL     1       9.699  11.626  21.464  0.00  0.00    +0.000 A 
ATOM     20  C   UNL     1       9.095  10.768  20.545  0.00  0.00    +0.000 A 
ATOM     21  C   UNL     1       9.454  10.786  19.182  0.00  0.00    +0.000 A 
BRANCH  16  23
ATOM     22  C   UNL     1      11.315  12.936  16.957  0.00  0.00    +0.000 C 
ATOM     23  O   UNL     1      10.801  11.692  17.438  0.00  0.00    +0.000 OA
ENDBRANCH  16  23
ENDBRANCH  15  21
ENDBRANCH   1  15
TORSDOF 4
ENDMDL
MODEL 6
REMARK VINA RESULT:      -7.1      2.243      3.247
REMARK  Name = 
REMARK  6 active torsions:
REMARK  status: ('A' for Active; 'I' for Inactive)
REMARK    1  A    between atoms: C_1  and  O_2
REMARK    2  A    between atoms: O_2  and  C_3
REMARK    3  A    between atoms: C_8  and  C_9
REMARK    4  A    between atoms: C_9  and  N_10
REMARK    5  A    between atoms: C_15  and  C_16
REMARK    6  A    between atoms: C_18  and  O_19
REMARK                            x       y       z     vdW  Elec       q    Type
REMARK                         _______ _______ _______ _____ _____    ______ ____
ROOT
ATOM      1  N   UNL     1       8.784  10.231  18.285  0.00  0.00    +0.000 N 
ATOM      2  C   UNL     1       8.390   8.954  18.195  0.00  0.00    +0.000 A 
ATOM      3  N   UNL     1       7.659   8.610  17.101  0.00  0.00    +0.000 NA
ATOM      4  C   UNL     1       7.461   7.317  17.245  0.00  0.00    +0.000 A 
ATOM      5  N   UNL     1       6.857   6.433  16.394  0.00  0.00    +0.000 NA
ATOM      6  C   UNL     1       6.784   5.199  16.793  0.00  0.00    +0.000 A 
ATOM      7  C   UNL     1       6.199   4.168  15.858  0.00  0.00    +0.000 C 
ATOM      8  C   UNL     1       7.262   4.689  18.119  0.00  0.00    +0.000 A 
ATOM      9  C   UNL     1       7.880   5.580  18.907  0.00  0.00    +0.000 A 
ATOM     10  N   UNL     1       8.012   6.911  18.466  0.00  0.00    +0.000 N 
ATOM     11  N   UNL     1       8.640   7.962  19.046  0.00  0.00    +0.000 NA
ATOM     12  H   UNL     1       8.509  10.843  17.529  0.00  0.00    +0.000 HD
ENDROOT
BRANCH   9  13
ATOM     13  O   UNL     1       8.388   5.226  20.148  0.00  0.00    +0.000 OA
ATOM     14  H   UNL     1       8.186   4.295  20.333  0.00  0.00    +0.000 HD
ENDBRANCH   9  13
BRANCH   1  15
ATOM     15  C   UNL     1      10.023  10.605  18.947  0.00  0.00    +0.000 C 
BRANCH  15  21
ATOM     16  C   UNL     1       9.816  13.163  18.802  0.00  0.00    +0.000 A 
ATOM     17  C   UNL     1       9.597  14.400  19.434  0.00  0.00    +0.000 A 
ATOM     18  C   UNL     1       9.534  14.485  20.823  0.00  0.00    +0.000 A 
ATOM     19  C   UNL     1       9.674  13.336  21.595  0.00  0.00    +0.000 A 
ATOM     20  C   UNL     1       9.850  12.099  20.975  0.00  0.00    +0.000 A 
ATOM     21  C   UNL     1       9.916  11.988  19.571  0.00  0.00    +0.000 A 
BRANCH  16  23
ATOM     22  C   UNL     1      11.115  13.492  16.857  0.00  0.00    +0.000 C 
ATOM     23  O   UNL     1       9.887  13.045  17.435  0.00  0.00    +0.000 OA
ENDBRANCH  16  23
ENDBRANCH  15  21
ENDBRANCH   1  15
TORSDOF 4
ENDMDL
MODEL 7
REMARK VINA RESULT:      -7.1      7.034      9.849
REMARK  Name = 
REMARK  6 active torsions:
REMARK  status: ('A' for Active; 'I' for Inactive)
REMARK    1  A    between atoms: C_1  and  O_2
REMARK    2  A    between atoms: O_2  and  C_3
REMARK    3  A    between atoms: C_8  and  C_9
REMARK    4  A    between atoms: C_9  and  N_10
REMARK    5  A    between atoms: C_15  and  C_16
REMARK    6  A    between atoms: C_18  and  O_19
REMARK                            x       y       z     vdW  Elec       q    Type
REMARK                         _______ _______ _______ _____ _____    ______ ____
ROOT
ATOM      1  N   UNL     1       1.872   6.988  20.829  0.00  0.00    +0.000 N 
ATOM      2  C   UNL     1       1.386   8.226  20.670  0.00  0.00    +0.000 A 
ATOM      3  N   UNL     1       1.190   8.961  21.797  0.00  0.00    +0.000 NA
ATOM      4  C   UNL     1       0.769  10.123  21.349  0.00  0.00    +0.000 A 
ATOM      5  N   UNL     1       0.498  11.273  22.040  0.00  0.00    +0.000 NA
ATOM      6  C   UNL     1       0.079  12.286  21.344  0.00  0.00    +0.000 A 
ATOM      7  C   UNL     1      -0.157  13.601  22.047  0.00  0.00    +0.000 C 
ATOM      8  C   UNL     1      -0.173  12.274  19.867  0.00  0.00    +0.000 A 
ATOM      9  C   UNL     1       0.140  11.141  19.222  0.00  0.00    +0.000 A 
ATOM     10  N   UNL     1       0.643  10.050  19.956  0.00  0.00    +0.000 N 
ATOM     11  N   UNL     1       1.081   8.841  19.530  0.00  0.00    +0.000 NA
ATOM     12  H   UNL     1       2.059   6.694  21.778  0.00  0.00    +0.000 HD
ENDROOT
BRANCH   9  13
ATOM     13  O   UNL     1      -0.026  11.014  17.851  0.00  0.00    +0.000 OA
ATOM     14  H   UNL     1      -0.182  10.084  17.622  0.00  0.00    +0.000 HD
ENDBRANCH   9  13
BRANCH   1  15
ATOM     15  C   UNL     1       2.715   6.361  19.824  0.00  0.00    +0.000 C 
BRANCH  15  21
ATOM     16  C   UNL     1       2.526   4.378  18.200  0.00  0.00    +0.000 A 
ATOM     17  C   UNL     1       2.066   3.079  17.921  0.00  0.00    +0.000 A 
ATOM     18  C   UNL     1       1.195   2.432  18.794  0.00  0.00    +0.000 A 
ATOM     19  C   UNL     1       0.784   3.068  19.962  0.00  0.00    +0.000 A 
ATOM     20  C   UNL     1       1.269   4.340  20.268  0.00  0.00    +0.000 A 
ATOM     21  C   UNL     1       2.152   5.014  19.400  0.00  0.00    +0.000 A 
BRANCH  16  23
ATOM     22  C   UNL     1       4.492   4.272  16.896  0.00  0.00    +0.000 C 
ATOM     23  O   UNL     1       3.382   5.045  17.359  0.00  0.00    +0.000 OA
ENDBRANCH  16  23
ENDBRANCH  15  21
ENDBRANCH   1  15
TORSDOF 4
ENDMDL
MODEL 8
REMARK VINA RESULT:      -7.0      2.960      7.841
REMARK  Name = 
REMARK  6 active torsions:
REMARK  status: ('A' for Active; 'I' for Inactive)
REMARK    1  A    between atoms: C_1  and  O_2
REMARK    2  A    between atoms: O_2  and  C_3
REMARK    3  A    between atoms: C_8  and  C_9
REMARK    4  A    between atoms: C_9  and  N_10
REMARK    5  A    between atoms: C_15  and  C_16
REMARK    6  A    between atoms: C_18  and  O_19
REMARK                            x       y       z     vdW  Elec       q    Type
REMARK                         _______ _______ _______ _____ _____    ______ ____
ROOT
ATOM      1  N   UNL     1       4.412   4.214  16.409  0.00  0.00    +0.000 N 
ATOM      2  C   UNL     1       5.358   4.989  16.956  0.00  0.00    +0.000 A 
ATOM      3  N   UNL     1       5.583   6.195  16.368  0.00  0.00    +0.000 NA
ATOM      4  C   UNL     1       6.501   6.751  17.127  0.00  0.00    +0.000 A 
ATOM      5  N   UNL     1       7.043   8.006  17.054  0.00  0.00    +0.000 NA
ATOM      6  C   UNL     1       7.953   8.299  17.932  0.00  0.00    +0.000 A 
ATOM      7  C   UNL     1       8.525   9.696  17.945  0.00  0.00    +0.000 C 
ATOM      8  C   UNL     1       8.482   7.362  18.975  0.00  0.00    +0.000 A 
ATOM      9  C   UNL     1       7.899   6.156  19.036  0.00  0.00    +0.000 A 
ATOM     10  N   UNL     1       6.875   5.841  18.123  0.00  0.00    +0.000 N 
ATOM     11  N   UNL     1       6.105   4.731  18.026  0.00  0.00    +0.000 NA
ATOM     12  H   UNL     1       3.934   4.587  15.600  0.00  0.00    +0.000 HD
ENDROOT
BRANCH   9  13
ATOM     13  O   UNL     1       8.284   5.208  19.973  0.00  0.00    +0.000 OA
ATOM     14  H   UNL     1       7.506   4.723  20.291  0.00  0.00    +0.000 HD
ENDBRANCH   9  13
BRANCH   1  15
ATOM     15  C   UNL     1       3.621   3.292  17.208  0.00  0.00    +0.000 C 
BRANCH  15  21
ATOM     16  C   UNL     1       2.841   3.424  19.653  0.00  0.00    +0.000 A 
ATOM     17  C   UNL     1       2.331   4.179  20.724  0.00  0.00    +0.000 A 
ATOM     18  C   UNL     1       1.886   5.484  20.523  0.00  0.00    +0.000 A 
ATOM     19  C   UNL     1       1.960   6.055  19.256  0.00  0.00    +0.000 A 
ATOM     20  C   UNL     1       2.503   5.327  18.197  0.00  0.00    +0.000 A 
ATOM     21  C   UNL     1       2.961   4.006  18.376  0.00  0.00    +0.000 A 
BRANCH  16  23
ATOM     22  C   UNL     1       4.567   2.014  20.433  0.00  0.00    +0.000 C 
ATOM     23  O   UNL     1       3.284   2.135  19.816  0.00  0.00    +0.000 OA
ENDBRANCH  16  23
ENDBRANCH  15  21
ENDBRANCH   1  15
TORSDOF 4
ENDMDL
MODEL 9
REMARK VINA RESULT:      -7.0      7.303     10.025
REMARK  Name = 
REMARK  6 active torsions:
REMARK  status: ('A' for Active; 'I' for Inactive)
REMARK    1  A    between atoms: C_1  and  O_2
REMARK    2  A    between atoms: O_2  and  C_3
REMARK    3  A    between atoms: C_8  and  C_9
REMARK    4  A    between atoms: C_9  and  N_10
REMARK    5  A    between atoms: C_15  and  C_16
REMARK    6  A    between atoms: C_18  and  O_19
REMARK                            x       y       z     vdW  Elec       q    Type
REMARK                         _______ _______ _______ _____ _____    ______ ____
ROOT
ATOM      1  N   UNL     1       2.329   7.156  19.988  0.00  0.00    +0.000 N 
ATOM      2  C   UNL     1       1.571   8.155  20.459  0.00  0.00    +0.000 A 
ATOM      3  N   UNL     1       1.199   9.117  19.572  0.00  0.00    +0.000 NA
ATOM      4  C   UNL     1       0.435   9.921  20.278  0.00  0.00    +0.000 A 
ATOM      5  N   UNL     1      -0.281  11.014  19.872  0.00  0.00    +0.000 NA
ATOM      6  C   UNL     1      -0.951  11.645  20.789  0.00  0.00    +0.000 A 
ATOM      7  C   UNL     1      -1.821  12.809  20.380  0.00  0.00    +0.000 C 
ATOM      8  C   UNL     1      -0.959  11.297  22.246  0.00  0.00    +0.000 A 
ATOM      9  C   UNL     1      -0.275  10.198  22.596  0.00  0.00    +0.000 A 
ATOM     10  N   UNL     1       0.416   9.475  21.605  0.00  0.00    +0.000 N 
ATOM     11  N   UNL     1       1.115   8.319  21.698  0.00  0.00    +0.000 NA
ATOM     12  H   UNL     1       2.567   7.193  19.007  0.00  0.00    +0.000 HD
ENDROOT
BRANCH   9  13
ATOM     13  O   UNL     1      -0.225   9.759  23.911  0.00  0.00    +0.000 OA
ATOM     14  H   UNL     1       0.569  10.109  24.346  0.00  0.00    +0.000 HD
ENDBRANCH   9  13
BRANCH   1  15
ATOM     15  C   UNL     1       2.262   5.816  20.546  0.00  0.00    +0.000 C 
BRANCH  15  21
ATOM     16  C   UNL     1       1.655   3.556  19.480  0.00  0.00    +0.000 A 
ATOM     17  C   UNL     1       1.717   2.677  18.385  0.00  0.00    +0.000 A 
ATOM     18  C   UNL     1       2.538   2.958  17.296  0.00  0.00    +0.000 A 
ATOM     19  C   UNL     1       3.295   4.125  17.280  0.00  0.00    +0.000 A 
ATOM     20  C   UNL     1       3.207   5.024  18.343  0.00  0.00    +0.000 A 
ATOM     21  C   UNL     1       2.383   4.762  19.457  0.00  0.00    +0.000 A 
BRANCH  16  23
ATOM     22  C   UNL     1       1.484   2.555  21.612  0.00  0.00    +0.000 C 
ATOM     23  O   UNL     1       0.859   3.308  20.571  0.00  0.00    +0.000 OA
ENDBRANCH  16  23
ENDBRANCH  15  21
ENDBRANCH   1  15
TORSDOF 4
ENDMDL
