MODEL 1
REMARK VINA RESULT:      -9.4      0.000      0.000
REMARK  Name = 
REMARK  5 active torsions:
REMARK  status: ('A' for Active; 'I' for Inactive)
REMARK    1  A    between atoms: C_1  and  O_2
REMARK    2  A    between atoms: O_2  and  C_3
REMARK    3  A    between atoms: C_6  and  C_7
REMARK    4  A    between atoms: C_7  and  C_8
REMARK    5  A    between atoms: C_12  and  C_13
REMARK                            x       y       z     vdW  Elec       q    Type
REMARK                         _______ _______ _______ _____ _____    ______ ____
ROOT
ATOM      1  C   UNL     1       3.157   5.066  18.575  0.00  0.00    +0.000 C 
ATOM      2  N   UNL     1       2.347   4.371  17.450  0.00  0.00    +0.000 NA
ATOM      3  C   UNL     1       1.941   3.257  17.969  0.00  0.00    +0.000 C 
ATOM      4  N   UNL     1       1.768   2.138  17.234  0.00  0.00    +0.000 N 
ATOM      5  N   UNL     1       2.039   3.112  19.306  0.00  0.00    +0.000 N 
ATOM      6  C   UNL     1       0.851   2.990  20.142  0.00  0.00    +0.000 C 
ATOM      7  C   UNL     1       1.314   2.625  21.551  0.00  0.00    +0.000 C 
ATOM      8  C   UNL     1       2.818   2.886  21.722  0.00  0.00    +0.000 C 
ATOM      9  N   UNL     1       3.267   4.135  21.030  0.00  0.00    +0.000 NA
ATOM     10  C   UNL     1       2.869   4.098  19.788  0.00  0.00    +0.000 C 
ATOM     11  H   UNL     1       2.166   2.309  16.311  0.00  0.00    +0.000 HD
ATOM     12  H   UNL     1       2.290   1.372  17.655  0.00  0.00    +0.000 HD
ENDROOT
BRANCH   1  16
ATOM     13  C   UNL     1       1.501   9.062  19.096  0.00  0.00    +0.000 A 
ATOM     14  C   UNL     1       1.533   8.154  20.149  0.00  0.00    +0.000 A 
ATOM     15  C   UNL     1       2.134   6.907  19.989  0.00  0.00    +0.000 A 
ATOM     16  C   UNL     1       2.710   6.520  18.763  0.00  0.00    +0.000 A 
ATOM     17  C   UNL     1       2.674   7.448  17.708  0.00  0.00    +0.000 A 
ATOM     18  C   UNL     1       2.075   8.710  17.874  0.00  0.00    +0.000 A 
BRANCH  13  20
ATOM     19  C   UNL     1      -0.283  10.101  20.246  0.00  0.00    +0.000 C 
ATOM     20  O   UNL     1       0.825  10.220  19.364  0.00  0.00    +0.000 OA
ENDBRANCH  13  20
ENDBRANCH   1  16
BRANCH   1  21
ATOM     21  C   UNL     1       4.612   5.021  18.087  0.00  0.00    +0.000 A 
ATOM     22  C   UNL     1       5.675   5.169  19.013  0.00  0.00    +0.000 A 
ATOM     23  C   UNL     1       6.994   5.131  18.619  0.00  0.00    +0.000 A 
ATOM     24  C   UNL     1       7.300   4.915  17.279  0.00  0.00    +0.000 A 
ATOM     25  C   UNL     1       6.283   4.750  16.319  0.00  0.00    +0.000 A 
ATOM     26  C   UNL     1       4.944   4.801  16.749  0.00  0.00    +0.000 A 
BRANCH  25  27
ATOM     27  C   UNL     1       6.598   4.581  14.892  0.00  0.00    +0.000 A 
ATOM     28  C   UNL     1       5.935   3.604  14.119  0.00  0.00    +0.000 A 
ATOM     29  C   UNL     1       6.174   3.516  12.744  0.00  0.00    +0.000 A 
ATOM     30 CL   UNL     1       5.302   2.362  11.810  0.00  0.00    +0.000 Cl
ATOM     31  C   UNL     1       7.079   4.358  12.121  0.00  0.00    +0.000 A 
ATOM     32  C   UNL     1       7.759   5.309  12.886  0.00  0.00    +0.000 A 
ATOM     33 CL   UNL     1       8.891   6.361  12.133  0.00  0.00    +0.000 Cl
ATOM     34  C   UNL     1       7.520   5.417  14.254  0.00  0.00    +0.000 A 
ENDBRANCH  25  27
ENDBRANCH   1  21
TORSDOF 4
ENDMDL
MODEL 2
REMARK VINA RESULT:      -9.3      0.280      1.616
REMARK  Name = 
REMARK  5 active torsions:
REMARK  status: ('A' for Active; 'I' for Inactive)
REMARK    1  A    between atoms: C_1  and  O_2
REMARK    2  A    between atoms: O_2  and  C_3
REMARK    3  A    between atoms: C_6  and  C_7
REMARK    4  A    between atoms: C_7  and  C_8
REMARK    5  A    between atoms: C_12  and  C_13
REMARK                            x       y       z     vdW  Elec       q    Type
REMARK                         _______ _______ _______ _____ _____    ______ ____
ROOT
ATOM      1  C   UNL     1       3.119   5.044  18.615  0.00  0.00    +0.000 C 
ATOM      2  N   UNL     1       2.283   4.367  17.498  0.00  0.00    +0.000 NA
ATOM      3  C   UNL     1       1.883   3.248  18.012  0.00  0.00    +0.000 C 
ATOM      4  N   UNL     1       1.689   2.140  17.266  0.00  0.00    +0.000 N 
ATOM      5  N   UNL     1       2.008   3.086  19.344  0.00  0.00    +0.000 N 
ATOM      6  C   UNL     1       0.837   2.958  20.203  0.00  0.00    +0.000 C 
ATOM      7  C   UNL     1       1.327   2.573  21.598  0.00  0.00    +0.000 C 
ATOM      8  C   UNL     1       2.836   2.826  21.741  0.00  0.00    +0.000 C 
ATOM      9  N   UNL     1       3.276   4.081  21.055  0.00  0.00    +0.000 NA
ATOM     10  C   UNL     1       2.853   4.062  19.822  0.00  0.00    +0.000 C 
ATOM     11  H   UNL     1       2.069   2.321  16.337  0.00  0.00    +0.000 HD
ATOM     12  H   UNL     1       2.217   1.366  17.666  0.00  0.00    +0.000 HD
ENDROOT
BRANCH   1  16
ATOM     13  C   UNL     1       1.492   9.040  19.221  0.00  0.00    +0.000 A 
ATOM     14  C   UNL     1       1.542   8.118  20.262  0.00  0.00    +0.000 A 
ATOM     15  C   UNL     1       2.135   6.871  20.073  0.00  0.00    +0.000 A 
ATOM     16  C   UNL     1       2.683   6.498  18.831  0.00  0.00    +0.000 A 
ATOM     17  C   UNL     1       2.628   7.439  17.789  0.00  0.00    +0.000 A 
ATOM     18  C   UNL     1       2.039   8.702  17.983  0.00  0.00    +0.000 A 
BRANCH  13  20
ATOM     19  C   UNL     1      -0.366  10.432  18.784  0.00  0.00    +0.000 C 
ATOM     20  O   UNL     1       0.827  10.198  19.518  0.00  0.00    +0.000 OA
ENDBRANCH  13  20
ENDBRANCH   1  16
BRANCH   1  21
ATOM     21  C   UNL     1       4.564   4.999  18.096  0.00  0.00    +0.000 A 
ATOM     22  C   UNL     1       5.647   5.096  19.006  0.00  0.00    +0.000 A 
ATOM     23  C   UNL     1       6.957   5.056  18.584  0.00  0.00    +0.000 A 
ATOM     24  C   UNL     1       7.234   4.890  17.231  0.00  0.00    +0.000 A 
ATOM     25  C   UNL     1       6.196   4.777  16.286  0.00  0.00    +0.000 A 
ATOM     26  C   UNL     1       4.866   4.829  16.745  0.00  0.00    +0.000 A 
BRANCH  25  27
ATOM     27  C   UNL     1       6.480   4.661  14.848  0.00  0.00    +0.000 A 
ATOM     28  C   UNL     1       7.438   5.497  14.233  0.00  0.00    +0.000 A 
ATOM     29  C   UNL     1       7.768   5.316  12.887  0.00  0.00    +0.000 A 
ATOM     30 CL   UNL     1       8.988   6.302  12.179  0.00  0.00    +0.000 Cl
ATOM     31  C   UNL     1       7.147   4.341  12.125  0.00  0.00    +0.000 A 
ATOM     32  C   UNL     1       6.179   3.528  12.720  0.00  0.00    +0.000 A 
ATOM     33 CL   UNL     1       5.392   2.315  11.790  0.00  0.00    +0.000 Cl
ATOM     34  C   UNL     1       5.851   3.689  14.064  0.00  0.00    +0.000 A 
ENDBRANCH  25  27
ENDBRANCH   1  21
TORSDOF 4
ENDMDL
MODEL 3
REMARK VINA RESULT:      -8.5      5.019      8.602
REMARK  Name = 
REMARK  5 active torsions:
REMARK  status: ('A' for Active; 'I' for Inactive)
REMARK    1  A    between atoms: C_1  and  O_2
REMARK    2  A    between atoms: O_2  and  C_3
REMARK    3  A    between atoms: C_6  and  C_7
REMARK    4  A    between atoms: C_7  and  C_8
REMARK    5  A    between atoms: C_12  and  C_13
REMARK                            x       y       z     vdW  Elec       q    Type
REMARK                         _______ _______ _______ _____ _____    ______ ____
ROOT
ATOM      1  C   UNL     1      -0.374  11.708  19.927  0.00  0.00    +0.000 C 
ATOM      2  N   UNL     1      -0.905  12.668  21.023  0.00  0.00    +0.000 NA
ATOM      3  C   UNL     1      -0.044  13.634  21.067  0.00  0.00    +0.000 C 
ATOM      4  N   UNL     1       0.231  14.305  22.205  0.00  0.00    +0.000 N 
ATOM      5  N   UNL     1       0.844  13.732  20.058  0.00  0.00    +0.000 N 
ATOM      6  C   UNL     1       0.833  14.873  19.150  0.00  0.00    +0.000 C 
ATOM      7  C   UNL     1       2.085  14.782  18.278  0.00  0.00    +0.000 C 
ATOM      8  C   UNL     1       2.709  13.380  18.356  0.00  0.00    +0.000 C 
ATOM      9  N   UNL     1       1.680  12.294  18.397  0.00  0.00    +0.000 NA
ATOM     10  C   UNL     1       0.828  12.552  19.350  0.00  0.00    +0.000 C 
ATOM     11  H   UNL     1      -0.212  13.803  22.975  0.00  0.00    +0.000 HD
ATOM     12  H   UNL     1       1.236  14.292  22.371  0.00  0.00    +0.000 HD
ENDROOT
BRANCH   1  16
ATOM     13  C   UNL     1      -3.328  10.945  16.816  0.00  0.00    +0.000 A 
ATOM     14  C   UNL     1      -2.054  10.390  16.750  0.00  0.00    +0.000 A 
ATOM     15  C   UNL     1      -1.145  10.580  17.790  0.00  0.00    +0.000 A 
ATOM     16  C   UNL     1      -1.476  11.347  18.924  0.00  0.00    +0.000 A 
ATOM     17  C   UNL     1      -2.767  11.898  18.980  0.00  0.00    +0.000 A 
ATOM     18  C   UNL     1      -3.687  11.697  17.934  0.00  0.00    +0.000 A 
BRANCH  13  20
ATOM     19  C   UNL     1      -3.446  10.109  14.609  0.00  0.00    +0.000 C 
ATOM     20  O   UNL     1      -4.097  10.738  15.705  0.00  0.00    +0.000 OA
ENDBRANCH  13  20
ENDBRANCH   1  16
BRANCH   1  21
ATOM     21  C   UNL     1       0.070  10.455  20.695  0.00  0.00    +0.000 A 
ATOM     22  C   UNL     1      -0.208  10.337  22.080  0.00  0.00    +0.000 A 
ATOM     23  C   UNL     1       0.169   9.229  22.806  0.00  0.00    +0.000 A 
ATOM     24  C   UNL     1       0.819   8.181  22.164  0.00  0.00    +0.000 A 
ATOM     25  C   UNL     1       1.110   8.241  20.787  0.00  0.00    +0.000 A 
ATOM     26  C   UNL     1       0.720   9.389  20.072  0.00  0.00    +0.000 A 
BRANCH  25  27
ATOM     27  C   UNL     1       1.850   7.163  20.113  0.00  0.00    +0.000 A 
ATOM     28  C   UNL     1       2.604   7.425  18.949  0.00  0.00    +0.000 A 
ATOM     29  C   UNL     1       3.379   6.416  18.371  0.00  0.00    +0.000 A 
ATOM     30 CL   UNL     1       4.344   6.778  16.993  0.00  0.00    +0.000 Cl
ATOM     31  C   UNL     1       3.400   5.138  18.906  0.00  0.00    +0.000 A 
ATOM     32  C   UNL     1       2.634   4.865  20.042  0.00  0.00    +0.000 A 
ATOM     33 CL   UNL     1       2.642   3.285  20.718  0.00  0.00    +0.000 Cl
ATOM     34  C   UNL     1       1.869   5.866  20.636  0.00  0.00    +0.000 A 
ENDBRANCH  25  27
ENDBRANCH   1  21
TORSDOF 4
ENDMDL
MODEL 4
REMARK VINA RESULT:      -8.5      5.359      8.940
REMARK  Name = 
REMARK  5 active torsions:
REMARK  status: ('A' for Active; 'I' for Inactive)
REMARK    1  A    between atoms: C_1  and  O_2
REMARK    2  A    between atoms: O_2  and  C_3
REMARK    3  A    between atoms: C_6  and  C_7
REMARK    4  A    between atoms: C_7  and  C_8
REMARK    5  A    between atoms: C_12  and  C_13
REMARK                            x       y       z     vdW  Elec       q    Type
REMARK                         _______ _______ _______ _____ _____    ______ ____
ROOT
ATOM      1  C   UNL     1      -0.293  12.323  20.084  0.00  0.00    +0.000 C 
ATOM      2  N   UNL     1      -0.544  13.420  21.150  0.00  0.00    +0.000 NA
ATOM      3  C   UNL     1       0.490  14.196  21.081  0.00  0.00    +0.000 C 
ATOM      4  N   UNL     1       0.974  14.852  22.157  0.00  0.00    +0.000 N 
ATOM      5  N   UNL     1       1.303  14.068  20.014  0.00  0.00    +0.000 N 
ATOM      6  C   UNL     1       1.448  15.144  19.041  0.00  0.00    +0.000 C 
ATOM      7  C   UNL     1       2.590  14.764  18.099  0.00  0.00    +0.000 C 
ATOM      8  C   UNL     1       2.934  13.272  18.223  0.00  0.00    +0.000 C 
ATOM      9  N   UNL     1       1.718  12.415  18.395  0.00  0.00    +0.000 NA
ATOM     10  C   UNL     1       1.005  12.883  19.382  0.00  0.00    +0.000 C 
ATOM     11  H   UNL     1       0.500  14.486  22.982  0.00  0.00    +0.000 HD
ATOM     12  H   UNL     1       1.966  14.648  22.259  0.00  0.00    +0.000 HD
ENDROOT
BRANCH   1  16
ATOM     13  C   UNL     1      -3.848  11.464  17.715  0.00  0.00    +0.000 A 
ATOM     14  C   UNL     1      -3.949  11.994  18.997  0.00  0.00    +0.000 A 
ATOM     15  C   UNL     1      -2.803  12.335  19.713  0.00  0.00    +0.000 A 
ATOM     16  C   UNL     1      -1.515  12.141  19.176  0.00  0.00    +0.000 A 
ATOM     17  C   UNL     1      -1.428  11.607  17.879  0.00  0.00    +0.000 A 
ATOM     18  C   UNL     1      -2.585  11.273  17.154  0.00  0.00    +0.000 A 
BRANCH  13  20
ATOM     19  C   UNL     1      -6.205  11.487  17.875  0.00  0.00    +0.000 C 
ATOM     20  O   UNL     1      -5.042  11.113  17.149  0.00  0.00    +0.000 OA
ENDBRANCH  13  20
ENDBRANCH   1  16
BRANCH   1  21
ATOM     21  C   UNL     1      -0.047  11.044  20.898  0.00  0.00    +0.000 A 
ATOM     22  C   UNL     1      -0.474  10.969  22.247  0.00  0.00    +0.000 A 
ATOM     23  C   UNL     1      -0.277   9.841  23.012  0.00  0.00    +0.000 A 
ATOM     24  C   UNL     1       0.336   8.730  22.442  0.00  0.00    +0.000 A 
ATOM     25  C   UNL     1       0.770   8.745  21.102  0.00  0.00    +0.000 A 
ATOM     26  C   UNL     1       0.562   9.915  20.347  0.00  0.00    +0.000 A 
BRANCH  25  27
ATOM     27  C   UNL     1       1.472   7.597  20.512  0.00  0.00    +0.000 A 
ATOM     28  C   UNL     1       1.288   6.296  21.029  0.00  0.00    +0.000 A 
ATOM     29  C   UNL     1       1.886   5.199  20.402  0.00  0.00    +0.000 A 
ATOM     30 CL   UNL     1       1.590   3.617  21.010  0.00  0.00    +0.000 Cl
ATOM     31  C   UNL     1       2.690   5.366  19.286  0.00  0.00    +0.000 A 
ATOM     32  C   UNL     1       2.899   6.654  18.786  0.00  0.00    +0.000 A 
ATOM     33 CL   UNL     1       3.897   6.883  17.406  0.00  0.00    +0.000 Cl
ATOM     34  C   UNL     1       2.297   7.753  19.393  0.00  0.00    +0.000 A 
ENDBRANCH  25  27
ENDBRANCH   1  21
TORSDOF 4
ENDMDL
MODEL 5
REMARK VINA RESULT:      -8.5      5.312      8.831
REMARK  Name = 
REMARK  5 active torsions:
REMARK  status: ('A' for Active; 'I' for Inactive)
REMARK    1  A    between atoms: C_1  and  O_2
REMARK    2  A    between atoms: O_2  and  C_3
REMARK    3  A    between atoms: C_6  and  C_7
REMARK    4  A    between atoms: C_7  and  C_8
REMARK    5  A    between atoms: C_12  and  C_13
REMARK                            x       y       z     vdW  Elec       q    Type
REMARK                         _______ _______ _______ _____ _____    ______ ____
ROOT
ATOM      1  C   UNL     1      -0.840  11.849  20.046  0.00  0.00    +0.000 C 
ATOM      2  N   UNL     1      -1.575  12.743  21.078  0.00  0.00    +0.000 NA
ATOM      3  C   UNL     1      -0.845  13.807  21.180  0.00  0.00    +0.000 C 
ATOM      4  N   UNL     1      -0.751  14.512  22.328  0.00  0.00    +0.000 N 
ATOM      5  N   UNL     1       0.108  14.008  20.248  0.00  0.00    +0.000 N 
ATOM      6  C   UNL     1       0.037  15.135  19.325  0.00  0.00    +0.000 C 
ATOM      7  C   UNL     1       1.360  15.192  18.564  0.00  0.00    +0.000 C 
ATOM      8  C   UNL     1       2.141  13.878  18.716  0.00  0.00    +0.000 C 
ATOM      9  N   UNL     1       1.252  12.674  18.686  0.00  0.00    +0.000 NA
ATOM     10  C   UNL     1       0.296  12.832  19.560  0.00  0.00    +0.000 C 
ATOM     11  H   UNL     1      -1.194  13.964  23.064  0.00  0.00    +0.000 HD
ATOM     12  H   UNL     1       0.230  14.623  22.577  0.00  0.00    +0.000 HD
ENDROOT
BRANCH   1  16
ATOM     13  C   UNL     1      -3.364  10.675  16.694  0.00  0.00    +0.000 A 
ATOM     14  C   UNL     1      -2.082  10.156  16.846  0.00  0.00    +0.000 A 
ATOM     15  C   UNL     1      -1.315  10.481  17.964  0.00  0.00    +0.000 A 
ATOM     16  C   UNL     1      -1.800  11.352  18.959  0.00  0.00    +0.000 A 
ATOM     17  C   UNL     1      -3.097  11.867  18.795  0.00  0.00    +0.000 A 
ATOM     18  C   UNL     1      -3.874  11.529  17.671  0.00  0.00    +0.000 A 
BRANCH  13  20
ATOM     19  C   UNL     1      -3.132  10.169  14.398  0.00  0.00    +0.000 C 
ATOM     20  O   UNL     1      -3.982  10.329  15.525  0.00  0.00    +0.000 OA
ENDBRANCH  13  20
ENDBRANCH   1  16
BRANCH   1  21
ATOM     21  C   UNL     1      -0.315  10.664  20.868  0.00  0.00    +0.000 A 
ATOM     22  C   UNL     1      -0.548  10.611  22.265  0.00  0.00    +0.000 A 
ATOM     23  C   UNL     1      -0.099   9.565  23.039  0.00  0.00    +0.000 A 
ATOM     24  C   UNL     1       0.583   8.513  22.436  0.00  0.00    +0.000 A 
ATOM     25  C   UNL     1       0.833   8.509  21.049  0.00  0.00    +0.000 A 
ATOM     26  C   UNL     1       0.368   9.595  20.285  0.00  0.00    +0.000 A 
BRANCH  25  27
ATOM     27  C   UNL     1       1.605   7.431  20.414  0.00  0.00    +0.000 A 
ATOM     28  C   UNL     1       1.542   6.111  20.910  0.00  0.00    +0.000 A 
ATOM     29  C   UNL     1       2.205   5.077  20.242  0.00  0.00    +0.000 A 
ATOM     30 CL   UNL     1       2.056   3.465  20.826  0.00  0.00    +0.000 Cl
ATOM     31  C   UNL     1       2.956   5.328  19.106  0.00  0.00    +0.000 A 
ATOM     32  C   UNL     1       3.045   6.637  18.626  0.00  0.00    +0.000 A 
ATOM     33 CL   UNL     1       3.977   6.970  17.220  0.00  0.00    +0.000 Cl
ATOM     34  C   UNL     1       2.378   7.673  19.274  0.00  0.00    +0.000 A 
ENDBRANCH  25  27
ENDBRANCH   1  21
TORSDOF 4
ENDMDL
MODEL 6
REMARK VINA RESULT:      -8.4      4.380      7.513
REMARK  Name = 
REMARK  5 active torsions:
REMARK  status: ('A' for Active; 'I' for Inactive)
REMARK    1  A    between atoms: C_1  and  O_2
REMARK    2  A    between atoms: O_2  and  C_3
REMARK    3  A    between atoms: C_6  and  C_7
REMARK    4  A    between atoms: C_7  and  C_8
REMARK    5  A    between atoms: C_12  and  C_13
REMARK                            x       y       z     vdW  Elec       q    Type
REMARK                         _______ _______ _______ _____ _____    ______ ____
ROOT
ATOM      1  C   UNL     1      -0.338  10.327  19.814  0.00  0.00    +0.000 C 
ATOM      2  N   UNL     1      -0.659   9.390  21.006  0.00  0.00    +0.000 NA
ATOM      3  C   UNL     1      -0.329  10.065  22.061  0.00  0.00    +0.000 C 
ATOM      4  N   UNL     1       0.132   9.472  23.183  0.00  0.00    +0.000 N 
ATOM      5  N   UNL     1      -0.101  11.386  21.917  0.00  0.00    +0.000 N 
ATOM      6  C   UNL     1      -0.964  12.375  22.552  0.00  0.00    +0.000 C 
ATOM      7  C   UNL     1      -0.308  13.743  22.373  0.00  0.00    +0.000 C 
ATOM      8  C   UNL     1       0.783  13.693  21.293  0.00  0.00    +0.000 C 
ATOM      9  N   UNL     1       0.404  12.828  20.132  0.00  0.00    +0.000 NA
ATOM     10  C   UNL     1       0.039  11.658  20.576  0.00  0.00    +0.000 C 
ATOM     11  H   UNL     1       0.315   8.494  22.964  0.00  0.00    +0.000 HD
ATOM     12  H   UNL     1       1.018   9.897  23.450  0.00  0.00    +0.000 HD
ENDROOT
BRANCH   1  16
ATOM     13  C   UNL     1      -3.463  10.801  16.815  0.00  0.00    +0.000 A 
ATOM     14  C   UNL     1      -2.474   9.832  16.677  0.00  0.00    +0.000 A 
ATOM     15  C   UNL     1      -1.526   9.641  17.681  0.00  0.00    +0.000 A 
ATOM     16  C   UNL     1      -1.526  10.426  18.850  0.00  0.00    +0.000 A 
ATOM     17  C   UNL     1      -2.532  11.399  18.979  0.00  0.00    +0.000 A 
ATOM     18  C   UNL     1      -3.494  11.584  17.969  0.00  0.00    +0.000 A 
BRANCH  13  20
ATOM     19  C   UNL     1      -3.820  10.348  14.524  0.00  0.00    +0.000 C 
ATOM     20  O   UNL     1      -4.288  10.930  15.732  0.00  0.00    +0.000 OA
ENDBRANCH  13  20
ENDBRANCH   1  16
BRANCH   1  21
ATOM     21  C   UNL     1       0.855   9.664  19.113  0.00  0.00    +0.000 A 
ATOM     22  C   UNL     1       1.636  10.405  18.190  0.00  0.00    +0.000 A 
ATOM     23  C   UNL     1       2.718   9.851  17.542  0.00  0.00    +0.000 A 
ATOM     24  C   UNL     1       3.075   8.535  17.815  0.00  0.00    +0.000 A 
ATOM     25  C   UNL     1       2.342   7.757  18.731  0.00  0.00    +0.000 A 
ATOM     26  C   UNL     1       1.237   8.347  19.373  0.00  0.00    +0.000 A 
BRANCH  25  27
ATOM     27  C   UNL     1       2.677   6.347  18.980  0.00  0.00    +0.000 A 
ATOM     28  C   UNL     1       2.244   5.700  20.157  0.00  0.00    +0.000 A 
ATOM     29  C   UNL     1       2.488   4.335  20.339  0.00  0.00    +0.000 A 
ATOM     30 CL   UNL     1       1.889   3.554  21.751  0.00  0.00    +0.000 Cl
ATOM     31  C   UNL     1       3.179   3.601  19.391  0.00  0.00    +0.000 A 
ATOM     32  C   UNL     1       3.635   4.241  18.235  0.00  0.00    +0.000 A 
ATOM     33 CL   UNL     1       4.500   3.349  17.048  0.00  0.00    +0.000 Cl
ATOM     34  C   UNL     1       3.386   5.597  18.035  0.00  0.00    +0.000 A 
ENDBRANCH  25  27
ENDBRANCH   1  21
TORSDOF 4
ENDMDL
MODEL 7
REMARK VINA RESULT:      -8.3      4.484      7.763
REMARK  Name = 
REMARK  5 active torsions:
REMARK  status: ('A' for Active; 'I' for Inactive)
REMARK    1  A    between atoms: C_1  and  O_2
REMARK    2  A    between atoms: O_2  and  C_3
REMARK    3  A    between atoms: C_6  and  C_7
REMARK    4  A    between atoms: C_7  and  C_8
REMARK    5  A    between atoms: C_12  and  C_13
REMARK                            x       y       z     vdW  Elec       q    Type
REMARK                         _______ _______ _______ _____ _____    ______ ____
ROOT
ATOM      1  C   UNL     1      -0.592  10.705  20.052  0.00  0.00    +0.000 C 
ATOM      2  N   UNL     1      -0.902   9.656  21.150  0.00  0.00    +0.000 NA
ATOM      3  C   UNL     1      -0.588  10.235  22.265  0.00  0.00    +0.000 C 
ATOM      4  N   UNL     1      -0.122   9.548  23.329  0.00  0.00    +0.000 N 
ATOM      5  N   UNL     1      -0.380  11.567  22.246  0.00  0.00    +0.000 N 
ATOM      6  C   UNL     1      -1.262  12.479  22.965  0.00  0.00    +0.000 C 
ATOM      7  C   UNL     1      -0.627  13.868  22.918  0.00  0.00    +0.000 C 
ATOM      8  C   UNL     1       0.470  13.936  21.844  0.00  0.00    +0.000 C 
ATOM      9  N   UNL     1       0.109  13.177  20.605  0.00  0.00    +0.000 NA
ATOM     10  C   UNL     1      -0.239  11.964  20.937  0.00  0.00    +0.000 C 
ATOM     11  H   UNL     1       0.079   8.597  23.021  0.00  0.00    +0.000 HD
ATOM     12  H   UNL     1       0.757   9.959  23.640  0.00  0.00    +0.000 HD
ENDROOT
BRANCH   1  16
ATOM     13  C   UNL     1      -4.199  11.036  17.631  0.00  0.00    +0.000 A 
ATOM     14  C   UNL     1      -3.922  11.954  18.639  0.00  0.00    +0.000 A 
ATOM     15  C   UNL     1      -2.728  11.881  19.354  0.00  0.00    +0.000 A 
ATOM     16  C   UNL     1      -1.777  10.874  19.095  0.00  0.00    +0.000 A 
ATOM     17  C   UNL     1      -2.068   9.955  18.073  0.00  0.00    +0.000 A 
ATOM     18  C   UNL     1      -3.269  10.037  17.345  0.00  0.00    +0.000 A 
BRANCH  13  20
ATOM     19  C   UNL     1      -6.074  12.427  17.270  0.00  0.00    +0.000 C 
ATOM     20  O   UNL     1      -5.430  11.180  17.053  0.00  0.00    +0.000 OA
ENDBRANCH  13  20
ENDBRANCH   1  16
BRANCH   1  21
ATOM     21  C   UNL     1       0.616  10.129  19.299  0.00  0.00    +0.000 A 
ATOM     22  C   UNL     1       1.373  10.958  18.434  0.00  0.00    +0.000 A 
ATOM     23  C   UNL     1       2.465  10.483  17.742  0.00  0.00    +0.000 A 
ATOM     24  C   UNL     1       2.858   9.160  17.912  0.00  0.00    +0.000 A 
ATOM     25  C   UNL     1       2.148   8.295  18.768  0.00  0.00    +0.000 A 
ATOM     26  C   UNL     1       1.031   8.806  19.456  0.00  0.00    +0.000 A 
BRANCH  25  27
ATOM     27  C   UNL     1       2.521   6.879  18.906  0.00  0.00    +0.000 A 
ATOM     28  C   UNL     1       2.177   6.154  20.067  0.00  0.00    +0.000 A 
ATOM     29  C   UNL     1       2.453   4.786  20.148  0.00  0.00    +0.000 A 
ATOM     30 CL   UNL     1       1.962   3.909  21.546  0.00  0.00    +0.000 Cl
ATOM     31  C   UNL     1       3.090   4.123  19.113  0.00  0.00    +0.000 A 
ATOM     32  C   UNL     1       3.458   4.842  17.972  0.00  0.00    +0.000 A 
ATOM     33 CL   UNL     1       4.254   4.040  16.677  0.00  0.00    +0.000 Cl
ATOM     34  C   UNL     1       3.176   6.202  17.872  0.00  0.00    +0.000 A 
ENDBRANCH  25  27
ENDBRANCH   1  21
TORSDOF 4
ENDMDL
MODEL 8
REMARK VINA RESULT:      -8.3      4.403      7.619
REMARK  Name = 
REMARK  5 active torsions:
REMARK  status: ('A' for Active; 'I' for Inactive)
REMARK    1  A    between atoms: C_1  and  O_2
REMARK    2  A    between atoms: O_2  and  C_3
REMARK    3  A    between atoms: C_6  and  C_7
REMARK    4  A    between atoms: C_7  and  C_8
REMARK    5  A    between atoms: C_12  and  C_13
REMARK                            x       y       z     vdW  Elec       q    Type
REMARK                         _______ _______ _______ _____ _____    ______ ____
ROOT
ATOM      1  C   UNL     1      -0.465  10.398  19.957  0.00  0.00    +0.000 C 
ATOM      2  N   UNL     1      -0.799   9.423  21.115  0.00  0.00    +0.000 NA
ATOM      3  C   UNL     1      -0.485  10.066  22.194  0.00  0.00    +0.000 C 
ATOM      4  N   UNL     1      -0.037   9.441  23.304  0.00  0.00    +0.000 N 
ATOM      5  N   UNL     1      -0.260  11.391  22.095  0.00  0.00    +0.000 N 
ATOM      6  C   UNL     1      -1.135  12.358  22.748  0.00  0.00    +0.000 C 
ATOM      7  C   UNL     1      -0.481  13.733  22.621  0.00  0.00    +0.000 C 
ATOM      8  C   UNL     1       0.625  13.720  21.554  0.00  0.00    +0.000 C 
ATOM      9  N   UNL     1       0.264  12.890  20.362  0.00  0.00    +0.000 NA
ATOM     10  C   UNL     1      -0.103  11.705  20.765  0.00  0.00    +0.000 C 
ATOM     11  H   UNL     1       0.152   8.470  23.056  0.00  0.00    +0.000 HD
ATOM     12  H   UNL     1       0.844   9.859  23.596  0.00  0.00    +0.000 HD
ENDROOT
BRANCH   1  16
ATOM     13  C   UNL     1      -3.540  10.918  16.914  0.00  0.00    +0.000 A 
ATOM     14  C   UNL     1      -2.614   9.883  16.832  0.00  0.00    +0.000 A 
ATOM     15  C   UNL     1      -1.684   9.683  17.851  0.00  0.00    +0.000 A 
ATOM     16  C   UNL     1      -1.640  10.523  18.980  0.00  0.00    +0.000 A 
ATOM     17  C   UNL     1      -2.583  11.562  19.053  0.00  0.00    +0.000 A 
ATOM     18  C   UNL     1      -3.527  11.757  18.028  0.00  0.00    +0.000 A 
BRANCH  13  20
ATOM     19  C   UNL     1      -3.880  10.436  14.626  0.00  0.00    +0.000 C 
ATOM     20  O   UNL     1      -4.351  11.044  15.821  0.00  0.00    +0.000 OA
ENDBRANCH  13  20
ENDBRANCH   1  16
BRANCH   1  21
ATOM     21  C   UNL     1       0.741   9.760  19.251  0.00  0.00    +0.000 A 
ATOM     22  C   UNL     1       1.560  10.544  18.400  0.00  0.00    +0.000 A 
ATOM     23  C   UNL     1       2.652  10.014  17.751  0.00  0.00    +0.000 A 
ATOM     24  C   UNL     1       2.983   8.678  17.953  0.00  0.00    +0.000 A 
ATOM     25  C   UNL     1       2.211   7.857  18.797  0.00  0.00    +0.000 A 
ATOM     26  C   UNL     1       1.095   8.424  19.441  0.00  0.00    +0.000 A 
BRANCH  25  27
ATOM     27  C   UNL     1       2.519   6.429  18.967  0.00  0.00    +0.000 A 
ATOM     28  C   UNL     1       3.221   5.720  17.970  0.00  0.00    +0.000 A 
ATOM     29  C   UNL     1       3.591   4.388  18.182  0.00  0.00    +0.000 A 
ATOM     30 CL   UNL     1       4.507   3.566  16.979  0.00  0.00    +0.000 Cl
ATOM     31  C   UNL     1       3.254   3.732  19.354  0.00  0.00    +0.000 A 
ATOM     32  C   UNL     1       2.534   4.421  20.335  0.00  0.00    +0.000 A 
ATOM     33 CL   UNL     1       2.101   3.624  21.795  0.00  0.00    +0.000 Cl
ATOM     34  C   UNL     1       2.173   5.752  20.141  0.00  0.00    +0.000 A 
ENDBRANCH  25  27
ENDBRANCH   1  21
TORSDOF 4
ENDMDL
MODEL 9
REMARK VINA RESULT:      -8.3      4.541      7.888
REMARK  Name = 
REMARK  5 active torsions:
REMARK  status: ('A' for Active; 'I' for Inactive)
REMARK    1  A    between atoms: C_1  and  O_2
REMARK    2  A    between atoms: O_2  and  C_3
REMARK    3  A    between atoms: C_6  and  C_7
REMARK    4  A    between atoms: C_7  and  C_8
REMARK    5  A    between atoms: C_12  and  C_13
REMARK                            x       y       z     vdW  Elec       q    Type
REMARK                         _______ _______ _______ _____ _____    ______ ____
ROOT
ATOM      1  C   UNL     1      -0.685  10.827  20.129  0.00  0.00    +0.000 C 
ATOM      2  N   UNL     1      -0.963   9.757  21.216  0.00  0.00    +0.000 NA
ATOM      3  C   UNL     1      -0.644  10.326  22.334  0.00  0.00    +0.000 C 
ATOM      4  N   UNL     1      -0.152   9.633  23.383  0.00  0.00    +0.000 N 
ATOM      5  N   UNL     1      -0.461  11.661  22.332  0.00  0.00    +0.000 N 
ATOM      6  C   UNL     1      -1.349  12.547  23.075  0.00  0.00    +0.000 C 
ATOM      7  C   UNL     1      -0.739  13.948  23.039  0.00  0.00    +0.000 C 
ATOM      8  C   UNL     1       0.342  14.051  21.953  0.00  0.00    +0.000 C 
ATOM      9  N   UNL     1      -0.022  13.303  20.708  0.00  0.00    +0.000 NA
ATOM     10  C   UNL     1      -0.344  12.080  21.027  0.00  0.00    +0.000 C 
ATOM     11  H   UNL     1       0.061   8.690  23.059  0.00  0.00    +0.000 HD
ATOM     12  H   UNL     1       0.723  10.056  23.688  0.00  0.00    +0.000 HD
ENDROOT
BRANCH   1  16
ATOM     13  C   UNL     1      -4.327  11.116  17.754  0.00  0.00    +0.000 A 
ATOM     14  C   UNL     1      -4.072  12.006  18.792  0.00  0.00    +0.000 A 
ATOM     15  C   UNL     1      -2.869  11.950  19.494  0.00  0.00    +0.000 A 
ATOM     16  C   UNL     1      -1.886  10.988  19.189  0.00  0.00    +0.000 A 
ATOM     17  C   UNL     1      -2.154  10.097  18.136  0.00  0.00    +0.000 A 
ATOM     18  C   UNL     1      -3.365  10.162  17.423  0.00  0.00    +0.000 A 
BRANCH  13  20
ATOM     19  C   UNL     1      -6.654  11.327  18.105  0.00  0.00    +0.000 C 
ATOM     20  O   UNL     1      -5.568  11.236  17.193  0.00  0.00    +0.000 OA
ENDBRANCH  13  20
ENDBRANCH   1  16
BRANCH   1  21
ATOM     21  C   UNL     1       0.522  10.283  19.352  0.00  0.00    +0.000 A 
ATOM     22  C   UNL     1       1.276  11.147  18.518  0.00  0.00    +0.000 A 
ATOM     23  C   UNL     1       2.368  10.702  17.807  0.00  0.00    +0.000 A 
ATOM     24  C   UNL     1       2.765   9.374  17.926  0.00  0.00    +0.000 A 
ATOM     25  C   UNL     1       2.059   8.475  18.749  0.00  0.00    +0.000 A 
ATOM     26  C   UNL     1       0.942   8.956  19.458  0.00  0.00    +0.000 A 
BRANCH  25  27
ATOM     27  C   UNL     1       2.435   7.056  18.833  0.00  0.00    +0.000 A 
ATOM     28  C   UNL     1       3.164   6.442  17.792  0.00  0.00    +0.000 A 
ATOM     29  C   UNL     1       3.598   5.119  17.923  0.00  0.00    +0.000 A 
ATOM     30 CL   UNL     1       4.544   4.414  16.670  0.00  0.00    +0.000 Cl
ATOM     31  C   UNL     1       3.300   4.379  19.056  0.00  0.00    +0.000 A 
ATOM     32  C   UNL     1       2.555   4.973  20.078  0.00  0.00    +0.000 A 
ATOM     33 CL   UNL     1       2.169   4.071  21.489  0.00  0.00    +0.000 Cl
ATOM     34  C   UNL     1       2.129   6.294  19.965  0.00  0.00    +0.000 A 
ENDBRANCH  25  27
ENDBRANCH   1  21
TORSDOF 4
ENDMDL
