MODEL 1
REMARK VINA RESULT:      -6.2      0.000      0.000
REMARK  Name = 
REMARK  6 active torsions:
REMARK  status: ('A' for Active; 'I' for Inactive)
REMARK    1  A    between atoms: C_1  and  C_2
REMARK    2  A    between atoms: C_2  and  O_3
REMARK    3  A    between atoms: O_3  and  C_4
REMARK    4  A    between atoms: C_4  and  C_6
REMARK    5  A    between atoms: C_6  and  N_7
REMARK    6  A    between atoms: C_8  and  C_9
REMARK                            x       y       z     vdW  Elec       q    Type
REMARK                         _______ _______ _______ _____ _____    ______ ____
ROOT
ATOM      1  N   UNL     1       3.833   4.911  18.715  0.00  0.00    +0.000 N 
ATOM      2  C   UNL     1       3.402   6.203  18.562  0.00  0.00    +0.000 A 
ATOM      3  C   UNL     1       3.884   7.117  17.464  0.00  0.00    +0.000 C 
ATOM      4  C   UNL     1       2.444   6.722  19.465  0.00  0.00    +0.000 A 
ATOM      5  C   UNL     1       1.934   5.951  20.500  0.00  0.00    +0.000 A 
ATOM      6  C   UNL     1       2.399   4.662  20.624  0.00  0.00    +0.000 A 
ATOM      7  C   UNL     1       3.342   4.163  19.735  0.00  0.00    +0.000 A 
ATOM      8  C   UNL     1       3.661   2.725  20.037  0.00  0.00    +0.000 C 
ATOM      9  C   UNL     1       2.800   2.405  21.264  0.00  0.00    +0.000 C 
ATOM     10  C   UNL     1       1.971   3.644  21.629  0.00  0.00    +0.000 C 
ENDROOT
BRANCH   1  11
ATOM     11  C   UNL     1       4.804   4.304  17.783  0.00  0.00    +0.000 C 
BRANCH  11  12
ATOM     12  C   UNL     1       6.217   4.631  18.188  0.00  0.00    +0.000 C 
ATOM     13  O   UNL     1       6.580   4.901  19.318  0.00  0.00    +0.000 OA
BRANCH  12  14
ATOM     14  O   UNL     1       7.018   4.551  17.085  0.00  0.00    +0.000 OA
BRANCH  14  16
ATOM     15  C   UNL     1       6.961   4.847  14.685  0.00  0.00    +0.000 C 
ATOM     16  C   UNL     1       6.397   4.104  15.878  0.00  0.00    +0.000 C 
ENDBRANCH  14  16
ENDBRANCH  12  14
ENDBRANCH  11  12
ENDBRANCH   1  11
TORSDOF 4
ENDMDL
MODEL 2
REMARK VINA RESULT:      -6.2      1.038      2.812
REMARK  Name = 
REMARK  6 active torsions:
REMARK  status: ('A' for Active; 'I' for Inactive)
REMARK    1  A    between atoms: C_1  and  C_2
REMARK    2  A    between atoms: C_2  and  O_3
REMARK    3  A    between atoms: O_3  and  C_4
REMARK    4  A    between atoms: C_4  and  C_6
REMARK    5  A    between atoms: C_6  and  N_7
REMARK    6  A    between atoms: C_8  and  C_9
REMARK                            x       y       z     vdW  Elec       q    Type
REMARK                         _______ _______ _______ _____ _____    ______ ____
ROOT
ATOM      1  N   UNL     1       3.190   4.061  18.543  0.00  0.00    +0.000 N 
ATOM      2  C   UNL     1       2.869   2.827  19.046  0.00  0.00    +0.000 A 
ATOM      3  C   UNL     1       3.376   1.533  18.462  0.00  0.00    +0.000 C 
ATOM      4  C   UNL     1       2.028   2.742  20.180  0.00  0.00    +0.000 A 
ATOM      5  C   UNL     1       1.522   3.880  20.792  0.00  0.00    +0.000 A 
ATOM      6  C   UNL     1       1.862   5.100  20.251  0.00  0.00    +0.000 A 
ATOM      7  C   UNL     1       2.685   5.173  19.136  0.00  0.00    +0.000 A 
ATOM      8  C   UNL     1       2.956   6.602  18.757  0.00  0.00    +0.000 C 
ATOM      9  C   UNL     1       2.157   7.414  19.783  0.00  0.00    +0.000 C 
ATOM     10  C   UNL     1       1.470   6.449  20.758  0.00  0.00    +0.000 C 
ENDROOT
BRANCH   1  11
ATOM     11  C   UNL     1       4.092   4.214  17.385  0.00  0.00    +0.000 C 
BRANCH  11  12
ATOM     12  C   UNL     1       5.527   4.313  17.829  0.00  0.00    +0.000 C 
ATOM     13  O   UNL     1       5.920   4.180  18.973  0.00  0.00    +0.000 OA
BRANCH  12  14
ATOM     14  O   UNL     1       6.309   4.555  16.735  0.00  0.00    +0.000 OA
BRANCH  14  16
ATOM     15  C   UNL     1       6.624   4.490  14.337  0.00  0.00    +0.000 C 
ATOM     16  C   UNL     1       5.971   3.844  15.542  0.00  0.00    +0.000 C 
ENDBRANCH  14  16
ENDBRANCH  12  14
ENDBRANCH  11  12
ENDBRANCH   1  11
TORSDOF 4
ENDMDL
MODEL 3
REMARK VINA RESULT:      -6.1      1.917      2.997
REMARK  Name = 
REMARK  6 active torsions:
REMARK  status: ('A' for Active; 'I' for Inactive)
REMARK    1  A    between atoms: C_1  and  C_2
REMARK    2  A    between atoms: C_2  and  O_3
REMARK    3  A    between atoms: O_3  and  C_4
REMARK    4  A    between atoms: C_4  and  C_6
REMARK    5  A    between atoms: C_6  and  N_7
REMARK    6  A    between atoms: C_8  and  C_9
REMARK                            x       y       z     vdW  Elec       q    Type
REMARK                         _______ _______ _______ _____ _____    ______ ____
ROOT
ATOM      1  N   UNL     1       4.266   5.042  17.804  0.00  0.00    +0.000 N 
ATOM      2  C   UNL     1       4.294   4.079  16.830  0.00  0.00    +0.000 A 
ATOM      3  C   UNL     1       5.371   3.990  15.778  0.00  0.00    +0.000 C 
ATOM      4  C   UNL     1       3.275   3.099  16.799  0.00  0.00    +0.000 A 
ATOM      5  C   UNL     1       2.248   3.094  17.733  0.00  0.00    +0.000 A 
ATOM      6  C   UNL     1       2.252   4.083  18.690  0.00  0.00    +0.000 A 
ATOM      7  C   UNL     1       3.255   5.042  18.710  0.00  0.00    +0.000 A 
ATOM      8  C   UNL     1       3.079   5.984  19.868  0.00  0.00    +0.000 C 
ATOM      9  C   UNL     1       1.799   5.491  20.553  0.00  0.00    +0.000 C 
ATOM     10  C   UNL     1       1.279   4.254  19.809  0.00  0.00    +0.000 C 
ENDROOT
BRANCH   1  11
ATOM     11  C   UNL     1       5.322   6.068  17.909  0.00  0.00    +0.000 C 
BRANCH  11  12
ATOM     12  C   UNL     1       6.472   5.575  18.746  0.00  0.00    +0.000 C 
ATOM     13  O   UNL     1       6.449   4.591  19.462  0.00  0.00    +0.000 OA
BRANCH  12  14
ATOM     14  O   UNL     1       7.543   6.399  18.549  0.00  0.00    +0.000 OA
BRANCH  14  16
ATOM     15  C   UNL     1       8.105   8.648  17.859  0.00  0.00    +0.000 C 
ATOM     16  C   UNL     1       7.431   7.344  17.484  0.00  0.00    +0.000 C 
ENDBRANCH  14  16
ENDBRANCH  12  14
ENDBRANCH  11  12
ENDBRANCH   1  11
TORSDOF 4
ENDMDL
MODEL 4
REMARK VINA RESULT:      -6.1      2.386      2.872
REMARK  Name = 
REMARK  6 active torsions:
REMARK  status: ('A' for Active; 'I' for Inactive)
REMARK    1  A    between atoms: C_1  and  C_2
REMARK    2  A    between atoms: C_2  and  O_3
REMARK    3  A    between atoms: O_3  and  C_4
REMARK    4  A    between atoms: C_4  and  C_6
REMARK    5  A    between atoms: C_6  and  N_7
REMARK    6  A    between atoms: C_8  and  C_9
REMARK                            x       y       z     vdW  Elec       q    Type
REMARK                         _______ _______ _______ _____ _____    ______ ____
ROOT
ATOM      1  N   UNL     1       5.100   5.059  17.219  0.00  0.00    +0.000 N 
ATOM      2  C   UNL     1       5.033   6.418  17.380  0.00  0.00    +0.000 A 
ATOM      3  C   UNL     1       6.205   7.341  17.160  0.00  0.00    +0.000 C 
ATOM      4  C   UNL     1       3.805   7.008  17.760  0.00  0.00    +0.000 A 
ATOM      5  C   UNL     1       2.670   6.240  17.975  0.00  0.00    +0.000 A 
ATOM      6  C   UNL     1       2.781   4.878  17.811  0.00  0.00    +0.000 A 
ATOM      7  C   UNL     1       3.991   4.308  17.441  0.00  0.00    +0.000 A 
ATOM      8  C   UNL     1       3.860   2.820  17.276  0.00  0.00    +0.000 C 
ATOM      9  C   UNL     1       2.394   2.537  17.627  0.00  0.00    +0.000 C 
ATOM     10  C   UNL     1       1.694   3.864  17.950  0.00  0.00    +0.000 C 
ENDROOT
BRANCH   1  11
ATOM     11  C   UNL     1       6.344   4.391  16.789  0.00  0.00    +0.000 C 
BRANCH  11  12
ATOM     12  C   UNL     1       6.669   4.728  15.358  0.00  0.00    +0.000 C 
ATOM     13  O   UNL     1       7.631   5.375  14.989  0.00  0.00    +0.000 OA
BRANCH  12  14
ATOM     14  O   UNL     1       5.720   4.169  14.549  0.00  0.00    +0.000 OA
BRANCH  14  16
ATOM     15  C   UNL     1       4.992   3.482  12.347  0.00  0.00    +0.000 C 
ATOM     16  C   UNL     1       6.168   3.693  13.278  0.00  0.00    +0.000 C 
ENDBRANCH  14  16
ENDBRANCH  12  14
ENDBRANCH  11  12
ENDBRANCH   1  11
TORSDOF 4
ENDMDL
MODEL 5
REMARK VINA RESULT:      -6.1      1.326      2.989
REMARK  Name = 
REMARK  6 active torsions:
REMARK  status: ('A' for Active; 'I' for Inactive)
REMARK    1  A    between atoms: C_1  and  C_2
REMARK    2  A    between atoms: C_2  and  O_3
REMARK    3  A    between atoms: O_3  and  C_4
REMARK    4  A    between atoms: C_4  and  C_6
REMARK    5  A    between atoms: C_6  and  N_7
REMARK    6  A    between atoms: C_8  and  C_9
REMARK                            x       y       z     vdW  Elec       q    Type
REMARK                         _______ _______ _______ _____ _____    ______ ____
ROOT
ATOM      1  N   UNL     1       3.184   4.066  18.585  0.00  0.00    +0.000 N 
ATOM      2  C   UNL     1       2.830   2.832  19.067  0.00  0.00    +0.000 A 
ATOM      3  C   UNL     1       3.343   1.536  18.493  0.00  0.00    +0.000 C 
ATOM      4  C   UNL     1       1.948   2.750  20.170  0.00  0.00    +0.000 A 
ATOM      5  C   UNL     1       1.434   3.890  20.772  0.00  0.00    +0.000 A 
ATOM      6  C   UNL     1       1.807   5.109  20.252  0.00  0.00    +0.000 A 
ATOM      7  C   UNL     1       2.671   5.179  19.168  0.00  0.00    +0.000 A 
ATOM      8  C   UNL     1       2.973   6.607  18.808  0.00  0.00    +0.000 C 
ATOM      9  C   UNL     1       2.146   7.422  19.810  0.00  0.00    +0.000 C 
ATOM     10  C   UNL     1       1.414   6.459  20.754  0.00  0.00    +0.000 C 
ENDROOT
BRANCH   1  11
ATOM     11  C   UNL     1       4.129   4.215  17.461  0.00  0.00    +0.000 C 
BRANCH  11  12
ATOM     12  C   UNL     1       5.545   4.328  17.958  0.00  0.00    +0.000 C 
ATOM     13  O   UNL     1       5.912   4.094  19.095  0.00  0.00    +0.000 OA
BRANCH  12  14
ATOM     14  O   UNL     1       6.345   4.713  16.921  0.00  0.00    +0.000 OA
BRANCH  14  16
ATOM     15  C   UNL     1       6.510   7.101  17.270  0.00  0.00    +0.000 C 
ATOM     16  C   UNL     1       7.254   5.784  17.182  0.00  0.00    +0.000 C 
ENDBRANCH  14  16
ENDBRANCH  12  14
ENDBRANCH  11  12
ENDBRANCH   1  11
TORSDOF 4
ENDMDL
MODEL 6
REMARK VINA RESULT:      -6.1      0.657      3.006
REMARK  Name = 
REMARK  6 active torsions:
REMARK  status: ('A' for Active; 'I' for Inactive)
REMARK    1  A    between atoms: C_1  and  C_2
REMARK    2  A    between atoms: C_2  and  O_3
REMARK    3  A    between atoms: O_3  and  C_4
REMARK    4  A    between atoms: C_4  and  C_6
REMARK    5  A    between atoms: C_6  and  N_7
REMARK    6  A    between atoms: C_8  and  C_9
REMARK                            x       y       z     vdW  Elec       q    Type
REMARK                         _______ _______ _______ _____ _____    ______ ____
ROOT
ATOM      1  N   UNL     1       3.857   4.636  18.782  0.00  0.00    +0.000 N 
ATOM      2  C   UNL     1       3.404   3.858  19.815  0.00  0.00    +0.000 A 
ATOM      3  C   UNL     1       3.899   2.459  20.081  0.00  0.00    +0.000 C 
ATOM      4  C   UNL     1       2.430   4.381  20.697  0.00  0.00    +0.000 A 
ATOM      5  C   UNL     1       1.923   5.663  20.537  0.00  0.00    +0.000 A 
ATOM      6  C   UNL     1       2.398   6.409  19.482  0.00  0.00    +0.000 A 
ATOM      7  C   UNL     1       3.352   5.886  18.621  0.00  0.00    +0.000 A 
ATOM      8  C   UNL     1       3.752   6.895  17.580  0.00  0.00    +0.000 C 
ATOM      9  C   UNL     1       2.885   8.118  17.900  0.00  0.00    +0.000 C 
ATOM     10  C   UNL     1       2.030   7.814  19.138  0.00  0.00    +0.000 C 
ENDROOT
BRANCH   1  11
ATOM     11  C   UNL     1       4.899   4.159  17.852  0.00  0.00    +0.000 C 
BRANCH  11  12
ATOM     12  C   UNL     1       6.267   4.590  18.308  0.00  0.00    +0.000 C 
ATOM     13  O   UNL     1       6.555   4.934  19.439  0.00  0.00    +0.000 OA
BRANCH  12  14
ATOM     14  O   UNL     1       7.128   4.509  17.251  0.00  0.00    +0.000 OA
BRANCH  14  16
ATOM     15  C   UNL     1       6.976   4.686  14.843  0.00  0.00    +0.000 C 
ATOM     16  C   UNL     1       6.894   5.413  16.169  0.00  0.00    +0.000 C 
ENDBRANCH  14  16
ENDBRANCH  12  14
ENDBRANCH  11  12
ENDBRANCH   1  11
TORSDOF 4
ENDMDL
MODEL 7
REMARK VINA RESULT:      -6.0      1.904      4.615
REMARK  Name = 
REMARK  6 active torsions:
REMARK  status: ('A' for Active; 'I' for Inactive)
REMARK    1  A    between atoms: C_1  and  C_2
REMARK    2  A    between atoms: C_2  and  O_3
REMARK    3  A    between atoms: O_3  and  C_4
REMARK    4  A    between atoms: C_4  and  C_6
REMARK    5  A    between atoms: C_6  and  N_7
REMARK    6  A    between atoms: C_8  and  C_9
REMARK                            x       y       z     vdW  Elec       q    Type
REMARK                         _______ _______ _______ _____ _____    ______ ____
ROOT
ATOM      1  N   UNL     1       3.943   4.301  17.833  0.00  0.00    +0.000 N 
ATOM      2  C   UNL     1       2.756   4.984  17.799  0.00  0.00    +0.000 A 
ATOM      3  C   UNL     1       1.408   4.318  17.916  0.00  0.00    +0.000 C 
ATOM      4  C   UNL     1       2.773   6.392  17.659  0.00  0.00    +0.000 A 
ATOM      5  C   UNL     1       3.966   7.093  17.555  0.00  0.00    +0.000 A 
ATOM      6  C   UNL     1       5.136   6.369  17.586  0.00  0.00    +0.000 A 
ATOM      7  C   UNL     1       5.108   4.988  17.720  0.00  0.00    +0.000 A 
ATOM      8  C   UNL     1       6.500   4.422  17.778  0.00  0.00    +0.000 C 
ATOM      9  C   UNL     1       7.405   5.651  17.630  0.00  0.00    +0.000 C 
ATOM     10  C   UNL     1       6.529   6.907  17.529  0.00  0.00    +0.000 C 
ENDROOT
BRANCH   1  11
ATOM     11  C   UNL     1       3.988   2.837  18.014  0.00  0.00    +0.000 C 
BRANCH  11  12
ATOM     12  C   UNL     1       4.070   2.476  19.473  0.00  0.00    +0.000 C 
ATOM     13  O   UNL     1       5.097   2.383  20.118  0.00  0.00    +0.000 OA
BRANCH  12  14
ATOM     14  O   UNL     1       2.803   2.294  19.951  0.00  0.00    +0.000 OA
BRANCH  14  16
ATOM     15  C   UNL     1       2.147   4.134  21.378  0.00  0.00    +0.000 C 
ATOM     16  C   UNL     1       2.573   2.682  21.307  0.00  0.00    +0.000 C 
ENDBRANCH  14  16
ENDBRANCH  12  14
ENDBRANCH  11  12
ENDBRANCH   1  11
TORSDOF 4
ENDMDL
MODEL 8
REMARK VINA RESULT:      -6.0      2.283      3.365
REMARK  Name = 
REMARK  6 active torsions:
REMARK  status: ('A' for Active; 'I' for Inactive)
REMARK    1  A    between atoms: C_1  and  C_2
REMARK    2  A    between atoms: C_2  and  O_3
REMARK    3  A    between atoms: O_3  and  C_4
REMARK    4  A    between atoms: C_4  and  C_6
REMARK    5  A    between atoms: C_6  and  N_7
REMARK    6  A    between atoms: C_8  and  C_9
REMARK                            x       y       z     vdW  Elec       q    Type
REMARK                         _______ _______ _______ _____ _____    ______ ____
ROOT
ATOM      1  N   UNL     1       5.276   4.174  17.212  0.00  0.00    +0.000 N 
ATOM      2  C   UNL     1       6.224   4.685  18.060  0.00  0.00    +0.000 A 
ATOM      3  C   UNL     1       7.698   4.704  17.746  0.00  0.00    +0.000 C 
ATOM      4  C   UNL     1       5.816   5.240  19.296  0.00  0.00    +0.000 A 
ATOM      5  C   UNL     1       4.480   5.277  19.667  0.00  0.00    +0.000 A 
ATOM      6  C   UNL     1       3.560   4.746  18.791  0.00  0.00    +0.000 A 
ATOM      7  C   UNL     1       3.970   4.201  17.582  0.00  0.00    +0.000 A 
ATOM      8  C   UNL     1       2.793   3.730  16.774  0.00  0.00    +0.000 C 
ATOM      9  C   UNL     1       1.586   4.034  17.670  0.00  0.00    +0.000 C 
ATOM     10  C   UNL     1       2.077   4.708  18.958  0.00  0.00    +0.000 C 
ENDROOT
BRANCH   1  11
ATOM     11  C   UNL     1       5.637   3.616  15.895  0.00  0.00    +0.000 C 
BRANCH  11  12
ATOM     12  C   UNL     1       5.577   4.675  14.826  0.00  0.00    +0.000 C 
ATOM     13  O   UNL     1       5.849   5.850  14.985  0.00  0.00    +0.000 OA
BRANCH  12  14
ATOM     14  O   UNL     1       5.189   4.092  13.653  0.00  0.00    +0.000 OA
BRANCH  14  16
ATOM     15  C   UNL     1       5.668   2.654  11.768  0.00  0.00    +0.000 C 
ATOM     16  C   UNL     1       6.234   3.586  12.819  0.00  0.00    +0.000 C 
ENDBRANCH  14  16
ENDBRANCH  12  14
ENDBRANCH  11  12
ENDBRANCH   1  11
TORSDOF 4
ENDMDL
MODEL 9
REMARK VINA RESULT:      -6.0      1.582      4.931
REMARK  Name = 
REMARK  6 active torsions:
REMARK  status: ('A' for Active; 'I' for Inactive)
REMARK    1  A    between atoms: C_1  and  C_2
REMARK    2  A    between atoms: C_2  and  O_3
REMARK    3  A    between atoms: O_3  and  C_4
REMARK    4  A    between atoms: C_4  and  C_6
REMARK    5  A    between atoms: C_6  and  N_7
REMARK    6  A    between atoms: C_8  and  C_9
REMARK                            x       y       z     vdW  Elec       q    Type
REMARK                         _______ _______ _______ _____ _____    ______ ____
ROOT
ATOM      1  N   UNL     1       3.907   4.698  17.513  0.00  0.00    +0.000 N 
ATOM      2  C   UNL     1       3.520   5.933  17.965  0.00  0.00    +0.000 A 
ATOM      3  C   UNL     1       2.551   6.138  19.102  0.00  0.00    +0.000 C 
ATOM      4  C   UNL     1       4.056   7.091  17.353  0.00  0.00    +0.000 A 
ATOM      5  C   UNL     1       4.962   7.001  16.306  0.00  0.00    +0.000 A 
ATOM      6  C   UNL     1       5.318   5.743  15.877  0.00  0.00    +0.000 A 
ATOM      7  C   UNL     1       4.785   4.613  16.482  0.00  0.00    +0.000 A 
ATOM      8  C   UNL     1       5.354   3.358  15.881  0.00  0.00    +0.000 C 
ATOM      9  C   UNL     1       6.302   3.869  14.789  0.00  0.00    +0.000 C 
ATOM     10  C   UNL     1       6.297   5.403  14.801  0.00  0.00    +0.000 C 
ENDROOT
BRANCH   1  11
ATOM     11  C   UNL     1       3.409   3.456  18.136  0.00  0.00    +0.000 C 
BRANCH  11  12
ATOM     12  C   UNL     1       4.245   3.081  19.331  0.00  0.00    +0.000 C 
ATOM     13  O   UNL     1       5.375   3.475  19.550  0.00  0.00    +0.000 OA
BRANCH  12  14
ATOM     14  O   UNL     1       3.517   2.247  20.130  0.00  0.00    +0.000 OA
BRANCH  14  16
ATOM     15  C   UNL     1       2.013   3.370  21.656  0.00  0.00    +0.000 C 
ATOM     16  C   UNL     1       2.153   2.610  20.353  0.00  0.00    +0.000 C 
ENDBRANCH  14  16
ENDBRANCH  12  14
ENDBRANCH  11  12
ENDBRANCH   1  11
TORSDOF 4
ENDMDL
