MODEL 1
REMARK VINA RESULT:      -8.9      0.000      0.000
REMARK  Name = 
REMARK  12 active torsions:
REMARK  status: ('A' for Active; 'I' for Inactive)
REMARK    1  A    between atoms: C_1  and  O_2
REMARK    2  A    between atoms: O_2  and  C_3
REMARK    3  A    between atoms: C_5  and  C_6
REMARK    4  A    between atoms: N_7  and  N_8
REMARK    5  A    between atoms: N_8  and  C_9
REMARK    6  A    between atoms: C_12  and  S_13
REMARK    7  A    between atoms: S_13  and  N_16
REMARK    8  A    between atoms: N_16  and  C_17
REMARK    9  A    between atoms: C_22  and  C_23
REMARK   10  A    between atoms: C_23  and  O_25
REMARK   11  A    between atoms: C_27  and  N_28
REMARK   12  A    between atoms: C_33  and  O_34
REMARK                            x       y       z     vdW  Elec       q    Type
REMARK                         _______ _______ _______ _____ _____    ______ ____
ROOT
ATOM      1  C   UNL     1       6.880   6.113  17.374  0.00  0.00    +0.000 A 
ATOM      2  C   UNL     1       6.619   5.845  18.731  0.00  0.00    +0.000 A 
ATOM      3  C   UNL     1       5.765   4.811  19.129  0.00  0.00    +0.000 A 
ATOM      4  C   UNL     1       5.164   3.995  18.168  0.00  0.00    +0.000 A 
ATOM      5  C   UNL     1       5.386   4.235  16.810  0.00  0.00    +0.000 A 
ATOM      6  C   UNL     1       6.243   5.284  16.434  0.00  0.00    +0.000 A 
ENDROOT
BRANCH   4   7
ATOM      7  S   UNL     1       3.997   2.747  18.669  0.00  0.00    +0.000 S 
ATOM      8  O   UNL     1       4.115   1.662  17.719  0.00  0.00    +0.000 OA
ATOM      9  O   UNL     1       4.174   2.529  20.093  0.00  0.00    +0.000 OA
BRANCH   7  10
ATOM     10  N   UNL     1       2.487   3.473  18.397  0.00  0.00    +0.000 N 
ATOM     11  H   UNL     1       1.766   2.782  18.653  0.00  0.00    +0.000 HD
BRANCH  10  12
ATOM     12  C   UNL     1       2.280   4.771  18.980  0.00  0.00    +0.000 A 
ATOM     13  C   UNL     1       2.591   5.889  18.202  0.00  0.00    +0.000 A 
ATOM     14  C   UNL     1       2.470   7.174  18.731  0.00  0.00    +0.000 A 
ATOM     15  C   UNL     1       2.013   7.355  20.035  0.00  0.00    +0.000 A 
ATOM     16  C   UNL     1       1.687   6.248  20.820  0.00  0.00    +0.000 A 
ATOM     17  C   UNL     1       1.852   4.949  20.311  0.00  0.00    +0.000 A 
BRANCH  17  18
ATOM     18  C   UNL     1       1.503   3.774  21.146  0.00  0.00    +0.000 C 
ATOM     19  O   UNL     1       2.108   3.502  22.173  0.00  0.00    +0.000 OA
BRANCH  18  20
ATOM     20  O   UNL     1       0.472   3.037  20.678  0.00  0.00    +0.000 OA
ATOM     21  H   UNL     1       0.718   2.167  20.311  0.00  0.00    +0.000 HD
ENDBRANCH  18  20
ENDBRANCH  17  18
ENDBRANCH  10  12
ENDBRANCH   7  10
ENDBRANCH   4   7
BRANCH   6  22
ATOM     22  N   UNL     1       6.496   5.459  15.014  0.00  0.00    +0.000 N 
ATOM     23  O   UNL     1       7.639   5.210  14.604  0.00  0.00    +0.000 OA
ATOM     24  O   UNL     1       5.560   5.885  14.320  0.00  0.00    +0.000 OA
ENDBRANCH   6  22
BRANCH   1  25
ATOM     25  N   UNL     1       7.797   7.130  17.011  0.00  0.00    +0.000 N 
ATOM     26  H   UNL     1       7.809   7.334  16.005  0.00  0.00    +0.000 HD
BRANCH  25  28
ATOM     27  C   UNL     1       8.493   9.232  17.469  0.00  0.00    +0.000 C 
ATOM     28  N   UNL     1       7.996   8.123  17.916  0.00  0.00    +0.000 NA
BRANCH  27  31
ATOM     29  C   UNL     1       8.929  12.741  18.865  0.00  0.00    +0.000 A 
ATOM     30  C   UNL     1       8.649  11.681  17.988  0.00  0.00    +0.000 A 
ATOM     31  C   UNL     1       8.817  10.348  18.387  0.00  0.00    +0.000 A 
ATOM     32  C   UNL     1       9.267  10.063  19.676  0.00  0.00    +0.000 A 
ATOM     33  C   UNL     1       9.552  11.111  20.556  0.00  0.00    +0.000 A 
ATOM     34  C   UNL     1       9.386  12.442  20.154  0.00  0.00    +0.000 A 
BRANCH  29  36
ATOM     35  C   UNL     1       7.388  14.271  17.851  0.00  0.00    +0.000 C 
ATOM     36  O   UNL     1       8.698  13.970  18.308  0.00  0.00    +0.000 OA
ENDBRANCH  29  36
BRANCH  34  37
ATOM     37  O   UNL     1       9.680  13.429  21.053  0.00  0.00    +0.000 OA
ATOM     38  H   UNL     1      10.140  14.156  20.603  0.00  0.00    +0.000 HD
ENDBRANCH  34  37
ENDBRANCH  27  31
ENDBRANCH  25  28
ENDBRANCH   1  25
TORSDOF 11
ENDMDL
MODEL 2
REMARK VINA RESULT:      -8.5      6.217      9.449
REMARK  Name = 
REMARK  12 active torsions:
REMARK  status: ('A' for Active; 'I' for Inactive)
REMARK    1  A    between atoms: C_1  and  O_2
REMARK    2  A    between atoms: O_2  and  C_3
REMARK    3  A    between atoms: C_5  and  C_6
REMARK    4  A    between atoms: N_7  and  N_8
REMARK    5  A    between atoms: N_8  and  C_9
REMARK    6  A    between atoms: C_12  and  S_13
REMARK    7  A    between atoms: S_13  and  N_16
REMARK    8  A    between atoms: N_16  and  C_17
REMARK    9  A    between atoms: C_22  and  C_23
REMARK   10  A    between atoms: C_23  and  O_25
REMARK   11  A    between atoms: C_27  and  N_28
REMARK   12  A    between atoms: C_33  and  O_34
REMARK                            x       y       z     vdW  Elec       q    Type
REMARK                         _______ _______ _______ _____ _____    ______ ____
ROOT
ATOM      1  C   UNL     1       0.886  10.626  19.476  0.00  0.00    +0.000 A 
ATOM      2  C   UNL     1       1.489  10.467  18.215  0.00  0.00    +0.000 A 
ATOM      3  C   UNL     1       2.112   9.271  17.838  0.00  0.00    +0.000 A 
ATOM      4  C   UNL     1       2.125   8.187  18.718  0.00  0.00    +0.000 A 
ATOM      5  C   UNL     1       1.550   8.307  19.985  0.00  0.00    +0.000 A 
ATOM      6  C   UNL     1       0.935   9.520  20.343  0.00  0.00    +0.000 A 
ENDROOT
BRANCH   4   7
ATOM      7  S   UNL     1       3.008   6.703  18.281  0.00  0.00    +0.000 S 
ATOM      8  O   UNL     1       2.036   5.795  17.711  0.00  0.00    +0.000 OA
ATOM      9  O   UNL     1       4.195   7.099  17.547  0.00  0.00    +0.000 OA
BRANCH   7  10
ATOM     10  N   UNL     1       3.467   6.050  19.779  0.00  0.00    +0.000 N 
ATOM     11  H   UNL     1       3.252   6.758  20.498  0.00  0.00    +0.000 HD
BRANCH  10  12
ATOM     12  C   UNL     1       2.974   4.737  20.091  0.00  0.00    +0.000 A 
ATOM     13  C   UNL     1       1.816   4.645  20.867  0.00  0.00    +0.000 A 
ATOM     14  C   UNL     1       1.322   3.399  21.255  0.00  0.00    +0.000 A 
ATOM     15  C   UNL     1       1.966   2.232  20.850  0.00  0.00    +0.000 A 
ATOM     16  C   UNL     1       3.117   2.308  20.064  0.00  0.00    +0.000 A 
ATOM     17  C   UNL     1       3.649   3.559  19.709  0.00  0.00    +0.000 A 
BRANCH  17  18
ATOM     18  C   UNL     1       4.871   3.638  18.873  0.00  0.00    +0.000 C 
ATOM     19  O   UNL     1       5.890   4.191  19.260  0.00  0.00    +0.000 OA
BRANCH  18  20
ATOM     20  O   UNL     1       4.761   3.054  17.659  0.00  0.00    +0.000 OA
ATOM     21  H   UNL     1       4.596   2.093  17.675  0.00  0.00    +0.000 HD
ENDBRANCH  18  20
ENDBRANCH  17  18
ENDBRANCH  10  12
ENDBRANCH   7  10
ENDBRANCH   4   7
BRANCH   6  22
ATOM     22  N   UNL     1       0.294   9.581  21.645  0.00  0.00    +0.000 N 
ATOM     23  O   UNL     1       0.639  10.497  22.406  0.00  0.00    +0.000 OA
ATOM     24  O   UNL     1      -0.523   8.688  21.918  0.00  0.00    +0.000 OA
ENDBRANCH   6  22
BRANCH   1  25
ATOM     25  N   UNL     1       0.212  11.830  19.799  0.00  0.00    +0.000 N 
ATOM     26  H   UNL     1       0.842  12.595  20.069  0.00  0.00    +0.000 HD
BRANCH  25  28
ATOM     27  C   UNL     1      -2.035  11.650  19.628  0.00  0.00    +0.000 C 
ATOM     28  N   UNL     1      -0.931  12.091  19.114  0.00  0.00    +0.000 NA
BRANCH  27  31
ATOM     29  C   UNL     1      -5.647  12.579  18.890  0.00  0.00    +0.000 A 
ATOM     30  C   UNL     1      -4.430  12.393  19.564  0.00  0.00    +0.000 A 
ATOM     31  C   UNL     1      -3.326  11.818  18.921  0.00  0.00    +0.000 A 
ATOM     32  C   UNL     1      -3.431  11.424  17.587  0.00  0.00    +0.000 A 
ATOM     33  C   UNL     1      -4.638  11.601  16.907  0.00  0.00    +0.000 A 
ATOM     34  C   UNL     1      -5.742  12.174  17.553  0.00  0.00    +0.000 A 
BRANCH  29  36
ATOM     35  C   UNL     1      -6.848  14.554  19.523  0.00  0.00    +0.000 C 
ATOM     36  O   UNL     1      -6.607  13.162  19.671  0.00  0.00    +0.000 OA
ENDBRANCH  29  36
BRANCH  34  37
ATOM     37  O   UNL     1      -6.899  12.324  16.843  0.00  0.00    +0.000 OA
ATOM     38  H   UNL     1      -7.281  11.452  16.650  0.00  0.00    +0.000 HD
ENDBRANCH  34  37
ENDBRANCH  27  31
ENDBRANCH  25  28
ENDBRANCH   1  25
TORSDOF 11
ENDMDL
MODEL 3
REMARK VINA RESULT:      -8.5      5.873      9.533
REMARK  Name = 
REMARK  12 active torsions:
REMARK  status: ('A' for Active; 'I' for Inactive)
REMARK    1  A    between atoms: C_1  and  O_2
REMARK    2  A    between atoms: O_2  and  C_3
REMARK    3  A    between atoms: C_5  and  C_6
REMARK    4  A    between atoms: N_7  and  N_8
REMARK    5  A    between atoms: N_8  and  C_9
REMARK    6  A    between atoms: C_12  and  S_13
REMARK    7  A    between atoms: S_13  and  N_16
REMARK    8  A    between atoms: N_16  and  C_17
REMARK    9  A    between atoms: C_22  and  C_23
REMARK   10  A    between atoms: C_23  and  O_25
REMARK   11  A    between atoms: C_27  and  N_28
REMARK   12  A    between atoms: C_33  and  O_34
REMARK                            x       y       z     vdW  Elec       q    Type
REMARK                         _______ _______ _______ _____ _____    ______ ____
ROOT
ATOM      1  C   UNL     1       0.965   9.676  19.430  0.00  0.00    +0.000 A 
ATOM      2  C   UNL     1       1.486   9.431  18.146  0.00  0.00    +0.000 A 
ATOM      3  C   UNL     1       2.237   8.285  17.859  0.00  0.00    +0.000 A 
ATOM      4  C   UNL     1       2.467   7.336  18.858  0.00  0.00    +0.000 A 
ATOM      5  C   UNL     1       1.980   7.548  20.149  0.00  0.00    +0.000 A 
ATOM      6  C   UNL     1       1.232   8.709  20.415  0.00  0.00    +0.000 A 
ENDROOT
BRANCH   4   7
ATOM      7  S   UNL     1       3.510   5.932  18.522  0.00  0.00    +0.000 S 
ATOM      8  O   UNL     1       3.922   5.404  19.804  0.00  0.00    +0.000 OA
ATOM      9  O   UNL     1       2.827   5.103  17.546  0.00  0.00    +0.000 OA
BRANCH   7  10
ATOM     10  N   UNL     1       4.890   6.616  17.808  0.00  0.00    +0.000 N 
ATOM     11  H   UNL     1       5.533   6.871  18.573  0.00  0.00    +0.000 HD
BRANCH  10  12
ATOM     12  C   UNL     1       5.511   5.865  16.752  0.00  0.00    +0.000 A 
ATOM     13  C   UNL     1       5.105   6.128  15.442  0.00  0.00    +0.000 A 
ATOM     14  C   UNL     1       5.625   5.390  14.378  0.00  0.00    +0.000 A 
ATOM     15  C   UNL     1       6.576   4.398  14.612  0.00  0.00    +0.000 A 
ATOM     16  C   UNL     1       7.001   4.132  15.914  0.00  0.00    +0.000 A 
ATOM     17  C   UNL     1       6.446   4.837  16.996  0.00  0.00    +0.000 A 
BRANCH  17  18
ATOM     18  C   UNL     1       6.899   4.555  18.379  0.00  0.00    +0.000 C 
ATOM     19  O   UNL     1       7.967   4.965  18.811  0.00  0.00    +0.000 OA
BRANCH  18  20
ATOM     20  O   UNL     1       6.041   3.811  19.111  0.00  0.00    +0.000 OA
ATOM     21  H   UNL     1       5.115   3.829  18.808  0.00  0.00    +0.000 HD
ENDBRANCH  18  20
ENDBRANCH  17  18
ENDBRANCH  10  12
ENDBRANCH   7  10
ENDBRANCH   4   7
BRANCH   6  22
ATOM     22  N   UNL     1       0.691   8.859  21.754  0.00  0.00    +0.000 N 
ATOM     23  O   UNL     1      -0.470   8.468  21.947  0.00  0.00    +0.000 OA
ATOM     24  O   UNL     1       1.415   9.405  22.601  0.00  0.00    +0.000 OA
ENDBRANCH   6  22
BRANCH   1  25
ATOM     25  N   UNL     1       0.158  10.817  19.667  0.00  0.00    +0.000 N 
ATOM     26  H   UNL     1       0.667  11.705  19.590  0.00  0.00    +0.000 HD
BRANCH  25  28
ATOM     27  C   UNL     1      -1.709  11.833  18.898  0.00  0.00    +0.000 C 
ATOM     28  N   UNL     1      -1.142  10.735  19.284  0.00  0.00    +0.000 NA
BRANCH  27  31
ATOM     29  C   UNL     1      -5.461  12.425  19.065  0.00  0.00    +0.000 A 
ATOM     30  C   UNL     1      -4.103  12.370  19.418  0.00  0.00    +0.000 A 
ATOM     31  C   UNL     1      -3.145  11.862  18.532  0.00  0.00    +0.000 A 
ATOM     32  C   UNL     1      -3.538  11.404  17.275  0.00  0.00    +0.000 A 
ATOM     33  C   UNL     1      -4.887  11.451  16.914  0.00  0.00    +0.000 A 
ATOM     34  C   UNL     1      -5.845  11.957  17.803  0.00  0.00    +0.000 A 
BRANCH  29  36
ATOM     35  C   UNL     1      -6.151  12.423  21.361  0.00  0.00    +0.000 C 
ATOM     36  O   UNL     1      -6.248  12.959  20.049  0.00  0.00    +0.000 OA
ENDBRANCH  29  36
BRANCH  34  37
ATOM     37  O   UNL     1      -7.150  11.980  17.400  0.00  0.00    +0.000 OA
ATOM     38  H   UNL     1      -7.668  11.353  17.931  0.00  0.00    +0.000 HD
ENDBRANCH  34  37
ENDBRANCH  27  31
ENDBRANCH  25  28
ENDBRANCH   1  25
TORSDOF 11
ENDMDL
MODEL 4
REMARK VINA RESULT:      -8.5      5.305      8.915
REMARK  Name = 
REMARK  12 active torsions:
REMARK  status: ('A' for Active; 'I' for Inactive)
REMARK    1  A    between atoms: C_1  and  O_2
REMARK    2  A    between atoms: O_2  and  C_3
REMARK    3  A    between atoms: C_5  and  C_6
REMARK    4  A    between atoms: N_7  and  N_8
REMARK    5  A    between atoms: N_8  and  C_9
REMARK    6  A    between atoms: C_12  and  S_13
REMARK    7  A    between atoms: S_13  and  N_16
REMARK    8  A    between atoms: N_16  and  C_17
REMARK    9  A    between atoms: C_22  and  C_23
REMARK   10  A    between atoms: C_23  and  O_25
REMARK   11  A    between atoms: C_27  and  N_28
REMARK   12  A    between atoms: C_33  and  O_34
REMARK                            x       y       z     vdW  Elec       q    Type
REMARK                         _______ _______ _______ _____ _____    ______ ____
ROOT
ATOM      1  C   UNL     1       1.557   9.055  19.160  0.00  0.00    +0.000 A 
ATOM      2  C   UNL     1       2.144   8.401  18.062  0.00  0.00    +0.000 A 
ATOM      3  C   UNL     1       2.599   7.079  18.145  0.00  0.00    +0.000 A 
ATOM      4  C   UNL     1       2.453   6.367  19.338  0.00  0.00    +0.000 A 
ATOM      5  C   UNL     1       1.888   6.984  20.456  0.00  0.00    +0.000 A 
ATOM      6  C   UNL     1       1.443   8.314  20.350  0.00  0.00    +0.000 A 
ENDROOT
BRANCH   4   7
ATOM      7  S   UNL     1       3.125   4.723  19.476  0.00  0.00    +0.000 S 
ATOM      8  O   UNL     1       2.823   4.262  20.813  0.00  0.00    +0.000 OA
ATOM      9  O   UNL     1       2.703   3.978  18.304  0.00  0.00    +0.000 OA
BRANCH   7  10
ATOM     10  N   UNL     1       4.804   4.967  19.410  0.00  0.00    +0.000 N 
ATOM     11  H   UNL     1       5.227   4.372  20.138  0.00  0.00    +0.000 HD
BRANCH  10  12
ATOM     12  C   UNL     1       5.426   4.839  18.121  0.00  0.00    +0.000 A 
ATOM     13  C   UNL     1       4.691   4.225  17.103  0.00  0.00    +0.000 A 
ATOM     14  C   UNL     1       5.261   4.015  15.847  0.00  0.00    +0.000 A 
ATOM     15  C   UNL     1       6.562   4.439  15.589  0.00  0.00    +0.000 A 
ATOM     16  C   UNL     1       7.305   5.065  16.591  0.00  0.00    +0.000 A 
ATOM     17  C   UNL     1       6.756   5.237  17.873  0.00  0.00    +0.000 A 
BRANCH  17  18
ATOM     18  C   UNL     1       7.545   5.903  18.937  0.00  0.00    +0.000 C 
ATOM     19  O   UNL     1       8.185   6.924  18.730  0.00  0.00    +0.000 OA
BRANCH  18  20
ATOM     20  O   UNL     1       7.498   5.290  20.140  0.00  0.00    +0.000 OA
ATOM     21  H   UNL     1       8.160   4.587  20.273  0.00  0.00    +0.000 HD
ENDBRANCH  18  20
ENDBRANCH  17  18
ENDBRANCH  10  12
ENDBRANCH   7  10
ENDBRANCH   4   7
BRANCH   6  22
ATOM     22  N   UNL     1       0.805   8.896  21.517  0.00  0.00    +0.000 N 
ATOM     23  O   UNL     1      -0.383   8.606  21.721  0.00  0.00    +0.000 OA
ATOM     24  O   UNL     1       1.483   9.675  22.205  0.00  0.00    +0.000 OA
ENDBRANCH   6  22
BRANCH   1  25
ATOM     25  N   UNL     1       1.054  10.372  19.021  0.00  0.00    +0.000 N 
ATOM     26  H   UNL     1       1.785  11.081  18.891  0.00  0.00    +0.000 HD
BRANCH  25  28
ATOM     27  C   UNL     1      -1.033  11.243  18.990  0.00  0.00    +0.000 C 
ATOM     28  N   UNL     1      -0.147  10.504  18.401  0.00  0.00    +0.000 NA
BRANCH  27  31
ATOM     29  C   UNL     1      -4.017  10.991  16.649  0.00  0.00    +0.000 A 
ATOM     30  C   UNL     1      -2.718  10.879  17.169  0.00  0.00    +0.000 A 
ATOM     31  C   UNL     1      -2.398  11.388  18.434  0.00  0.00    +0.000 A 
ATOM     32  C   UNL     1      -3.383  12.016  19.197  0.00  0.00    +0.000 A 
ATOM     33  C   UNL     1      -4.679  12.136  18.688  0.00  0.00    +0.000 A 
ATOM     34  C   UNL     1      -4.995  11.629  17.421  0.00  0.00    +0.000 A 
BRANCH  29  36
ATOM     35  C   UNL     1      -2.979  10.252  14.618  0.00  0.00    +0.000 C 
ATOM     36  O   UNL     1      -4.146  10.430  15.408  0.00  0.00    +0.000 OA
ENDBRANCH  29  36
BRANCH  34  37
ATOM     37  O   UNL     1      -6.278  11.772  16.971  0.00  0.00    +0.000 OA
ATOM     38  H   UNL     1      -6.272  11.937  16.014  0.00  0.00    +0.000 HD
ENDBRANCH  34  37
ENDBRANCH  27  31
ENDBRANCH  25  28
ENDBRANCH   1  25
TORSDOF 11
ENDMDL
MODEL 5
REMARK VINA RESULT:      -8.5      5.815      9.133
REMARK  Name = 
REMARK  12 active torsions:
REMARK  status: ('A' for Active; 'I' for Inactive)
REMARK    1  A    between atoms: C_1  and  O_2
REMARK    2  A    between atoms: O_2  and  C_3
REMARK    3  A    between atoms: C_5  and  C_6
REMARK    4  A    between atoms: N_7  and  N_8
REMARK    5  A    between atoms: N_8  and  C_9
REMARK    6  A    between atoms: C_12  and  S_13
REMARK    7  A    between atoms: S_13  and  N_16
REMARK    8  A    between atoms: N_16  and  C_17
REMARK    9  A    between atoms: C_22  and  C_23
REMARK   10  A    between atoms: C_23  and  O_25
REMARK   11  A    between atoms: C_27  and  N_28
REMARK   12  A    between atoms: C_33  and  O_34
REMARK                            x       y       z     vdW  Elec       q    Type
REMARK                         _______ _______ _______ _____ _____    ______ ____
ROOT
ATOM      1  C   UNL     1       0.940  10.722  19.899  0.00  0.00    +0.000 A 
ATOM      2  C   UNL     1       1.395  10.629  18.570  0.00  0.00    +0.000 A 
ATOM      3  C   UNL     1       1.968   9.455  18.066  0.00  0.00    +0.000 A 
ATOM      4  C   UNL     1       2.079   8.328  18.883  0.00  0.00    +0.000 A 
ATOM      5  C   UNL     1       1.652   8.382  20.211  0.00  0.00    +0.000 A 
ATOM      6  C   UNL     1       1.085   9.574  20.697  0.00  0.00    +0.000 A 
ENDROOT
BRANCH   4   7
ATOM      7  S   UNL     1       2.902   6.870  18.274  0.00  0.00    +0.000 S 
ATOM      8  O   UNL     1       1.873   6.007  17.736  0.00  0.00    +0.000 OA
ATOM      9  O   UNL     1       4.023   7.307  17.464  0.00  0.00    +0.000 OA
BRANCH   7  10
ATOM     10  N   UNL     1       3.485   6.119  19.680  0.00  0.00    +0.000 N 
ATOM     11  H   UNL     1       3.389   6.799  20.450  0.00  0.00    +0.000 HD
BRANCH  10  12
ATOM     12  C   UNL     1       2.957   4.818  19.985  0.00  0.00    +0.000 A 
ATOM     13  C   UNL     1       1.788   4.753  20.746  0.00  0.00    +0.000 A 
ATOM     14  C   UNL     1       1.260   3.519  21.126  0.00  0.00    +0.000 A 
ATOM     15  C   UNL     1       1.882   2.337  20.728  0.00  0.00    +0.000 A 
ATOM     16  C   UNL     1       3.044   2.386  19.957  0.00  0.00    +0.000 A 
ATOM     17  C   UNL     1       3.610   3.625  19.610  0.00  0.00    +0.000 A 
BRANCH  17  18
ATOM     18  C   UNL     1       4.843   3.675  18.790  0.00  0.00    +0.000 C 
ATOM     19  O   UNL     1       5.871   4.203  19.190  0.00  0.00    +0.000 OA
BRANCH  18  20
ATOM     20  O   UNL     1       4.735   3.096  17.574  0.00  0.00    +0.000 OA
ATOM     21  H   UNL     1       5.557   2.703  17.227  0.00  0.00    +0.000 HD
ENDBRANCH  18  20
ENDBRANCH  17  18
ENDBRANCH  10  12
ENDBRANCH   7  10
ENDBRANCH   4   7
BRANCH   6  22
ATOM     22  N   UNL     1       0.598   9.568  22.066  0.00  0.00    +0.000 N 
ATOM     23  O   UNL     1       1.444   9.555  22.972  0.00  0.00    +0.000 OA
ATOM     24  O   UNL     1      -0.632   9.536  22.230  0.00  0.00    +0.000 OA
ENDBRANCH   6  22
BRANCH   1  25
ATOM     25  N   UNL     1       0.311  11.906  20.356  0.00  0.00    +0.000 N 
ATOM     26  H   UNL     1       0.970  12.646  20.624  0.00  0.00    +0.000 HD
BRANCH  25  28
ATOM     27  C   UNL     1      -1.571  11.245  19.292  0.00  0.00    +0.000 C 
ATOM     28  N   UNL     1      -0.881  12.222  19.788  0.00  0.00    +0.000 NA
BRANCH  27  31
ATOM     29  C   UNL     1      -4.214  11.377  16.563  0.00  0.00    +0.000 A 
ATOM     30  C   UNL     1      -2.997  11.167  17.230  0.00  0.00    +0.000 A 
ATOM     31  C   UNL     1      -2.849  11.494  18.585  0.00  0.00    +0.000 A 
ATOM     32  C   UNL     1      -3.925  12.034  19.288  0.00  0.00    +0.000 A 
ATOM     33  C   UNL     1      -5.140  12.250  18.634  0.00  0.00    +0.000 A 
ATOM     34  C   UNL     1      -5.286  11.925  17.279  0.00  0.00    +0.000 A 
BRANCH  29  36
ATOM     35  C   UNL     1      -3.183  10.062  14.845  0.00  0.00    +0.000 C 
ATOM     36  O   UNL     1      -4.178  10.991  15.251  0.00  0.00    +0.000 OA
ENDBRANCH  29  36
BRANCH  34  37
ATOM     37  O   UNL     1      -6.495  12.156  16.686  0.00  0.00    +0.000 OA
ATOM     38  H   UNL     1      -7.016  12.767  17.233  0.00  0.00    +0.000 HD
ENDBRANCH  34  37
ENDBRANCH  27  31
ENDBRANCH  25  28
ENDBRANCH   1  25
TORSDOF 11
ENDMDL
MODEL 6
REMARK VINA RESULT:      -8.4      5.689      9.208
REMARK  Name = 
REMARK  12 active torsions:
REMARK  status: ('A' for Active; 'I' for Inactive)
REMARK    1  A    between atoms: C_1  and  O_2
REMARK    2  A    between atoms: O_2  and  C_3
REMARK    3  A    between atoms: C_5  and  C_6
REMARK    4  A    between atoms: N_7  and  N_8
REMARK    5  A    between atoms: N_8  and  C_9
REMARK    6  A    between atoms: C_12  and  S_13
REMARK    7  A    between atoms: S_13  and  N_16
REMARK    8  A    between atoms: N_16  and  C_17
REMARK    9  A    between atoms: C_22  and  C_23
REMARK   10  A    between atoms: C_23  and  O_25
REMARK   11  A    between atoms: C_27  and  N_28
REMARK   12  A    between atoms: C_33  and  O_34
REMARK                            x       y       z     vdW  Elec       q    Type
REMARK                         _______ _______ _______ _____ _____    ______ ____
ROOT
ATOM      1  C   UNL     1       1.028   9.880  19.912  0.00  0.00    +0.000 A 
ATOM      2  C   UNL     1       1.595   9.446  18.700  0.00  0.00    +0.000 A 
ATOM      3  C   UNL     1       2.032   8.129  18.518  0.00  0.00    +0.000 A 
ATOM      4  C   UNL     1       1.888   7.199  19.551  0.00  0.00    +0.000 A 
ATOM      5  C   UNL     1       1.343   7.592  20.775  0.00  0.00    +0.000 A 
ATOM      6  C   UNL     1       0.916   8.923  20.936  0.00  0.00    +0.000 A 
ENDROOT
BRANCH   4   7
ATOM      7  S   UNL     1       2.539   5.553  19.357  0.00  0.00    +0.000 S 
ATOM      8  O   UNL     1       2.433   4.910  20.649  0.00  0.00    +0.000 OA
ATOM      9  O   UNL     1       1.928   4.977  18.173  0.00  0.00    +0.000 OA
BRANCH   7  10
ATOM     10  N   UNL     1       4.193   5.804  19.069  0.00  0.00    +0.000 N 
ATOM     11  H   UNL     1       4.708   5.347  19.837  0.00  0.00    +0.000 HD
BRANCH  10  12
ATOM     12  C   UNL     1       4.680   5.465  17.760  0.00  0.00    +0.000 A 
ATOM     13  C   UNL     1       4.915   6.510  16.864  0.00  0.00    +0.000 A 
ATOM     14  C   UNL     1       5.330   6.243  15.559  0.00  0.00    +0.000 A 
ATOM     15  C   UNL     1       5.537   4.929  15.144  0.00  0.00    +0.000 A 
ATOM     16  C   UNL     1       5.318   3.874  16.033  0.00  0.00    +0.000 A 
ATOM     17  C   UNL     1       4.854   4.132  17.333  0.00  0.00    +0.000 A 
BRANCH  17  18
ATOM     18  C   UNL     1       4.623   3.011  18.276  0.00  0.00    +0.000 C 
ATOM     19  O   UNL     1       3.805   2.130  18.053  0.00  0.00    +0.000 OA
BRANCH  18  20
ATOM     20  O   UNL     1       5.385   3.048  19.391  0.00  0.00    +0.000 OA
ATOM     21  H   UNL     1       5.475   2.197  19.859  0.00  0.00    +0.000 HD
ENDBRANCH  18  20
ENDBRANCH  17  18
ENDBRANCH  10  12
ENDBRANCH   7  10
ENDBRANCH   4   7
BRANCH   6  22
ATOM     22  N   UNL     1       0.298   9.274  22.203  0.00  0.00    +0.000 N 
ATOM     23  O   UNL     1       0.943  10.006  22.967  0.00  0.00    +0.000 OA
ATOM     24  O   UNL     1      -0.815   8.782  22.446  0.00  0.00    +0.000 OA
ENDBRANCH   6  22
BRANCH   1  25
ATOM     25  N   UNL     1       0.541  11.205  20.039  0.00  0.00    +0.000 N 
ATOM     26  H   UNL     1       1.229  11.923  19.783  0.00  0.00    +0.000 HD
BRANCH  25  28
ATOM     27  C   UNL     1      -1.192  11.110  18.591  0.00  0.00    +0.000 C 
ATOM     28  N   UNL     1      -0.778  11.397  19.783  0.00  0.00    +0.000 NA
BRANCH  27  31
ATOM     29  C   UNL     1      -4.846  12.153  18.714  0.00  0.00    +0.000 A 
ATOM     30  C   UNL     1      -3.520  11.894  19.097  0.00  0.00    +0.000 A 
ATOM     31  C   UNL     1      -2.598  11.355  18.191  0.00  0.00    +0.000 A 
ATOM     32  C   UNL     1      -2.995  11.072  16.884  0.00  0.00    +0.000 A 
ATOM     33  C   UNL     1      -4.313  11.323  16.493  0.00  0.00    +0.000 A 
ATOM     34  C   UNL     1      -5.235  11.859  17.401  0.00  0.00    +0.000 A 
BRANCH  29  36
ATOM     35  C   UNL     1      -6.365  11.809  20.536  0.00  0.00    +0.000 C 
ATOM     36  O   UNL     1      -5.599  12.687  19.724  0.00  0.00    +0.000 OA
ENDBRANCH  29  36
BRANCH  34  37
ATOM     37  O   UNL     1      -6.511  12.085  16.968  0.00  0.00    +0.000 OA
ATOM     38  H   UNL     1      -7.133  11.557  17.494  0.00  0.00    +0.000 HD
ENDBRANCH  34  37
ENDBRANCH  27  31
ENDBRANCH  25  28
ENDBRANCH   1  25
TORSDOF 11
ENDMDL
MODEL 7
REMARK VINA RESULT:      -8.4      5.738      9.318
REMARK  Name = 
REMARK  12 active torsions:
REMARK  status: ('A' for Active; 'I' for Inactive)
REMARK    1  A    between atoms: C_1  and  O_2
REMARK    2  A    between atoms: O_2  and  C_3
REMARK    3  A    between atoms: C_5  and  C_6
REMARK    4  A    between atoms: N_7  and  N_8
REMARK    5  A    between atoms: N_8  and  C_9
REMARK    6  A    between atoms: C_12  and  S_13
REMARK    7  A    between atoms: S_13  and  N_16
REMARK    8  A    between atoms: N_16  and  C_17
REMARK    9  A    between atoms: C_22  and  C_23
REMARK   10  A    between atoms: C_23  and  O_25
REMARK   11  A    between atoms: C_27  and  N_28
REMARK   12  A    between atoms: C_33  and  O_34
REMARK                            x       y       z     vdW  Elec       q    Type
REMARK                         _______ _______ _______ _____ _____    ______ ____
ROOT
ATOM      1  C   UNL     1       1.286   9.408  19.062  0.00  0.00    +0.000 A 
ATOM      2  C   UNL     1       1.867   8.737  17.971  0.00  0.00    +0.000 A 
ATOM      3  C   UNL     1       2.378   7.438  18.089  0.00  0.00    +0.000 A 
ATOM      4  C   UNL     1       2.296   6.767  19.310  0.00  0.00    +0.000 A 
ATOM      5  C   UNL     1       1.738   7.402  20.422  0.00  0.00    +0.000 A 
ATOM      6  C   UNL     1       1.237   8.709  20.281  0.00  0.00    +0.000 A 
ENDROOT
BRANCH   4   7
ATOM      7  S   UNL     1       3.038   5.157  19.488  0.00  0.00    +0.000 S 
ATOM      8  O   UNL     1       2.732   4.704  20.827  0.00  0.00    +0.000 OA
ATOM      9  O   UNL     1       2.672   4.375  18.322  0.00  0.00    +0.000 OA
BRANCH   7  10
ATOM     10  N   UNL     1       4.705   5.476  19.448  0.00  0.00    +0.000 N 
ATOM     11  H   UNL     1       5.117   5.045  20.290  0.00  0.00    +0.000 HD
BRANCH  10  12
ATOM     12  C   UNL     1       5.396   5.150  18.231  0.00  0.00    +0.000 A 
ATOM     13  C   UNL     1       4.640   4.651  17.168  0.00  0.00    +0.000 A 
ATOM     14  C   UNL     1       5.260   4.259  15.981  0.00  0.00    +0.000 A 
ATOM     15  C   UNL     1       6.640   4.385  15.837  0.00  0.00    +0.000 A 
ATOM     16  C   UNL     1       7.408   4.893  16.886  0.00  0.00    +0.000 A 
ATOM     17  C   UNL     1       6.798   5.245  18.101  0.00  0.00    +0.000 A 
BRANCH  17  18
ATOM     18  C   UNL     1       7.614   5.786  19.214  0.00  0.00    +0.000 C 
ATOM     19  O   UNL     1       7.648   5.256  20.315  0.00  0.00    +0.000 OA
BRANCH  18  20
ATOM     20  O   UNL     1       8.308   6.905  18.911  0.00  0.00    +0.000 OA
ATOM     21  H   UNL     1       8.001   7.716  19.357  0.00  0.00    +0.000 HD
ENDBRANCH  18  20
ENDBRANCH  17  18
ENDBRANCH  10  12
ENDBRANCH   7  10
ENDBRANCH   4   7
BRANCH   6  22
ATOM     22  N   UNL     1       0.610   9.309  21.445  0.00  0.00    +0.000 N 
ATOM     23  O   UNL     1      -0.395   8.746  21.905  0.00  0.00    +0.000 OA
ATOM     24  O   UNL     1       1.101  10.365  21.873  0.00  0.00    +0.000 OA
ENDBRANCH   6  22
BRANCH   1  25
ATOM     25  N   UNL     1       0.725  10.698  18.890  0.00  0.00    +0.000 N 
ATOM     26  H   UNL     1       1.417  11.421  18.661  0.00  0.00    +0.000 HD
BRANCH  25  28
ATOM     27  C   UNL     1      -1.358  11.576  18.921  0.00  0.00    +0.000 C 
ATOM     28  N   UNL     1      -0.526  10.754  18.365  0.00  0.00    +0.000 NA
BRANCH  27  31
ATOM     29  C   UNL     1      -5.106  12.212  18.901  0.00  0.00    +0.000 A 
ATOM     30  C   UNL     1      -3.774  12.109  19.333  0.00  0.00    +0.000 A 
ATOM     31  C   UNL     1      -2.767  11.656  18.470  0.00  0.00    +0.000 A 
ATOM     32  C   UNL     1      -3.086  11.304  17.159  0.00  0.00    +0.000 A 
ATOM     33  C   UNL     1      -4.409  11.400  16.719  0.00  0.00    +0.000 A 
ATOM     34  C   UNL     1      -5.415  11.850  17.585  0.00  0.00    +0.000 A 
BRANCH  29  36
ATOM     35  C   UNL     1      -6.787  11.754  20.548  0.00  0.00    +0.000 C 
ATOM     36  O   UNL     1      -5.948  12.680  19.874  0.00  0.00    +0.000 OA
ENDBRANCH  29  36
BRANCH  34  37
ATOM     37  O   UNL     1      -6.692  11.925  17.105  0.00  0.00    +0.000 OA
ATOM     38  H   UNL     1      -6.834  11.231  16.441  0.00  0.00    +0.000 HD
ENDBRANCH  34  37
ENDBRANCH  27  31
ENDBRANCH  25  28
ENDBRANCH   1  25
TORSDOF 11
ENDMDL
MODEL 8
REMARK VINA RESULT:      -8.4      5.504      8.993
REMARK  Name = 
REMARK  12 active torsions:
REMARK  status: ('A' for Active; 'I' for Inactive)
REMARK    1  A    between atoms: C_1  and  O_2
REMARK    2  A    between atoms: O_2  and  C_3
REMARK    3  A    between atoms: C_5  and  C_6
REMARK    4  A    between atoms: N_7  and  N_8
REMARK    5  A    between atoms: N_8  and  C_9
REMARK    6  A    between atoms: C_12  and  S_13
REMARK    7  A    between atoms: S_13  and  N_16
REMARK    8  A    between atoms: N_16  and  C_17
REMARK    9  A    between atoms: C_22  and  C_23
REMARK   10  A    between atoms: C_23  and  O_25
REMARK   11  A    between atoms: C_27  and  N_28
REMARK   12  A    between atoms: C_33  and  O_34
REMARK                            x       y       z     vdW  Elec       q    Type
REMARK                         _______ _______ _______ _____ _____    ______ ____
ROOT
ATOM      1  C   UNL     1       1.106  10.123  20.100  0.00  0.00    +0.000 A 
ATOM      2  C   UNL     1       1.586   9.669  18.858  0.00  0.00    +0.000 A 
ATOM      3  C   UNL     1       1.936   8.330  18.644  0.00  0.00    +0.000 A 
ATOM      4  C   UNL     1       1.789   7.400  19.676  0.00  0.00    +0.000 A 
ATOM      5  C   UNL     1       1.329   7.812  20.929  0.00  0.00    +0.000 A 
ATOM      6  C   UNL     1       0.990   9.163  21.121  0.00  0.00    +0.000 A 
ENDROOT
BRANCH   4   7
ATOM      7  S   UNL     1       2.332   5.721  19.437  0.00  0.00    +0.000 S 
ATOM      8  O   UNL     1       2.112   5.031  20.690  0.00  0.00    +0.000 OA
ATOM      9  O   UNL     1       1.747   5.244  18.198  0.00  0.00    +0.000 OA
BRANCH   7  10
ATOM     10  N   UNL     1       4.012   5.863  19.246  0.00  0.00    +0.000 N 
ATOM     11  H   UNL     1       4.452   5.343  20.021  0.00  0.00    +0.000 HD
BRANCH  10  12
ATOM     12  C   UNL     1       4.545   5.537  17.951  0.00  0.00    +0.000 A 
ATOM     13  C   UNL     1       4.726   6.582  17.042  0.00  0.00    +0.000 A 
ATOM     14  C   UNL     1       5.182   6.323  15.749  0.00  0.00    +0.000 A 
ATOM     15  C   UNL     1       5.485   5.020  15.361  0.00  0.00    +0.000 A 
ATOM     16  C   UNL     1       5.321   3.967  16.262  0.00  0.00    +0.000 A 
ATOM     17  C   UNL     1       4.817   4.213  17.550  0.00  0.00    +0.000 A 
BRANCH  17  18
ATOM     18  C   UNL     1       4.645   3.094  18.508  0.00  0.00    +0.000 C 
ATOM     19  O   UNL     1       5.023   3.165  19.668  0.00  0.00    +0.000 OA
BRANCH  18  20
ATOM     20  O   UNL     1       4.042   2.000  17.992  0.00  0.00    +0.000 OA
ATOM     21  H   UNL     1       3.653   1.394  18.649  0.00  0.00    +0.000 HD
ENDBRANCH  18  20
ENDBRANCH  17  18
ENDBRANCH  10  12
ENDBRANCH   7  10
ENDBRANCH   4   7
BRANCH   6  22
ATOM     22  N   UNL     1       0.457   9.536  22.420  0.00  0.00    +0.000 N 
ATOM     23  O   UNL     1       1.259   9.617  23.362  0.00  0.00    +0.000 OA
ATOM     24  O   UNL     1      -0.769   9.707  22.502  0.00  0.00    +0.000 OA
ENDBRANCH   6  22
BRANCH   1  25
ATOM     25  N   UNL     1       0.705  11.472  20.261  0.00  0.00    +0.000 N 
ATOM     26  H   UNL     1       1.481  12.143  20.201  0.00  0.00    +0.000 HD
BRANCH  25  28
ATOM     27  C   UNL     1      -1.157  10.898  19.114  0.00  0.00    +0.000 C 
ATOM     28  N   UNL     1      -0.525  11.803  19.791  0.00  0.00    +0.000 NA
BRANCH  27  31
ATOM     29  C   UNL     1      -4.010  11.030  16.605  0.00  0.00    +0.000 A 
ATOM     30  C   UNL     1      -2.755  10.783  17.185  0.00  0.00    +0.000 A 
ATOM     31  C   UNL     1      -2.472  11.186  18.496  0.00  0.00    +0.000 A 
ATOM     32  C   UNL     1      -3.449  11.842  19.245  0.00  0.00    +0.000 A 
ATOM     33  C   UNL     1      -4.700  12.096  18.677  0.00  0.00    +0.000 A 
ATOM     34  C   UNL     1      -4.980  11.694  17.364  0.00  0.00    +0.000 A 
BRANCH  29  36
ATOM     35  C   UNL     1      -2.942  10.044  14.698  0.00  0.00    +0.000 C 
ATOM     36  O   UNL     1      -4.109  10.557  15.325  0.00  0.00    +0.000 OA
ENDBRANCH  29  36
BRANCH  34  37
ATOM     37  O   UNL     1      -6.219  11.967  16.857  0.00  0.00    +0.000 OA
ATOM     38  H   UNL     1      -6.896  11.784  17.529  0.00  0.00    +0.000 HD
ENDBRANCH  34  37
ENDBRANCH  27  31
ENDBRANCH  25  28
ENDBRANCH   1  25
TORSDOF 11
ENDMDL
MODEL 9
REMARK VINA RESULT:      -8.2      6.176      9.550
REMARK  Name = 
REMARK  12 active torsions:
REMARK  status: ('A' for Active; 'I' for Inactive)
REMARK    1  A    between atoms: C_1  and  O_2
REMARK    2  A    between atoms: O_2  and  C_3
REMARK    3  A    between atoms: C_5  and  C_6
REMARK    4  A    between atoms: N_7  and  N_8
REMARK    5  A    between atoms: N_8  and  C_9
REMARK    6  A    between atoms: C_12  and  S_13
REMARK    7  A    between atoms: S_13  and  N_16
REMARK    8  A    between atoms: N_16  and  C_17
REMARK    9  A    between atoms: C_22  and  C_23
REMARK   10  A    between atoms: C_23  and  O_25
REMARK   11  A    between atoms: C_27  and  N_28
REMARK   12  A    between atoms: C_33  and  O_34
REMARK                            x       y       z     vdW  Elec       q    Type
REMARK                         _______ _______ _______ _____ _____    ______ ____
ROOT
ATOM      1  C   UNL     1       0.785  10.599  19.596  0.00  0.00    +0.000 A 
ATOM      2  C   UNL     1       1.348  10.473  18.313  0.00  0.00    +0.000 A 
ATOM      3  C   UNL     1       1.992   9.301  17.900  0.00  0.00    +0.000 A 
ATOM      4  C   UNL     1       2.068   8.207  18.766  0.00  0.00    +0.000 A 
ATOM      5  C   UNL     1       1.534   8.295  20.053  0.00  0.00    +0.000 A 
ATOM      6  C   UNL     1       0.897   9.485  20.447  0.00  0.00    +0.000 A 
ENDROOT
BRANCH   4   7
ATOM      7  S   UNL     1       2.977   6.755  18.279  0.00  0.00    +0.000 S 
ATOM      8  O   UNL     1       2.019   5.841  17.697  0.00  0.00    +0.000 OA
ATOM      9  O   UNL     1       4.146   7.197  17.542  0.00  0.00    +0.000 OA
BRANCH   7  10
ATOM     10  N   UNL     1       3.469   6.074  19.755  0.00  0.00    +0.000 N 
ATOM     11  H   UNL     1       3.274   6.770  20.491  0.00  0.00    +0.000 HD
BRANCH  10  12
ATOM     12  C   UNL     1       2.976   4.758  20.055  0.00  0.00    +0.000 A 
ATOM     13  C   UNL     1       1.810   4.659  20.818  0.00  0.00    +0.000 A 
ATOM     14  C   UNL     1       1.315   3.410  21.194  0.00  0.00    +0.000 A 
ATOM     15  C   UNL     1       1.968   2.247  20.792  0.00  0.00    +0.000 A 
ATOM     16  C   UNL     1       3.128   2.329  20.019  0.00  0.00    +0.000 A 
ATOM     17  C   UNL     1       3.660   3.584  19.676  0.00  0.00    +0.000 A 
BRANCH  17  18
ATOM     18  C   UNL     1       4.891   3.670  18.855  0.00  0.00    +0.000 C 
ATOM     19  O   UNL     1       5.926   4.159  19.282  0.00  0.00    +0.000 OA
BRANCH  18  20
ATOM     20  O   UNL     1       4.770   3.169  17.606  0.00  0.00    +0.000 OA
ATOM     21  H   UNL     1       3.927   2.713  17.422  0.00  0.00    +0.000 HD
ENDBRANCH  18  20
ENDBRANCH  17  18
ENDBRANCH  10  12
ENDBRANCH   7  10
ENDBRANCH   4   7
BRANCH   6  22
ATOM     22  N   UNL     1       0.301   9.513  21.772  0.00  0.00    +0.000 N 
ATOM     23  O   UNL     1       0.725  10.362  22.569  0.00  0.00    +0.000 OA
ATOM     24  O   UNL     1      -0.562   8.658  22.024  0.00  0.00    +0.000 OA
ENDBRANCH   6  22
BRANCH   1  25
ATOM     25  N   UNL     1       0.089  11.779  19.958  0.00  0.00    +0.000 N 
ATOM     26  H   UNL     1       0.520  12.639  19.599  0.00  0.00    +0.000 HD
BRANCH  25  28
ATOM     27  C   UNL     1      -1.891  12.721  20.512  0.00  0.00    +0.000 C 
ATOM     28  N   UNL     1      -1.262  11.682  20.065  0.00  0.00    +0.000 NA
BRANCH  27  31
ATOM     29  C   UNL     1      -5.625  12.367  19.896  0.00  0.00    +0.000 A 
ATOM     30  C   UNL     1      -4.239  12.425  19.682  0.00  0.00    +0.000 A 
ATOM     31  C   UNL     1      -3.355  12.690  20.736  0.00  0.00    +0.000 A 
ATOM     32  C   UNL     1      -3.853  12.899  22.022  0.00  0.00    +0.000 A 
ATOM     33  C   UNL     1      -5.231  12.847  22.246  0.00  0.00    +0.000 A 
ATOM     34  C   UNL     1      -6.114  12.584  21.190  0.00  0.00    +0.000 A 
BRANCH  29  36
ATOM     35  C   UNL     1      -6.726  10.744  18.517  0.00  0.00    +0.000 C 
ATOM     36  O   UNL     1      -6.330  12.087  18.757  0.00  0.00    +0.000 OA
ENDBRANCH  29  36
BRANCH  34  37
ATOM     37  O   UNL     1      -7.452  12.545  21.463  0.00  0.00    +0.000 OA
ATOM     38  H   UNL     1      -7.590  12.284  22.388  0.00  0.00    +0.000 HD
ENDBRANCH  34  37
ENDBRANCH  27  31
ENDBRANCH  25  28
ENDBRANCH   1  25
TORSDOF 11
ENDMDL
