MODEL 1
REMARK VINA RESULT:      -7.4      0.000      0.000
REMARK  Name = 
REMARK  8 active torsions:
REMARK  status: ('A' for Active; 'I' for Inactive)
REMARK    1  A    between atoms: C_1  and  C_2
REMARK    2  A    between atoms: N_4  and  C_5
REMARK    3  A    between atoms: C_6  and  C_7
REMARK    4  A    between atoms: C_8  and  C_9
REMARK    5  A    between atoms: C_9  and  C_10
REMARK    6  A    between atoms: C_10  and  N_11
REMARK    7  A    between atoms: N_11  and  C_12
REMARK    8  A    between atoms: C_16  and  C_17
REMARK                            x       y       z     vdW  Elec       q    Type
REMARK                         _______ _______ _______ _____ _____    ______ ____
ROOT
ATOM      1  N   UNL     1       4.704   2.951  16.869  0.00  0.00    +0.000 N 
ATOM      2  H   UNL     1       4.033   2.694  16.146  0.00  0.00    +0.000 HD
ENDROOT
BRANCH   1   3
ATOM      3  C   UNL     1       5.662   3.862  16.381  0.00  0.00    +0.000 A 
ATOM      4  C   UNL     1       6.189   3.783  15.091  0.00  0.00    +0.000 A 
ATOM      5  C   UNL     1       7.088   4.743  14.658  0.00  0.00    +0.000 A 
ATOM      6  N   UNL     1       7.486   5.788  15.404  0.00  0.00    +0.000 NA
ATOM      7  C   UNL     1       6.939   5.910  16.648  0.00  0.00    +0.000 A 
ATOM      8  C   UNL     1       6.017   4.979  17.147  0.00  0.00    +0.000 A 
BRANCH   7   9
ATOM      9  C   UNL     1       7.354   7.091  17.515  0.00  0.00    +0.000 C 
ATOM     10  F   UNL     1       6.343   7.959  17.808  0.00  0.00    +0.000 F 
ATOM     11  F   UNL     1       7.868   6.704  18.719  0.00  0.00    +0.000 F 
ATOM     12  F   UNL     1       8.330   7.847  16.930  0.00  0.00    +0.000 F 
ENDBRANCH   7   9
ENDBRANCH   1   3
BRANCH   1  13
ATOM     13  C   UNL     1       4.045   3.301  18.140  0.00  0.00    +0.000 C 
BRANCH  13  14
ATOM     14  C   UNL     1       2.619   3.821  17.923  0.00  0.00    +0.000 C 
BRANCH  14  22
ATOM     15  C   UNL     1       1.165   3.223  20.807  0.00  0.00    +0.000 C 
ATOM     16  C   UNL     1       1.577   4.529  20.233  0.00  0.00    +0.000 A 
ATOM     17  N   UNL     1       1.370   5.646  20.935  0.00  0.00    +0.000 NA
ATOM     18  N   UNL     1       1.850   6.628  20.157  0.00  0.00    +0.000 N 
ATOM     19  C   UNL     1       1.737   7.995  20.610  0.00  0.00    +0.000 C 
ATOM     20  C   UNL     1       2.406   6.173  18.989  0.00  0.00    +0.000 A 
ATOM     21  C   UNL     1       3.064   7.051  17.988  0.00  0.00    +0.000 C 
ATOM     22  C   UNL     1       2.214   4.798  18.987  0.00  0.00    +0.000 A 
ENDBRANCH  14  22
ENDBRANCH  13  14
ENDBRANCH   1  13
TORSDOF 5
ENDMDL
MODEL 2
REMARK VINA RESULT:      -7.3      2.059      2.603
REMARK  Name = 
REMARK  8 active torsions:
REMARK  status: ('A' for Active; 'I' for Inactive)
REMARK    1  A    between atoms: C_1  and  C_2
REMARK    2  A    between atoms: N_4  and  C_5
REMARK    3  A    between atoms: C_6  and  C_7
REMARK    4  A    between atoms: C_8  and  C_9
REMARK    5  A    between atoms: C_9  and  C_10
REMARK    6  A    between atoms: C_10  and  N_11
REMARK    7  A    between atoms: N_11  and  C_12
REMARK    8  A    between atoms: C_16  and  C_17
REMARK                            x       y       z     vdW  Elec       q    Type
REMARK                         _______ _______ _______ _____ _____    ______ ____
ROOT
ATOM      1  N   UNL     1       5.028   3.666  19.083  0.00  0.00    +0.000 N 
ATOM      2  H   UNL     1       5.644   3.130  19.693  0.00  0.00    +0.000 HD
ENDROOT
BRANCH   1   3
ATOM      3  C   UNL     1       5.764   4.468  18.187  0.00  0.00    +0.000 A 
ATOM      4  C   UNL     1       6.619   5.484  18.614  0.00  0.00    +0.000 A 
ATOM      5  C   UNL     1       7.352   6.200  17.682  0.00  0.00    +0.000 A 
ATOM      6  N   UNL     1       7.315   5.965  16.359  0.00  0.00    +0.000 NA
ATOM      7  C   UNL     1       6.525   4.939  15.930  0.00  0.00    +0.000 A 
ATOM      8  C   UNL     1       5.762   4.168  16.820  0.00  0.00    +0.000 A 
BRANCH   7   9
ATOM      9  C   UNL     1       6.471   4.634  14.440  0.00  0.00    +0.000 C 
ATOM     10  F   UNL     1       7.459   5.223  13.706  0.00  0.00    +0.000 F 
ATOM     11  F   UNL     1       6.561   3.297  14.173  0.00  0.00    +0.000 F 
ATOM     12  F   UNL     1       5.298   5.039  13.869  0.00  0.00    +0.000 F 
ENDBRANCH   7   9
ENDBRANCH   1   3
BRANCH   1  13
ATOM     13  C   UNL     1       3.959   2.835  18.502  0.00  0.00    +0.000 C 
BRANCH  13  14
ATOM     14  C   UNL     1       2.781   3.681  18.004  0.00  0.00    +0.000 C 
BRANCH  14  22
ATOM     15  C   UNL     1       1.317   3.140  20.893  0.00  0.00    +0.000 C 
ATOM     16  C   UNL     1       1.699   4.437  20.280  0.00  0.00    +0.000 A 
ATOM     17  N   UNL     1       1.456   5.571  20.943  0.00  0.00    +0.000 NA
ATOM     18  N   UNL     1       1.917   6.539  20.136  0.00  0.00    +0.000 N 
ATOM     19  C   UNL     1       1.764   7.917  20.543  0.00  0.00    +0.000 C 
ATOM     20  C   UNL     1       2.496   6.061  18.989  0.00  0.00    +0.000 A 
ATOM     21  C   UNL     1       3.139   6.923  17.965  0.00  0.00    +0.000 C 
ATOM     22  C   UNL     1       2.341   4.682  19.031  0.00  0.00    +0.000 A 
ENDBRANCH  14  22
ENDBRANCH  13  14
ENDBRANCH   1  13
TORSDOF 5
ENDMDL
MODEL 3
REMARK VINA RESULT:      -7.0      0.982      1.423
REMARK  Name = 
REMARK  8 active torsions:
REMARK  status: ('A' for Active; 'I' for Inactive)
REMARK    1  A    between atoms: C_1  and  C_2
REMARK    2  A    between atoms: N_4  and  C_5
REMARK    3  A    between atoms: C_6  and  C_7
REMARK    4  A    between atoms: C_8  and  C_9
REMARK    5  A    between atoms: C_9  and  C_10
REMARK    6  A    between atoms: C_10  and  N_11
REMARK    7  A    between atoms: N_11  and  C_12
REMARK    8  A    between atoms: C_16  and  C_17
REMARK                            x       y       z     vdW  Elec       q    Type
REMARK                         _______ _______ _______ _____ _____    ______ ____
ROOT
ATOM      1  N   UNL     1       4.334   2.858  16.682  0.00  0.00    +0.000 N 
ATOM      2  H   UNL     1       3.587   3.052  16.017  0.00  0.00    +0.000 HD
ENDROOT
BRANCH   1   3
ATOM      3  C   UNL     1       5.399   3.770  16.541  0.00  0.00    +0.000 A 
ATOM      4  C   UNL     1       5.816   4.256  15.301  0.00  0.00    +0.000 A 
ATOM      5  C   UNL     1       6.835   5.191  15.239  0.00  0.00    +0.000 A 
ATOM      6  N   UNL     1       7.455   5.697  16.320  0.00  0.00    +0.000 NA
ATOM      7  C   UNL     1       7.022   5.274  17.542  0.00  0.00    +0.000 A 
ATOM      8  C   UNL     1       5.989   4.334  17.679  0.00  0.00    +0.000 A 
BRANCH   7   9
ATOM      9  C   UNL     1       7.689   5.837  18.788  0.00  0.00    +0.000 C 
ATOM     10  F   UNL     1       8.738   5.097  19.251  0.00  0.00    +0.000 F 
ATOM     11  F   UNL     1       8.183   7.096  18.597  0.00  0.00    +0.000 F 
ATOM     12  F   UNL     1       6.823   5.944  19.839  0.00  0.00    +0.000 F 
ENDBRANCH   7   9
ENDBRANCH   1   3
BRANCH   1  13
ATOM     13  C   UNL     1       3.821   2.644  18.047  0.00  0.00    +0.000 C 
BRANCH  13  14
ATOM     14  C   UNL     1       2.338   3.017  18.168  0.00  0.00    +0.000 C 
BRANCH  14  22
ATOM     15  C   UNL     1       1.316   2.858  21.285  0.00  0.00    +0.000 C 
ATOM     16  C   UNL     1       1.672   4.060  20.489  0.00  0.00    +0.000 A 
ATOM     17  N   UNL     1       1.601   5.266  21.059  0.00  0.00    +0.000 NA
ATOM     18  N   UNL     1       1.985   6.117  20.096  0.00  0.00    +0.000 N 
ATOM     19  C   UNL     1       1.976   7.535  20.375  0.00  0.00    +0.000 C 
ATOM     20  C   UNL     1       2.348   5.492  18.931  0.00  0.00    +0.000 A 
ATOM     21  C   UNL     1       2.871   6.205  17.737  0.00  0.00    +0.000 C 
ATOM     22  C   UNL     1       2.122   4.138  19.139  0.00  0.00    +0.000 A 
ENDBRANCH  14  22
ENDBRANCH  13  14
ENDBRANCH   1  13
TORSDOF 5
ENDMDL
MODEL 4
REMARK VINA RESULT:      -7.0      1.022      2.405
REMARK  Name = 
REMARK  8 active torsions:
REMARK  status: ('A' for Active; 'I' for Inactive)
REMARK    1  A    between atoms: C_1  and  C_2
REMARK    2  A    between atoms: N_4  and  C_5
REMARK    3  A    between atoms: C_6  and  C_7
REMARK    4  A    between atoms: C_8  and  C_9
REMARK    5  A    between atoms: C_9  and  C_10
REMARK    6  A    between atoms: C_10  and  N_11
REMARK    7  A    between atoms: N_11  and  C_12
REMARK    8  A    between atoms: C_16  and  C_17
REMARK                            x       y       z     vdW  Elec       q    Type
REMARK                         _______ _______ _______ _____ _____    ______ ____
ROOT
ATOM      1  N   UNL     1       4.447   3.299  17.440  0.00  0.00    +0.000 N 
ATOM      2  H   UNL     1       4.776   2.361  17.664  0.00  0.00    +0.000 HD
ENDROOT
BRANCH   1   3
ATOM      3  C   UNL     1       5.462   4.070  16.839  0.00  0.00    +0.000 A 
ATOM      4  C   UNL     1       5.944   3.812  15.555  0.00  0.00    +0.000 A 
ATOM      5  C   UNL     1       6.907   4.642  15.005  0.00  0.00    +0.000 A 
ATOM      6  N   UNL     1       7.408   5.724  15.627  0.00  0.00    +0.000 NA
ATOM      7  C   UNL     1       6.907   6.021  16.860  0.00  0.00    +0.000 A 
ATOM      8  C   UNL     1       5.927   5.228  17.474  0.00  0.00    +0.000 A 
BRANCH   7   9
ATOM      9  C   UNL     1       7.440   7.248  17.587  0.00  0.00    +0.000 C 
ATOM     10  F   UNL     1       8.049   6.978  18.779  0.00  0.00    +0.000 F 
ATOM     11  F   UNL     1       8.361   7.937  16.851  0.00  0.00    +0.000 F 
ATOM     12  F   UNL     1       6.456   8.151  17.873  0.00  0.00    +0.000 F 
ENDBRANCH   7   9
ENDBRANCH   1   3
BRANCH   1  13
ATOM     13  C   UNL     1       3.138   3.283  16.762  0.00  0.00    +0.000 C 
BRANCH  13  14
ATOM     14  C   UNL     1       2.183   4.338  17.332  0.00  0.00    +0.000 C 
BRANCH  14  22
ATOM     15  C   UNL     1       2.784   6.616  19.621  0.00  0.00    +0.000 C 
ATOM     16  C   UNL     1       2.322   5.217  19.807  0.00  0.00    +0.000 A 
ATOM     17  N   UNL     1       2.088   4.765  21.043  0.00  0.00    +0.000 NA
ATOM     18  N   UNL     1       1.686   3.497  20.868  0.00  0.00    +0.000 N 
ATOM     19  C   UNL     1       1.392   2.693  22.031  0.00  0.00    +0.000 C 
ATOM     20  C   UNL     1       1.607   3.129  19.549  0.00  0.00    +0.000 A 
ATOM     21  C   UNL     1       1.127   1.801  19.088  0.00  0.00    +0.000 C 
ATOM     22  C   UNL     1       2.052   4.224  18.821  0.00  0.00    +0.000 A 
ENDBRANCH  14  22
ENDBRANCH  13  14
ENDBRANCH   1  13
TORSDOF 5
ENDMDL
MODEL 5
REMARK VINA RESULT:      -6.9      2.795      3.322
REMARK  Name = 
REMARK  8 active torsions:
REMARK  status: ('A' for Active; 'I' for Inactive)
REMARK    1  A    between atoms: C_1  and  C_2
REMARK    2  A    between atoms: N_4  and  C_5
REMARK    3  A    between atoms: C_6  and  C_7
REMARK    4  A    between atoms: C_8  and  C_9
REMARK    5  A    between atoms: C_9  and  C_10
REMARK    6  A    between atoms: C_10  and  N_11
REMARK    7  A    between atoms: N_11  and  C_12
REMARK    8  A    between atoms: C_16  and  C_17
REMARK                            x       y       z     vdW  Elec       q    Type
REMARK                         _______ _______ _______ _____ _____    ______ ____
ROOT
ATOM      1  N   UNL     1       4.932   3.297  17.007  0.00  0.00    +0.000 N 
ATOM      2  H   UNL     1       4.205   2.750  16.547  0.00  0.00    +0.000 HD
ENDROOT
BRANCH   1   3
ATOM      3  C   UNL     1       5.728   3.986  16.070  0.00  0.00    +0.000 A 
ATOM      4  C   UNL     1       6.619   4.995  16.436  0.00  0.00    +0.000 A 
ATOM      5  C   UNL     1       7.410   5.595  15.470  0.00  0.00    +0.000 A 
ATOM      6  N   UNL     1       7.397   5.248  14.170  0.00  0.00    +0.000 NA
ATOM      7  C   UNL     1       6.571   4.226  13.806  0.00  0.00    +0.000 A 
ATOM      8  C   UNL     1       5.748   3.570  14.733  0.00  0.00    +0.000 A 
BRANCH   7   9
ATOM      9  C   UNL     1       6.542   3.797  12.346  0.00  0.00    +0.000 C 
ATOM     10  F   UNL     1       7.203   4.636  11.497  0.00  0.00    +0.000 F 
ATOM     11  F   UNL     1       7.095   2.564  12.149  0.00  0.00    +0.000 F 
ATOM     12  F   UNL     1       5.269   3.705  11.856  0.00  0.00    +0.000 F 
ENDBRANCH   7   9
ENDBRANCH   1   3
BRANCH   1  13
ATOM     13  C   UNL     1       4.404   4.086  18.135  0.00  0.00    +0.000 C 
BRANCH  13  14
ATOM     14  C   UNL     1       2.883   4.261  18.051  0.00  0.00    +0.000 C 
BRANCH  14  22
ATOM     15  C   UNL     1       1.481   3.632  20.953  0.00  0.00    +0.000 C 
ATOM     16  C   UNL     1       1.763   4.950  20.329  0.00  0.00    +0.000 A 
ATOM     17  N   UNL     1       1.440   6.067  20.986  0.00  0.00    +0.000 NA
ATOM     18  N   UNL     1       1.823   7.061  20.170  0.00  0.00    +0.000 N 
ATOM     19  C   UNL     1       1.571   8.426  20.569  0.00  0.00    +0.000 C 
ATOM     20  C   UNL     1       2.429   6.619  19.022  0.00  0.00    +0.000 A 
ATOM     21  C   UNL     1       3.000   7.519  17.988  0.00  0.00    +0.000 C 
ATOM     22  C   UNL     1       2.376   5.232  19.074  0.00  0.00    +0.000 A 
ENDBRANCH  14  22
ENDBRANCH  13  14
ENDBRANCH   1  13
TORSDOF 5
ENDMDL
MODEL 6
REMARK VINA RESULT:      -6.8      2.769      3.874
REMARK  Name = 
REMARK  8 active torsions:
REMARK  status: ('A' for Active; 'I' for Inactive)
REMARK    1  A    between atoms: C_1  and  C_2
REMARK    2  A    between atoms: N_4  and  C_5
REMARK    3  A    between atoms: C_6  and  C_7
REMARK    4  A    between atoms: C_8  and  C_9
REMARK    5  A    between atoms: C_9  and  C_10
REMARK    6  A    between atoms: C_10  and  N_11
REMARK    7  A    between atoms: N_11  and  C_12
REMARK    8  A    between atoms: C_16  and  C_17
REMARK                            x       y       z     vdW  Elec       q    Type
REMARK                         _______ _______ _______ _____ _____    ______ ____
ROOT
ATOM      1  N   UNL     1       4.335   7.241  16.921  0.00  0.00    +0.000 N 
ATOM      2  H   UNL     1       4.676   8.201  16.928  0.00  0.00    +0.000 HD
ENDROOT
BRANCH   1   3
ATOM      3  C   UNL     1       5.352   6.336  16.556  0.00  0.00    +0.000 A 
ATOM      4  C   UNL     1       6.348   5.924  17.443  0.00  0.00    +0.000 A 
ATOM      5  C   UNL     1       7.287   4.992  17.034  0.00  0.00    +0.000 A 
ATOM      6  N   UNL     1       7.295   4.421  15.816  0.00  0.00    +0.000 NA
ATOM      7  C   UNL     1       6.296   4.772  14.957  0.00  0.00    +0.000 A 
ATOM      8  C   UNL     1       5.309   5.704  15.308  0.00  0.00    +0.000 A 
BRANCH   7   9
ATOM      9  C   UNL     1       6.265   4.133  13.576  0.00  0.00    +0.000 C 
ATOM     10  F   UNL     1       7.153   4.665  12.687  0.00  0.00    +0.000 F 
ATOM     11  F   UNL     1       6.534   2.794  13.608  0.00  0.00    +0.000 F 
ATOM     12  F   UNL     1       5.039   4.241  12.980  0.00  0.00    +0.000 F 
ENDBRANCH   7   9
ENDBRANCH   1   3
BRANCH   1  13
ATOM     13  C   UNL     1       3.563   6.916  18.133  0.00  0.00    +0.000 C 
BRANCH  13  14
ATOM     14  C   UNL     1       2.482   5.862  17.860  0.00  0.00    +0.000 C 
BRANCH  14  22
ATOM     15  C   UNL     1       3.957   2.982  17.300  0.00  0.00    +0.000 C 
ATOM     16  C   UNL     1       3.246   3.434  18.522  0.00  0.00    +0.000 A 
ATOM     17  N   UNL     1       3.169   2.614  19.575  0.00  0.00    +0.000 NA
ATOM     18  N   UNL     1       2.484   3.310  20.495  0.00  0.00    +0.000 N 
ATOM     19  C   UNL     1       2.182   2.682  21.760  0.00  0.00    +0.000 C 
ATOM     20  C   UNL     1       2.155   4.576  20.085  0.00  0.00    +0.000 A 
ATOM     21  C   UNL     1       1.454   5.567  20.941  0.00  0.00    +0.000 C 
ATOM     22  C   UNL     1       2.609   4.683  18.777  0.00  0.00    +0.000 A 
ENDBRANCH  14  22
ENDBRANCH  13  14
ENDBRANCH   1  13
TORSDOF 5
ENDMDL
MODEL 7
REMARK VINA RESULT:      -6.8      2.076      2.727
REMARK  Name = 
REMARK  8 active torsions:
REMARK  status: ('A' for Active; 'I' for Inactive)
REMARK    1  A    between atoms: C_1  and  C_2
REMARK    2  A    between atoms: N_4  and  C_5
REMARK    3  A    between atoms: C_6  and  C_7
REMARK    4  A    between atoms: C_8  and  C_9
REMARK    5  A    between atoms: C_9  and  C_10
REMARK    6  A    between atoms: C_10  and  N_11
REMARK    7  A    between atoms: N_11  and  C_12
REMARK    8  A    between atoms: C_16  and  C_17
REMARK                            x       y       z     vdW  Elec       q    Type
REMARK                         _______ _______ _______ _____ _____    ______ ____
ROOT
ATOM      1  N   UNL     1       3.830   2.121  18.477  0.00  0.00    +0.000 N 
ATOM      2  H   UNL     1       4.401   1.280  18.413  0.00  0.00    +0.000 HD
ENDROOT
BRANCH   1   3
ATOM      3  C   UNL     1       4.583   3.277  18.186  0.00  0.00    +0.000 A 
ATOM      4  C   UNL     1       5.278   3.989  19.164  0.00  0.00    +0.000 A 
ATOM      5  C   UNL     1       6.041   5.086  18.801  0.00  0.00    +0.000 A 
ATOM      6  N   UNL     1       6.183   5.514  17.534  0.00  0.00    +0.000 NA
ATOM      7  C   UNL     1       5.554   4.795  16.560  0.00  0.00    +0.000 A 
ATOM      8  C   UNL     1       4.771   3.670  16.856  0.00  0.00    +0.000 A 
BRANCH   7   9
ATOM      9  C   UNL     1       5.706   5.241  15.112  0.00  0.00    +0.000 C 
ATOM     10  F   UNL     1       5.153   4.391  14.198  0.00  0.00    +0.000 F 
ATOM     11  F   UNL     1       5.136   6.459  14.874  0.00  0.00    +0.000 F 
ATOM     12  F   UNL     1       7.015   5.376  14.744  0.00  0.00    +0.000 F 
ENDBRANCH   7   9
ENDBRANCH   1   3
BRANCH   1  13
ATOM     13  C   UNL     1       2.543   1.975  17.774  0.00  0.00    +0.000 C 
BRANCH  13  14
ATOM     14  C   UNL     1       1.352   2.306  18.682  0.00  0.00    +0.000 C 
BRANCH  14  22
ATOM     15  C   UNL     1       1.847   2.546  21.920  0.00  0.00    +0.000 C 
ATOM     16  C   UNL     1       1.809   3.632  20.908  0.00  0.00    +0.000 A 
ATOM     17  N   UNL     1       2.007   4.895  21.296  0.00  0.00    +0.000 NA
ATOM     18  N   UNL     1       1.918   5.613  20.167  0.00  0.00    +0.000 N 
ATOM     19  C   UNL     1       2.041   7.050  20.243  0.00  0.00    +0.000 C 
ATOM     20  C   UNL     1       1.714   4.845  19.049  0.00  0.00    +0.000 A 
ATOM     21  C   UNL     1       1.644   5.393  17.670  0.00  0.00    +0.000 C 
ATOM     22  C   UNL     1       1.602   3.537  19.501  0.00  0.00    +0.000 A 
ENDBRANCH  14  22
ENDBRANCH  13  14
ENDBRANCH   1  13
TORSDOF 5
ENDMDL
MODEL 8
REMARK VINA RESULT:      -6.8      0.602      2.086
REMARK  Name = 
REMARK  8 active torsions:
REMARK  status: ('A' for Active; 'I' for Inactive)
REMARK    1  A    between atoms: C_1  and  C_2
REMARK    2  A    between atoms: N_4  and  C_5
REMARK    3  A    between atoms: C_6  and  C_7
REMARK    4  A    between atoms: C_8  and  C_9
REMARK    5  A    between atoms: C_9  and  C_10
REMARK    6  A    between atoms: C_10  and  N_11
REMARK    7  A    between atoms: N_11  and  C_12
REMARK    8  A    between atoms: C_16  and  C_17
REMARK                            x       y       z     vdW  Elec       q    Type
REMARK                         _______ _______ _______ _____ _____    ______ ____
ROOT
ATOM      1  N   UNL     1       4.734   3.038  17.002  0.00  0.00    +0.000 N 
ATOM      2  H   UNL     1       4.143   2.659  16.264  0.00  0.00    +0.000 HD
ENDROOT
BRANCH   1   3
ATOM      3  C   UNL     1       5.695   3.931  16.483  0.00  0.00    +0.000 A 
ATOM      4  C   UNL     1       6.161   3.857  15.170  0.00  0.00    +0.000 A 
ATOM      5  C   UNL     1       7.066   4.798  14.710  0.00  0.00    +0.000 A 
ATOM      6  N   UNL     1       7.525   5.821  15.452  0.00  0.00    +0.000 NA
ATOM      7  C   UNL     1       7.037   5.940  16.720  0.00  0.00    +0.000 A 
ATOM      8  C   UNL     1       6.113   5.026  17.248  0.00  0.00    +0.000 A 
BRANCH   7   9
ATOM      9  C   UNL     1       7.522   7.096  17.583  0.00  0.00    +0.000 C 
ATOM     10  F   UNL     1       8.224   6.718  18.691  0.00  0.00    +0.000 F 
ATOM     11  F   UNL     1       8.341   7.953  16.904  0.00  0.00    +0.000 F 
ATOM     12  F   UNL     1       6.493   7.868  18.045  0.00  0.00    +0.000 F 
ENDBRANCH   7   9
ENDBRANCH   1   3
BRANCH   1  13
ATOM     13  C   UNL     1       3.950   3.508  18.157  0.00  0.00    +0.000 C 
BRANCH  13  14
ATOM     14  C   UNL     1       2.670   4.234  17.725  0.00  0.00    +0.000 C 
BRANCH  14  22
ATOM     15  C   UNL     1       3.449   7.346  17.023  0.00  0.00    +0.000 C 
ATOM     16  C   UNL     1       2.773   6.813  18.233  0.00  0.00    +0.000 A 
ATOM     17  N   UNL     1       2.394   7.658  19.196  0.00  0.00    +0.000 NA
ATOM     18  N   UNL     1       1.821   6.877  20.124  0.00  0.00    +0.000 N 
ATOM     19  C   UNL     1       1.334   7.483  21.341  0.00  0.00    +0.000 C 
ATOM     20  C   UNL     1       1.775   5.553  19.768  0.00  0.00    +0.000 A 
ATOM     21  C   UNL     1       1.135   4.496  20.591  0.00  0.00    +0.000 C 
ATOM     22  C   UNL     1       2.425   5.466  18.543  0.00  0.00    +0.000 A 
ENDBRANCH  14  22
ENDBRANCH  13  14
ENDBRANCH   1  13
TORSDOF 5
ENDMDL
MODEL 9
REMARK VINA RESULT:      -6.6      2.844      3.413
REMARK  Name = 
REMARK  8 active torsions:
REMARK  status: ('A' for Active; 'I' for Inactive)
REMARK    1  A    between atoms: C_1  and  C_2
REMARK    2  A    between atoms: N_4  and  C_5
REMARK    3  A    between atoms: C_6  and  C_7
REMARK    4  A    between atoms: C_8  and  C_9
REMARK    5  A    between atoms: C_9  and  C_10
REMARK    6  A    between atoms: C_10  and  N_11
REMARK    7  A    between atoms: N_11  and  C_12
REMARK    8  A    between atoms: C_16  and  C_17
REMARK                            x       y       z     vdW  Elec       q    Type
REMARK                         _______ _______ _______ _____ _____    ______ ____
ROOT
ATOM      1  N   UNL     1       4.951   2.959  16.753  0.00  0.00    +0.000 N 
ATOM      2  H   UNL     1       4.677   2.082  16.311  0.00  0.00    +0.000 HD
ENDROOT
BRANCH   1   3
ATOM      3  C   UNL     1       5.760   3.734  15.898  0.00  0.00    +0.000 A 
ATOM      4  C   UNL     1       6.637   4.711  16.371  0.00  0.00    +0.000 A 
ATOM      5  C   UNL     1       7.442   5.399  15.479  0.00  0.00    +0.000 A 
ATOM      6  N   UNL     1       7.457   5.172  14.154  0.00  0.00    +0.000 NA
ATOM      7  C   UNL     1       6.646   4.183  13.682  0.00  0.00    +0.000 A 
ATOM      8  C   UNL     1       5.810   3.441  14.530  0.00  0.00    +0.000 A 
BRANCH   7   9
ATOM      9  C   UNL     1       6.648   3.888  12.189  0.00  0.00    +0.000 C 
ATOM     10  F   UNL     1       7.194   2.683  11.852  0.00  0.00    +0.000 F 
ATOM     11  F   UNL     1       5.393   3.887  11.651  0.00  0.00    +0.000 F 
ATOM     12  F   UNL     1       7.347   4.821  11.475  0.00  0.00    +0.000 F 
ENDBRANCH   7   9
ENDBRANCH   1   3
BRANCH   1  13
ATOM     13  C   UNL     1       3.809   3.644  17.384  0.00  0.00    +0.000 C 
BRANCH  13  14
ATOM     14  C   UNL     1       4.023   3.848  18.889  0.00  0.00    +0.000 C 
BRANCH  14  22
ATOM     15  C   UNL     1       2.020   3.847  21.492  0.00  0.00    +0.000 C 
ATOM     16  C   UNL     1       2.313   4.958  20.552  0.00  0.00    +0.000 A 
ATOM     17  N   UNL     1       1.728   6.144  20.739  0.00  0.00    +0.000 NA
ATOM     18  N   UNL     1       2.199   6.913  19.745  0.00  0.00    +0.000 N 
ATOM     19  C   UNL     1       1.720   8.271  19.629  0.00  0.00    +0.000 C 
ATOM     20  C   UNL     1       3.109   6.271  18.946  0.00  0.00    +0.000 A 
ATOM     21  C   UNL     1       3.824   6.922  17.818  0.00  0.00    +0.000 C 
ATOM     22  C   UNL     1       3.185   4.970  19.425  0.00  0.00    +0.000 A 
ENDBRANCH  14  22
ENDBRANCH  13  14
ENDBRANCH   1  13
TORSDOF 5
ENDMDL
