MODEL 1
REMARK VINA RESULT:      -6.9      0.000      0.000
REMARK  Name = 
REMARK  7 active torsions:
REMARK  status: ('A' for Active; 'I' for Inactive)
REMARK    1  A    between atoms: C_1  and  O_2
REMARK    2  A    between atoms: O_2  and  C_3
REMARK    3  A    between atoms: C_8  and  C_9
REMARK    4  A    between atoms: C_9  and  N_10
REMARK    5  A    between atoms: N_10  and  C_11
REMARK    6  A    between atoms: C_12  and  C_14
REMARK    7  A    between atoms: C_14  and  N_15
REMARK                            x       y       z     vdW  Elec       q    Type
REMARK                         _______ _______ _______ _____ _____    ______ ____
ROOT
ATOM      1  N   UNL     1       5.432   5.094  18.039  0.00  0.00    +0.000 N 
ATOM      2  C   UNL     1       4.581   6.224  17.699  0.00  0.00    +0.000 C 
ATOM      3  C   UNL     1       6.754   5.000  17.602  0.00  0.00    +0.000 C 
ATOM      4  O   UNL     1       7.552   4.199  18.099  0.00  0.00    +0.000 OA
ENDROOT
BRANCH   1   5
ATOM      5  C   UNL     1       4.985   4.251  19.152  0.00  0.00    +0.000 C 
BRANCH   5  11
ATOM      6  C   UNL     1       2.522   4.001  19.847  0.00  0.00    +0.000 A 
ATOM      7  C   UNL     1       1.343   3.241  19.810  0.00  0.00    +0.000 A 
ATOM      8  C   UNL     1       1.174   2.228  18.868  0.00  0.00    +0.000 A 
ATOM      9  C   UNL     1       2.183   1.967  17.949  0.00  0.00    +0.000 A 
ATOM     10  C   UNL     1       3.385   2.675  18.017  0.00  0.00    +0.000 A 
ATOM     11  C   UNL     1       3.593   3.667  18.996  0.00  0.00    +0.000 A 
BRANCH   6  13
ATOM     12  C   UNL     1       2.019   6.259  20.340  0.00  0.00    +0.000 C 
ATOM     13  O   UNL     1       2.696   5.055  20.709  0.00  0.00    +0.000 OA
ENDBRANCH   6  13
ENDBRANCH   5  11
ENDBRANCH   1   5
BRANCH   3  14
ATOM     14  C   UNL     1       7.199   5.877  16.448  0.00  0.00    +0.000 C 
BRANCH  14  15
ATOM     15  N   UNL     1       7.129   5.208  15.159  0.00  0.00    +0.000 N 
ATOM     16  C   UNL     1       6.159   4.343  14.727  0.00  0.00    +0.000 A 
ATOM     17  C   UNL     1       6.442   4.111  13.407  0.00  0.00    +0.000 A 
ATOM     18 BR   UNL     1       5.513   3.037  12.197  0.00  0.00    +0.000 Br
ATOM     19  C   UNL     1       7.578   4.873  13.115  0.00  0.00    +0.000 A 
ATOM     20  N   UNL     1       8.010   5.542  14.188  0.00  0.00    +0.000 NA
ENDBRANCH  14  15
ENDBRANCH   3  14
TORSDOF 5
ENDMDL
MODEL 2
REMARK VINA RESULT:      -6.9      1.398      1.631
REMARK  Name = 
REMARK  7 active torsions:
REMARK  status: ('A' for Active; 'I' for Inactive)
REMARK    1  A    between atoms: C_1  and  O_2
REMARK    2  A    between atoms: O_2  and  C_3
REMARK    3  A    between atoms: C_8  and  C_9
REMARK    4  A    between atoms: C_9  and  N_10
REMARK    5  A    between atoms: N_10  and  C_11
REMARK    6  A    between atoms: C_12  and  C_14
REMARK    7  A    between atoms: C_14  and  N_15
REMARK                            x       y       z     vdW  Elec       q    Type
REMARK                         _______ _______ _______ _____ _____    ______ ____
ROOT
ATOM      1  N   UNL     1       4.879   5.710  18.158  0.00  0.00    +0.000 N 
ATOM      2  C   UNL     1       5.314   4.582  18.969  0.00  0.00    +0.000 C 
ATOM      3  C   UNL     1       5.460   6.007  16.924  0.00  0.00    +0.000 C 
ATOM      4  O   UNL     1       4.929   6.778  16.119  0.00  0.00    +0.000 OA
ENDROOT
BRANCH   1   5
ATOM      5  C   UNL     1       3.578   6.294  18.494  0.00  0.00    +0.000 C 
BRANCH   5  11
ATOM      6  C   UNL     1       1.887   5.246  20.124  0.00  0.00    +0.000 A 
ATOM      7  C   UNL     1       1.092   4.144  20.474  0.00  0.00    +0.000 A 
ATOM      8  C   UNL     1       0.808   3.144  19.545  0.00  0.00    +0.000 A 
ATOM      9  C   UNL     1       1.314   3.239  18.255  0.00  0.00    +0.000 A 
ATOM     10  C   UNL     1       2.158   4.299  17.916  0.00  0.00    +0.000 A 
ATOM     11  C   UNL     1       2.498   5.291  18.857  0.00  0.00    +0.000 A 
BRANCH   6  13
ATOM     12  C   UNL     1       1.168   7.347  20.941  0.00  0.00    +0.000 C 
ATOM     13  O   UNL     1       2.127   6.288  20.986  0.00  0.00    +0.000 OA
ENDBRANCH   6  13
ENDBRANCH   5  11
ENDBRANCH   1   5
BRANCH   3  14
ATOM     14  C   UNL     1       6.808   5.396  16.593  0.00  0.00    +0.000 C 
BRANCH  14  15
ATOM     15  N   UNL     1       6.893   4.900  15.229  0.00  0.00    +0.000 N 
ATOM     16  C   UNL     1       6.093   3.959  14.639  0.00  0.00    +0.000 A 
ATOM     17  C   UNL     1       6.457   3.949  13.319  0.00  0.00    +0.000 A 
ATOM     18 BR   UNL     1       5.759   2.912  11.934  0.00  0.00    +0.000 Br
ATOM     19  C   UNL     1       7.463   4.912  13.188  0.00  0.00    +0.000 A 
ATOM     20  N   UNL     1       7.742   5.493  14.358  0.00  0.00    +0.000 NA
ENDBRANCH  14  15
ENDBRANCH   3  14
TORSDOF 5
ENDMDL
MODEL 3
REMARK VINA RESULT:      -6.7      1.583      2.426
REMARK  Name = 
REMARK  7 active torsions:
REMARK  status: ('A' for Active; 'I' for Inactive)
REMARK    1  A    between atoms: C_1  and  O_2
REMARK    2  A    between atoms: O_2  and  C_3
REMARK    3  A    between atoms: C_8  and  C_9
REMARK    4  A    between atoms: C_9  and  N_10
REMARK    5  A    between atoms: N_10  and  C_11
REMARK    6  A    between atoms: C_12  and  C_14
REMARK    7  A    between atoms: C_14  and  N_15
REMARK                            x       y       z     vdW  Elec       q    Type
REMARK                         _______ _______ _______ _____ _____    ______ ____
ROOT
ATOM      1  N   UNL     1       4.675   5.319  17.812  0.00  0.00    +0.000 N 
ATOM      2  C   UNL     1       5.222   4.087  18.361  0.00  0.00    +0.000 C 
ATOM      3  C   UNL     1       5.262   5.976  16.730  0.00  0.00    +0.000 C 
ATOM      4  O   UNL     1       4.667   6.853  16.096  0.00  0.00    +0.000 OA
ENDROOT
BRANCH   1   5
ATOM      5  C   UNL     1       3.295   5.644  18.183  0.00  0.00    +0.000 C 
BRANCH   5  11
ATOM      6  C   UNL     1       1.858   3.573  18.691  0.00  0.00    +0.000 A 
ATOM      7  C   UNL     1       1.073   2.861  19.611  0.00  0.00    +0.000 A 
ATOM      8  C   UNL     1       1.138   3.145  20.975  0.00  0.00    +0.000 A 
ATOM      9  C   UNL     1       1.991   4.141  21.432  0.00  0.00    +0.000 A 
ATOM     10  C   UNL     1       2.728   4.897  20.518  0.00  0.00    +0.000 A 
ATOM     11  C   UNL     1       2.636   4.659  19.132  0.00  0.00    +0.000 A 
BRANCH   6  13
ATOM     12  C   UNL     1       2.684   2.148  16.993  0.00  0.00    +0.000 C 
ATOM     13  O   UNL     1       1.879   3.274  17.351  0.00  0.00    +0.000 OA
ENDBRANCH   6  13
ENDBRANCH   5  11
ENDBRANCH   1   5
BRANCH   3  14
ATOM     14  C   UNL     1       6.692   5.631  16.362  0.00  0.00    +0.000 C 
BRANCH  14  15
ATOM     15  N   UNL     1       6.814   5.021  15.048  0.00  0.00    +0.000 N 
ATOM     16  C   UNL     1       5.988   4.082  14.491  0.00  0.00    +0.000 A 
ATOM     17  C   UNL     1       6.416   3.943  13.198  0.00  0.00    +0.000 A 
ATOM     18 BR   UNL     1       5.725   2.838  11.863  0.00  0.00    +0.000 Br
ATOM     19  C   UNL     1       7.485   4.832  13.047  0.00  0.00    +0.000 A 
ATOM     20  N   UNL     1       7.741   5.490  14.181  0.00  0.00    +0.000 NA
ENDBRANCH  14  15
ENDBRANCH   3  14
TORSDOF 5
ENDMDL
MODEL 4
REMARK VINA RESULT:      -6.4      1.302      2.137
REMARK  Name = 
REMARK  7 active torsions:
REMARK  status: ('A' for Active; 'I' for Inactive)
REMARK    1  A    between atoms: C_1  and  O_2
REMARK    2  A    between atoms: O_2  and  C_3
REMARK    3  A    between atoms: C_8  and  C_9
REMARK    4  A    between atoms: C_9  and  N_10
REMARK    5  A    between atoms: N_10  and  C_11
REMARK    6  A    between atoms: C_12  and  C_14
REMARK    7  A    between atoms: C_14  and  N_15
REMARK                            x       y       z     vdW  Elec       q    Type
REMARK                         _______ _______ _______ _____ _____    ______ ____
ROOT
ATOM      1  N   UNL     1       4.637   5.641  18.150  0.00  0.00    +0.000 N 
ATOM      2  C   UNL     1       3.767   6.797  17.996  0.00  0.00    +0.000 C 
ATOM      3  C   UNL     1       5.676   5.367  17.261  0.00  0.00    +0.000 C 
ATOM      4  O   UNL     1       6.572   4.561  17.529  0.00  0.00    +0.000 OA
ENDROOT
BRANCH   1   5
ATOM      5  C   UNL     1       4.628   4.986  19.462  0.00  0.00    +0.000 C 
BRANCH   5  11
ATOM      6  C   UNL     1       3.043   2.966  19.606  0.00  0.00    +0.000 A 
ATOM      7  C   UNL     1       1.732   2.485  19.742  0.00  0.00    +0.000 A 
ATOM      8  C   UNL     1       0.713   3.312  20.213  0.00  0.00    +0.000 A 
ATOM      9  C   UNL     1       0.997   4.627  20.558  0.00  0.00    +0.000 A 
ATOM     10  C   UNL     1       2.284   5.133  20.365  0.00  0.00    +0.000 A 
ATOM     11  C   UNL     1       3.314   4.327  19.841  0.00  0.00    +0.000 A 
BRANCH   6  13
ATOM     12  C   UNL     1       3.819   1.318  18.096  0.00  0.00    +0.000 C 
ATOM     13  O   UNL     1       4.088   2.165  19.217  0.00  0.00    +0.000 OA
ENDBRANCH   6  13
ENDBRANCH   5  11
ENDBRANCH   1   5
BRANCH   3  14
ATOM     14  C   UNL     1       5.669   6.050  15.907  0.00  0.00    +0.000 C 
BRANCH  14  15
ATOM     15  N   UNL     1       6.141   5.195  14.831  0.00  0.00    +0.000 N 
ATOM     16  C   UNL     1       5.421   4.255  14.143  0.00  0.00    +0.000 A 
ATOM     17  C   UNL     1       6.244   3.833  13.133  0.00  0.00    +0.000 A 
ATOM     18 BR   UNL     1       5.893   2.571  11.805  0.00  0.00    +0.000 Br
ATOM     19  C   UNL     1       7.428   4.567  13.267  0.00  0.00    +0.000 A 
ATOM     20  N   UNL     1       7.374   5.398  14.312  0.00  0.00    +0.000 NA
ENDBRANCH  14  15
ENDBRANCH   3  14
TORSDOF 5
ENDMDL
MODEL 5
REMARK VINA RESULT:      -6.3      1.489      2.034
REMARK  Name = 
REMARK  7 active torsions:
REMARK  status: ('A' for Active; 'I' for Inactive)
REMARK    1  A    between atoms: C_1  and  O_2
REMARK    2  A    between atoms: O_2  and  C_3
REMARK    3  A    between atoms: C_8  and  C_9
REMARK    4  A    between atoms: C_9  and  N_10
REMARK    5  A    between atoms: N_10  and  C_11
REMARK    6  A    between atoms: C_12  and  C_14
REMARK    7  A    between atoms: C_14  and  N_15
REMARK                            x       y       z     vdW  Elec       q    Type
REMARK                         _______ _______ _______ _____ _____    ______ ____
ROOT
ATOM      1  N   UNL     1       4.044   6.122  18.373  0.00  0.00    +0.000 N 
ATOM      2  C   UNL     1       3.217   7.230  17.919  0.00  0.00    +0.000 C 
ATOM      3  C   UNL     1       5.333   5.905  17.883  0.00  0.00    +0.000 C 
ATOM      4  O   UNL     1       6.129   5.148  18.447  0.00  0.00    +0.000 OA
ENDROOT
BRANCH   1   5
ATOM      5  C   UNL     1       3.634   5.467  19.619  0.00  0.00    +0.000 C 
BRANCH   5  11
ATOM      6  C   UNL     1       3.387   2.908  19.548  0.00  0.00    +0.000 A 
ATOM      7  C   UNL     1       2.652   1.791  19.121  0.00  0.00    +0.000 A 
ATOM      8  C   UNL     1       1.333   1.925  18.691  0.00  0.00    +0.000 A 
ATOM      9  C   UNL     1       0.733   3.178  18.689  0.00  0.00    +0.000 A 
ATOM     10  C   UNL     1       1.476   4.304  19.052  0.00  0.00    +0.000 A 
ATOM     11  C   UNL     1       2.826   4.194  19.439  0.00  0.00    +0.000 A 
BRANCH   6  13
ATOM     12  C   UNL     1       4.977   1.553  20.657  0.00  0.00    +0.000 C 
ATOM     13  O   UNL     1       4.662   2.807  20.048  0.00  0.00    +0.000 OA
ENDBRANCH   6  13
ENDBRANCH   5  11
ENDBRANCH   1   5
BRANCH   3  14
ATOM     14  C   UNL     1       5.740   6.587  16.592  0.00  0.00    +0.000 C 
BRANCH  14  15
ATOM     15  N   UNL     1       6.122   5.653  15.545  0.00  0.00    +0.000 N 
ATOM     16  C   UNL     1       5.287   4.917  14.748  0.00  0.00    +0.000 A 
ATOM     17  C   UNL     1       6.102   4.320  13.822  0.00  0.00    +0.000 A 
ATOM     18 BR   UNL     1       5.624   3.189  12.418  0.00  0.00    +0.000 Br
ATOM     19  C   UNL     1       7.400   4.751  14.116  0.00  0.00    +0.000 A 
ATOM     20  N   UNL     1       7.420   5.562  15.177  0.00  0.00    +0.000 NA
ENDBRANCH  14  15
ENDBRANCH   3  14
TORSDOF 5
ENDMDL
MODEL 6
REMARK VINA RESULT:      -6.3      1.770      3.257
REMARK  Name = 
REMARK  7 active torsions:
REMARK  status: ('A' for Active; 'I' for Inactive)
REMARK    1  A    between atoms: C_1  and  O_2
REMARK    2  A    between atoms: O_2  and  C_3
REMARK    3  A    between atoms: C_8  and  C_9
REMARK    4  A    between atoms: C_9  and  N_10
REMARK    5  A    between atoms: N_10  and  C_11
REMARK    6  A    between atoms: C_12  and  C_14
REMARK    7  A    between atoms: C_14  and  N_15
REMARK                            x       y       z     vdW  Elec       q    Type
REMARK                         _______ _______ _______ _____ _____    ______ ____
ROOT
ATOM      1  N   UNL     1       4.136   5.834  17.377  0.00  0.00    +0.000 N 
ATOM      2  C   UNL     1       4.745   7.116  17.055  0.00  0.00    +0.000 C 
ATOM      3  C   UNL     1       4.897   4.708  17.695  0.00  0.00    +0.000 C 
ATOM      4  O   UNL     1       4.398   3.710  18.224  0.00  0.00    +0.000 OA
ENDROOT
BRANCH   1   5
ATOM      5  C   UNL     1       2.712   5.855  17.721  0.00  0.00    +0.000 C 
BRANCH   5  11
ATOM      6  C   UNL     1       2.149   6.684  20.089  0.00  0.00    +0.000 A 
ATOM      7  C   UNL     1       1.530   7.646  20.902  0.00  0.00    +0.000 A 
ATOM      8  C   UNL     1       1.165   8.889  20.386  0.00  0.00    +0.000 A 
ATOM      9  C   UNL     1       1.422   9.183  19.053  0.00  0.00    +0.000 A 
ATOM     10  C   UNL     1       1.979   8.210  18.221  0.00  0.00    +0.000 A 
ATOM     11  C   UNL     1       2.306   6.930  18.713  0.00  0.00    +0.000 A 
BRANCH   6  13
ATOM     12  C   UNL     1       1.572   4.493  20.771  0.00  0.00    +0.000 C 
ATOM     13  O   UNL     1       2.590   5.478  20.577  0.00  0.00    +0.000 OA
ENDBRANCH   6  13
ENDBRANCH   5  11
ENDBRANCH   1   5
BRANCH   3  14
ATOM     14  C   UNL     1       6.368   4.701  17.329  0.00  0.00    +0.000 C 
BRANCH  14  15
ATOM     15  N   UNL     1       6.605   4.506  15.908  0.00  0.00    +0.000 N 
ATOM     16  C   UNL     1       5.900   3.701  15.053  0.00  0.00    +0.000 A 
ATOM     17  C   UNL     1       6.393   3.977  13.805  0.00  0.00    +0.000 A 
ATOM     18 BR   UNL     1       5.872   3.248  12.169  0.00  0.00    +0.000 Br
ATOM     19  C   UNL     1       7.373   4.959  13.985  0.00  0.00    +0.000 A 
ATOM     20  N   UNL     1       7.514   5.282  15.274  0.00  0.00    +0.000 NA
ENDBRANCH  14  15
ENDBRANCH   3  14
TORSDOF 5
ENDMDL
MODEL 7
REMARK VINA RESULT:      -6.2      5.207      7.266
REMARK  Name = 
REMARK  7 active torsions:
REMARK  status: ('A' for Active; 'I' for Inactive)
REMARK    1  A    between atoms: C_1  and  O_2
REMARK    2  A    between atoms: O_2  and  C_3
REMARK    3  A    between atoms: C_8  and  C_9
REMARK    4  A    between atoms: C_9  and  N_10
REMARK    5  A    between atoms: N_10  and  C_11
REMARK    6  A    between atoms: C_12  and  C_14
REMARK    7  A    between atoms: C_14  and  N_15
REMARK                            x       y       z     vdW  Elec       q    Type
REMARK                         _______ _______ _______ _____ _____    ______ ____
ROOT
ATOM      1  N   UNL     1       2.114   7.786  18.947  0.00  0.00    +0.000 N 
ATOM      2  C   UNL     1       1.965   7.362  20.331  0.00  0.00    +0.000 C 
ATOM      3  C   UNL     1       1.692   9.041  18.503  0.00  0.00    +0.000 C 
ATOM      4  O   UNL     1       2.054   9.506  17.418  0.00  0.00    +0.000 OA
ENDROOT
BRANCH   1   5
ATOM      5  C   UNL     1       3.049   7.014  18.123  0.00  0.00    +0.000 C 
BRANCH   5  11
ATOM      6  C   UNL     1       4.036   4.777  18.919  0.00  0.00    +0.000 A 
ATOM      7  C   UNL     1       4.031   3.375  18.842  0.00  0.00    +0.000 A 
ATOM      8  C   UNL     1       2.951   2.694  18.281  0.00  0.00    +0.000 A 
ATOM      9  C   UNL     1       1.863   3.408  17.795  0.00  0.00    +0.000 A 
ATOM     10  C   UNL     1       1.886   4.805  17.809  0.00  0.00    +0.000 A 
ATOM     11  C   UNL     1       2.992   5.511  18.325  0.00  0.00    +0.000 A 
BRANCH   6  13
ATOM     12  C   UNL     1       6.343   5.297  18.961  0.00  0.00    +0.000 C 
ATOM     13  O   UNL     1       5.044   5.480  19.530  0.00  0.00    +0.000 OA
ENDBRANCH   6  13
ENDBRANCH   5  11
ENDBRANCH   1   5
BRANCH   3  14
ATOM     14  C   UNL     1       0.723   9.825  19.365  0.00  0.00    +0.000 C 
BRANCH  14  15
ATOM     15  N   UNL     1      -0.289  10.529  18.595  0.00  0.00    +0.000 N 
ATOM     16  C   UNL     1      -1.303   9.977  17.860  0.00  0.00    +0.000 A 
ATOM     17  C   UNL     1      -2.078  11.032  17.458  0.00  0.00    +0.000 A 
ATOM     18 BR   UNL     1      -3.638  11.000  16.435  0.00  0.00    +0.000 Br
ATOM     19  C   UNL     1      -1.480  12.177  17.996  0.00  0.00    +0.000 A 
ATOM     20  N   UNL     1      -0.377  11.876  18.687  0.00  0.00    +0.000 NA
ENDBRANCH  14  15
ENDBRANCH   3  14
TORSDOF 5
ENDMDL
MODEL 8
REMARK VINA RESULT:      -6.1      1.489      2.211
REMARK  Name = 
REMARK  7 active torsions:
REMARK  status: ('A' for Active; 'I' for Inactive)
REMARK    1  A    between atoms: C_1  and  O_2
REMARK    2  A    between atoms: O_2  and  C_3
REMARK    3  A    between atoms: C_8  and  C_9
REMARK    4  A    between atoms: C_9  and  N_10
REMARK    5  A    between atoms: N_10  and  C_11
REMARK    6  A    between atoms: C_12  and  C_14
REMARK    7  A    between atoms: C_14  and  N_15
REMARK                            x       y       z     vdW  Elec       q    Type
REMARK                         _______ _______ _______ _____ _____    ______ ____
ROOT
ATOM      1  N   UNL     1       4.720   5.750  18.522  0.00  0.00    +0.000 N 
ATOM      2  C   UNL     1       3.976   6.656  17.660  0.00  0.00    +0.000 C 
ATOM      3  C   UNL     1       6.094   5.549  18.381  0.00  0.00    +0.000 C 
ATOM      4  O   UNL     1       6.769   5.005  19.260  0.00  0.00    +0.000 OA
ENDROOT
BRANCH   1   5
ATOM      5  C   UNL     1       4.062   5.343  19.767  0.00  0.00    +0.000 C 
BRANCH   5  11
ATOM      6  C   UNL     1       3.463   2.858  19.479  0.00  0.00    +0.000 A 
ATOM      7  C   UNL     1       2.516   1.895  19.098  0.00  0.00    +0.000 A 
ATOM      8  C   UNL     1       1.169   2.230  18.968  0.00  0.00    +0.000 A 
ATOM      9  C   UNL     1       0.755   3.531  19.223  0.00  0.00    +0.000 A 
ATOM     10  C   UNL     1       1.698   4.511  19.540  0.00  0.00    +0.000 A 
ATOM     11  C   UNL     1       3.071   4.202  19.625  0.00  0.00    +0.000 A 
BRANCH   6  13
ATOM     12  C   UNL     1       5.031   1.620  20.745  0.00  0.00    +0.000 C 
ATOM     13  O   UNL     1       4.785   2.553  19.690  0.00  0.00    +0.000 OA
ENDBRANCH   6  13
ENDBRANCH   5  11
ENDBRANCH   1   5
BRANCH   3  14
ATOM     14  C   UNL     1       6.759   5.973  17.086  0.00  0.00    +0.000 C 
BRANCH  14  15
ATOM     15  N   UNL     1       6.435   5.106  15.965  0.00  0.00    +0.000 N 
ATOM     16  C   UNL     1       6.818   5.263  14.660  0.00  0.00    +0.000 A 
ATOM     17  C   UNL     1       6.409   4.122  14.022  0.00  0.00    +0.000 A 
ATOM     18 BR   UNL     1       6.622   3.659  12.227  0.00  0.00    +0.000 Br
ATOM     19  C   UNL     1       5.805   3.326  15.002  0.00  0.00    +0.000 A 
ATOM     20  N   UNL     1       5.810   3.928  16.195  0.00  0.00    +0.000 NA
ENDBRANCH  14  15
ENDBRANCH   3  14
TORSDOF 5
ENDMDL
MODEL 9
REMARK VINA RESULT:      -6.1      0.971      1.241
REMARK  Name = 
REMARK  7 active torsions:
REMARK  status: ('A' for Active; 'I' for Inactive)
REMARK    1  A    between atoms: C_1  and  O_2
REMARK    2  A    between atoms: O_2  and  C_3
REMARK    3  A    between atoms: C_8  and  C_9
REMARK    4  A    between atoms: C_9  and  N_10
REMARK    5  A    between atoms: N_10  and  C_11
REMARK    6  A    between atoms: C_12  and  C_14
REMARK    7  A    between atoms: C_14  and  N_15
REMARK                            x       y       z     vdW  Elec       q    Type
REMARK                         _______ _______ _______ _____ _____    ______ ____
ROOT
ATOM      1  N   UNL     1       5.005   5.571  18.307  0.00  0.00    +0.000 N 
ATOM      2  C   UNL     1       4.278   6.638  17.636  0.00  0.00    +0.000 C 
ATOM      3  C   UNL     1       6.345   5.294  18.030  0.00  0.00    +0.000 C 
ATOM      4  O   UNL     1       7.034   4.586  18.771  0.00  0.00    +0.000 OA
ENDROOT
BRANCH   1   5
ATOM      5  C   UNL     1       4.406   5.044  19.537  0.00  0.00    +0.000 C 
BRANCH   5  11
ATOM      6  C   UNL     1       1.967   4.576  20.201  0.00  0.00    +0.000 A 
ATOM      7  C   UNL     1       0.854   3.723  20.136  0.00  0.00    +0.000 A 
ATOM      8  C   UNL     1       0.778   2.721  19.169  0.00  0.00    +0.000 A 
ATOM      9  C   UNL     1       1.812   2.566  18.254  0.00  0.00    +0.000 A 
ATOM     10  C   UNL     1       2.951   3.369  18.351  0.00  0.00    +0.000 A 
ATOM     11  C   UNL     1       3.068   4.352  19.354  0.00  0.00    +0.000 A 
BRANCH   6  13
ATOM     12  C   UNL     1       1.490   6.854  20.625  0.00  0.00    +0.000 C 
ATOM     13  O   UNL     1       2.046   5.621  21.088  0.00  0.00    +0.000 OA
ENDBRANCH   6  13
ENDBRANCH   5  11
ENDBRANCH   1   5
BRANCH   3  14
ATOM     14  C   UNL     1       6.948   5.843  16.752  0.00  0.00    +0.000 C 
BRANCH  14  15
ATOM     15  N   UNL     1       6.601   5.066  15.573  0.00  0.00    +0.000 N 
ATOM     16  C   UNL     1       7.149   5.168  14.323  0.00  0.00    +0.000 A 
ATOM     17  C   UNL     1       6.615   4.130  13.606  0.00  0.00    +0.000 A 
ATOM     18 BR   UNL     1       6.942   3.661  11.830  0.00  0.00    +0.000 Br
ATOM     19  C   UNL     1       5.772   3.445  14.488  0.00  0.00    +0.000 A 
ATOM     20  N   UNL     1       5.752   4.019  15.694  0.00  0.00    +0.000 NA
ENDBRANCH  14  15
ENDBRANCH   3  14
TORSDOF 5
ENDMDL
