MODEL 1
REMARK VINA RESULT:      -7.5      0.000      0.000
REMARK  Name = 
REMARK  4 active torsions:
REMARK  status: ('A' for Active; 'I' for Inactive)
REMARK    1  A    between atoms: C_2  and  C_4
REMARK    2  A    between atoms: N_6  and  C_7
REMARK    3  A    between atoms: C_7  and  C_8
REMARK    4  A    between atoms: N_11  and  C_12
REMARK                            x       y       z     vdW  Elec       q    Type
REMARK                         _______ _______ _______ _____ _____    ______ ____
ROOT
ATOM      1  C   UNL     1       4.375   4.972  17.761  0.00  0.00    +0.000 C 
ENDROOT
BRANCH   1   4
ATOM      2  C   UNL     1       6.586   4.631  15.642  0.00  0.00    +0.000 C 
ATOM      3  C   UNL     1       5.745   5.884  15.975  0.00  0.00    +0.000 C 
ATOM      4  N   UNL     1       5.384   5.998  17.414  0.00  0.00    +0.000 NA
ATOM      5  C   UNL     1       6.638   5.872  18.193  0.00  0.00    +0.000 C 
ATOM      6  C   UNL     1       7.477   4.635  17.832  0.00  0.00    +0.000 C 
ATOM      7  O   UNL     1       7.790   4.606  16.429  0.00  0.00    +0.000 OA
BRANCH   2   9
ATOM      8  N   UNL     1       7.832   5.490  13.717  0.00  0.00    +0.000 N 
ATOM      9  C   UNL     1       6.877   4.611  14.136  0.00  0.00    +0.000 C 
ATOM     10  O   UNL     1       6.335   3.841  13.350  0.00  0.00    +0.000 OA
ATOM     11  H   UNL     1       8.082   5.524  12.740  0.00  0.00    +0.000 HD
ATOM     12  H   UNL     1       8.261   6.122  14.384  0.00  0.00    +0.000 HD
ENDBRANCH   2   9
ENDBRANCH   1   4
BRANCH   1  13
ATOM     13  C   UNL     1       3.399   5.465  18.789  0.00  0.00    +0.000 A 
ATOM     14  C   UNL     1       2.810   4.734  19.839  0.00  0.00    +0.000 A 
ATOM     15  C   UNL     1       2.023   5.641  20.501  0.00  0.00    +0.000 A 
ATOM     16  N   UNL     1       2.168   6.853  19.860  0.00  0.00    +0.000 N 
ATOM     17  N   UNL     1       3.011   6.749  18.800  0.00  0.00    +0.000 NA
BRANCH  16  18
ATOM     18  C   UNL     1       1.588   8.106  20.207  0.00  0.00    +0.000 A 
ATOM     19  C   UNL     1       1.218   8.391  21.530  0.00  0.00    +0.000 A 
ATOM     20  C   UNL     1       0.693   9.645  21.859  0.00  0.00    +0.000 A 
ATOM     21  C   UNL     1       0.528  10.612  20.871  0.00  0.00    +0.000 A 
ATOM     22 CL   UNL     1      -0.097  12.159  21.288  0.00  0.00    +0.000 Cl
ATOM     23  C   UNL     1       0.873  10.337  19.549  0.00  0.00    +0.000 A 
ATOM     24  C   UNL     1       1.402   9.083  19.217  0.00  0.00    +0.000 A 
ENDBRANCH  16  18
ENDBRANCH   1  13
TORSDOF 4
ENDMDL
MODEL 2
REMARK VINA RESULT:      -7.5      0.726      1.261
REMARK  Name = 
REMARK  4 active torsions:
REMARK  status: ('A' for Active; 'I' for Inactive)
REMARK    1  A    between atoms: C_2  and  C_4
REMARK    2  A    between atoms: N_6  and  C_7
REMARK    3  A    between atoms: C_7  and  C_8
REMARK    4  A    between atoms: N_11  and  C_12
REMARK                            x       y       z     vdW  Elec       q    Type
REMARK                         _______ _______ _______ _____ _____    ______ ____
ROOT
ATOM      1  C   UNL     1       4.091   5.133  17.579  0.00  0.00    +0.000 C 
ENDROOT
BRANCH   1   4
ATOM      2  C   UNL     1       6.413   4.617  15.622  0.00  0.00    +0.000 C 
ATOM      3  C   UNL     1       5.599   5.912  15.842  0.00  0.00    +0.000 C 
ATOM      4  N   UNL     1       5.154   6.108  17.249  0.00  0.00    +0.000 NA
ATOM      5  C   UNL     1       6.353   5.979  18.111  0.00  0.00    +0.000 C 
ATOM      6  C   UNL     1       7.168   4.699  17.861  0.00  0.00    +0.000 C 
ATOM      7  O   UNL     1       7.565   4.591  16.483  0.00  0.00    +0.000 OA
BRANCH   2   9
ATOM      8  N   UNL     1       6.279   3.439  13.479  0.00  0.00    +0.000 N 
ATOM      9  C   UNL     1       6.796   4.515  14.139  0.00  0.00    +0.000 C 
ATOM     10  O   UNL     1       7.482   5.348  13.556  0.00  0.00    +0.000 OA
ATOM     11  H   UNL     1       6.481   3.314  12.498  0.00  0.00    +0.000 HD
ATOM     12  H   UNL     1       5.721   2.760  13.983  0.00  0.00    +0.000 HD
ENDBRANCH   2   9
ENDBRANCH   1   4
BRANCH   1  13
ATOM     13  C   UNL     1       3.209   5.617  18.693  0.00  0.00    +0.000 A 
ATOM     14  C   UNL     1       2.727   4.880  19.792  0.00  0.00    +0.000 A 
ATOM     15  C   UNL     1       1.995   5.779  20.526  0.00  0.00    +0.000 A 
ATOM     16  N   UNL     1       2.069   6.993  19.876  0.00  0.00    +0.000 N 
ATOM     17  N   UNL     1       2.811   6.897  18.742  0.00  0.00    +0.000 NA
BRANCH  16  18
ATOM     18  C   UNL     1       1.511   8.240  20.276  0.00  0.00    +0.000 A 
ATOM     19  C   UNL     1       1.268   9.257  19.340  0.00  0.00    +0.000 A 
ATOM     20  C   UNL     1       0.675  10.457  19.745  0.00  0.00    +0.000 A 
ATOM     21  C   UNL     1       0.332  10.650  21.081  0.00  0.00    +0.000 A 
ATOM     22 CL   UNL     1      -0.417  12.120  21.566  0.00  0.00    +0.000 Cl
ATOM     23  C   UNL     1       0.586   9.656  22.024  0.00  0.00    +0.000 A 
ATOM     24  C   UNL     1       1.176   8.451  21.622  0.00  0.00    +0.000 A 
ENDBRANCH  16  18
ENDBRANCH   1  13
TORSDOF 4
ENDMDL
MODEL 3
REMARK VINA RESULT:      -7.5      3.144      4.747
REMARK  Name = 
REMARK  4 active torsions:
REMARK  status: ('A' for Active; 'I' for Inactive)
REMARK    1  A    between atoms: C_2  and  C_4
REMARK    2  A    between atoms: N_6  and  C_7
REMARK    3  A    between atoms: C_7  and  C_8
REMARK    4  A    between atoms: N_11  and  C_12
REMARK                            x       y       z     vdW  Elec       q    Type
REMARK                         _______ _______ _______ _____ _____    ______ ____
ROOT
ATOM      1  C   UNL     1       3.453   6.426  18.655  0.00  0.00    +0.000 C 
ENDROOT
BRANCH   1   4
ATOM      2  C   UNL     1       2.772   3.786  20.088  0.00  0.00    +0.000 C 
ATOM      3  C   UNL     1       1.949   4.558  19.033  0.00  0.00    +0.000 C 
ATOM      4  N   UNL     1       2.782   5.267  18.025  0.00  0.00    +0.000 NA
ATOM      5  C   UNL     1       3.732   4.277  17.464  0.00  0.00    +0.000 C 
ATOM      6  C   UNL     1       4.524   3.497  18.527  0.00  0.00    +0.000 C 
ATOM      7  O   UNL     1       3.646   2.835  19.453  0.00  0.00    +0.000 OA
BRANCH   2   9
ATOM      8  N   UNL     1       0.523   2.995  20.647  0.00  0.00    +0.000 N 
ATOM      9  C   UNL     1       1.810   3.116  21.079  0.00  0.00    +0.000 C 
ATOM     10  O   UNL     1       2.159   2.675  22.170  0.00  0.00    +0.000 OA
ATOM     11  H   UNL     1      -0.162   2.554  21.244  0.00  0.00    +0.000 HD
ATOM     12  H   UNL     1       0.257   3.374  19.746  0.00  0.00    +0.000 HD
ENDBRANCH   2   9
ENDBRANCH   1   4
BRANCH   1  13
ATOM     13  C   UNL     1       2.572   7.641  18.683  0.00  0.00    +0.000 A 
ATOM     14  C   UNL     1       2.249   8.496  17.611  0.00  0.00    +0.000 A 
ATOM     15  C   UNL     1       1.398   9.428  18.147  0.00  0.00    +0.000 A 
ATOM     16  N   UNL     1       1.228   9.108  19.478  0.00  0.00    +0.000 N 
ATOM     17  N   UNL     1       1.954   8.011  19.814  0.00  0.00    +0.000 NA
BRANCH  16  18
ATOM     18  C   UNL     1       0.399   9.753  20.438  0.00  0.00    +0.000 A 
ATOM     19  C   UNL     1       0.300   9.269  21.751  0.00  0.00    +0.000 A 
ATOM     20  C   UNL     1      -0.482   9.944  22.693  0.00  0.00    +0.000 A 
ATOM     21  C   UNL     1      -1.174  11.097  22.328  0.00  0.00    +0.000 A 
ATOM     22 CL   UNL     1      -2.115  11.934  23.498  0.00  0.00    +0.000 Cl
ATOM     23  C   UNL     1      -1.101  11.579  21.022  0.00  0.00    +0.000 A 
ATOM     24  C   UNL     1      -0.315  10.906  20.077  0.00  0.00    +0.000 A 
ENDBRANCH  16  18
ENDBRANCH   1  13
TORSDOF 4
ENDMDL
MODEL 4
REMARK VINA RESULT:      -7.4      1.457      2.405
REMARK  Name = 
REMARK  4 active torsions:
REMARK  status: ('A' for Active; 'I' for Inactive)
REMARK    1  A    between atoms: C_2  and  C_4
REMARK    2  A    between atoms: N_6  and  C_7
REMARK    3  A    between atoms: C_7  and  C_8
REMARK    4  A    between atoms: N_11  and  C_12
REMARK                            x       y       z     vdW  Elec       q    Type
REMARK                         _______ _______ _______ _____ _____    ______ ____
ROOT
ATOM      1  C   UNL     1       4.168   4.791  16.803  0.00  0.00    +0.000 C 
ENDROOT
BRANCH   1   4
ATOM      2  C   UNL     1       6.815   6.364  16.882  0.00  0.00    +0.000 C 
ATOM      3  C   UNL     1       6.336   5.224  17.808  0.00  0.00    +0.000 C 
ATOM      4  N   UNL     1       5.491   4.210  17.120  0.00  0.00    +0.000 NA
ATOM      5  C   UNL     1       6.235   3.759  15.920  0.00  0.00    +0.000 C 
ATOM      6  C   UNL     1       6.729   4.907  15.023  0.00  0.00    +0.000 C 
ATOM      7  O   UNL     1       7.542   5.835  15.760  0.00  0.00    +0.000 OA
BRANCH   2   9
ATOM      8  N   UNL     1       8.195   6.846  18.847  0.00  0.00    +0.000 N 
ATOM      9  C   UNL     1       7.654   7.353  17.702  0.00  0.00    +0.000 C 
ATOM     10  O   UNL     1       7.873   8.509  17.354  0.00  0.00    +0.000 OA
ATOM     11  H   UNL     1       8.768   7.438  19.431  0.00  0.00    +0.000 HD
ATOM     12  H   UNL     1       7.994   5.891  19.118  0.00  0.00    +0.000 HD
ENDBRANCH   2   9
ENDBRANCH   1   4
BRANCH   1  13
ATOM     13  C   UNL     1       3.454   5.271  18.033  0.00  0.00    +0.000 A 
ATOM     14  C   UNL     1       3.257   4.576  19.242  0.00  0.00    +0.000 A 
ATOM     15  C   UNL     1       2.578   5.455  20.047  0.00  0.00    +0.000 A 
ATOM     16  N   UNL     1       2.405   6.618  19.328  0.00  0.00    +0.000 N 
ATOM     17  N   UNL     1       2.938   6.508  18.083  0.00  0.00    +0.000 NA
BRANCH  16  18
ATOM     18  C   UNL     1       1.799   7.834  19.754  0.00  0.00    +0.000 A 
ATOM     19  C   UNL     1       1.373   8.004  21.080  0.00  0.00    +0.000 A 
ATOM     20  C   UNL     1       0.824   9.222  21.491  0.00  0.00    +0.000 A 
ATOM     21  C   UNL     1       0.689  10.269  20.582  0.00  0.00    +0.000 A 
ATOM     22 CL   UNL     1       0.032  11.770  21.102  0.00  0.00    +0.000 Cl
ATOM     23  C   UNL     1       1.089  10.107  19.257  0.00  0.00    +0.000 A 
ATOM     24  C   UNL     1       1.644   8.890  18.843  0.00  0.00    +0.000 A 
ENDBRANCH  16  18
ENDBRANCH   1  13
TORSDOF 4
ENDMDL
MODEL 5
REMARK VINA RESULT:      -7.4      3.000      4.666
REMARK  Name = 
REMARK  4 active torsions:
REMARK  status: ('A' for Active; 'I' for Inactive)
REMARK    1  A    between atoms: C_2  and  C_4
REMARK    2  A    between atoms: N_6  and  C_7
REMARK    3  A    between atoms: C_7  and  C_8
REMARK    4  A    between atoms: N_11  and  C_12
REMARK                            x       y       z     vdW  Elec       q    Type
REMARK                         _______ _______ _______ _____ _____    ______ ____
ROOT
ATOM      1  C   UNL     1       3.308   6.490  18.812  0.00  0.00    +0.000 C 
ENDROOT
BRANCH   1   4
ATOM      2  C   UNL     1       2.254   3.628  19.237  0.00  0.00    +0.000 C 
ATOM      3  C   UNL     1       1.834   4.669  18.176  0.00  0.00    +0.000 C 
ATOM      4  N   UNL     1       2.947   5.550  17.728  0.00  0.00    +0.000 NA
ATOM      5  C   UNL     1       4.068   4.670  17.320  0.00  0.00    +0.000 C 
ATOM      6  C   UNL     1       4.456   3.621  18.376  0.00  0.00    +0.000 C 
ATOM      7  O   UNL     1       3.330   2.808  18.746  0.00  0.00    +0.000 OA
BRANCH   2   9
ATOM      8  N   UNL     1       0.742   2.780  20.967  0.00  0.00    +0.000 N 
ATOM      9  C   UNL     1       1.027   2.796  19.634  0.00  0.00    +0.000 C 
ATOM     10  O   UNL     1       0.313   2.212  18.824  0.00  0.00    +0.000 OA
ATOM     11  H   UNL     1      -0.059   2.261  21.298  0.00  0.00    +0.000 HD
ATOM     12  H   UNL     1       1.350   3.263  21.618  0.00  0.00    +0.000 HD
ENDBRANCH   2   9
ENDBRANCH   1   4
BRANCH   1  13
ATOM     13  C   UNL     1       2.433   7.710  18.815  0.00  0.00    +0.000 A 
ATOM     14  C   UNL     1       2.077   8.518  17.718  0.00  0.00    +0.000 A 
ATOM     15  C   UNL     1       1.247   9.477  18.241  0.00  0.00    +0.000 A 
ATOM     16  N   UNL     1       1.122   9.216  19.589  0.00  0.00    +0.000 N 
ATOM     17  N   UNL     1       1.855   8.132  19.949  0.00  0.00    +0.000 NA
BRANCH  16  18
ATOM     18  C   UNL     1       0.328   9.908  20.548  0.00  0.00    +0.000 A 
ATOM     19  C   UNL     1      -0.357  11.084  20.207  0.00  0.00    +0.000 A 
ATOM     20  C   UNL     1      -1.170  11.723  21.149  0.00  0.00    +0.000 A 
ATOM     21  C   UNL     1      -1.295  11.197  22.432  0.00  0.00    +0.000 A 
ATOM     22 CL   UNL     1      -2.314  11.976  23.577  0.00  0.00    +0.000 Cl
ATOM     23  C   UNL     1      -0.607  10.040  22.791  0.00  0.00    +0.000 A 
ATOM     24  C   UNL     1       0.206   9.395  21.848  0.00  0.00    +0.000 A 
ENDBRANCH  16  18
ENDBRANCH   1  13
TORSDOF 4
ENDMDL
MODEL 6
REMARK VINA RESULT:      -7.3      2.296      3.145
REMARK  Name = 
REMARK  4 active torsions:
REMARK  status: ('A' for Active; 'I' for Inactive)
REMARK    1  A    between atoms: C_2  and  C_4
REMARK    2  A    between atoms: N_6  and  C_7
REMARK    3  A    between atoms: C_7  and  C_8
REMARK    4  A    between atoms: N_11  and  C_12
REMARK                            x       y       z     vdW  Elec       q    Type
REMARK                         _______ _______ _______ _____ _____    ______ ____
ROOT
ATOM      1  C   UNL     1       3.109   5.987  18.341  0.00  0.00    +0.000 C 
ENDROOT
BRANCH   1   4
ATOM      2  C   UNL     1       5.832   4.546  18.335  0.00  0.00    +0.000 C 
ATOM      3  C   UNL     1       5.311   5.635  19.301  0.00  0.00    +0.000 C 
ATOM      4  N   UNL     1       3.846   5.562  19.551  0.00  0.00    +0.000 NA
ATOM      5  C   UNL     1       3.539   4.172  19.965  0.00  0.00    +0.000 C 
ATOM      6  C   UNL     1       4.088   3.099  19.009  0.00  0.00    +0.000 C 
ATOM      7  O   UNL     1       5.507   3.234  18.828  0.00  0.00    +0.000 OA
BRANCH   2   9
ATOM      8  N   UNL     1       8.000   5.290  19.197  0.00  0.00    +0.000 N 
ATOM      9  C   UNL     1       7.342   4.734  18.139  0.00  0.00    +0.000 C 
ATOM     10  O   UNL     1       7.945   4.381  17.130  0.00  0.00    +0.000 OA
ATOM     11  H   UNL     1       8.998   5.433  19.141  0.00  0.00    +0.000 HD
ATOM     12  H   UNL     1       7.481   5.581  20.017  0.00  0.00    +0.000 HD
ENDBRANCH   2   9
ENDBRANCH   1   4
BRANCH   1  13
ATOM     13  C   UNL     1       2.505   7.352  18.499  0.00  0.00    +0.000 A 
ATOM     14  C   UNL     1       2.521   8.413  17.574  0.00  0.00    +0.000 A 
ATOM     15  C   UNL     1       1.815   9.421  18.181  0.00  0.00    +0.000 A 
ATOM     16  N   UNL     1       1.397   8.945  19.406  0.00  0.00    +0.000 N 
ATOM     17  N   UNL     1       1.824   7.672  19.609  0.00  0.00    +0.000 NA
BRANCH  16  18
ATOM     18  C   UNL     1       0.593   9.606  20.378  0.00  0.00    +0.000 A 
ATOM     19  C   UNL     1       0.507   9.126  21.693  0.00  0.00    +0.000 A 
ATOM     20  C   UNL     1      -0.249   9.816  22.646  0.00  0.00    +0.000 A 
ATOM     21  C   UNL     1      -0.928  10.979  22.288  0.00  0.00    +0.000 A 
ATOM     22 CL   UNL     1      -1.837  11.833  23.471  0.00  0.00    +0.000 Cl
ATOM     23  C   UNL     1      -0.867  11.457  20.981  0.00  0.00    +0.000 A 
ATOM     24  C   UNL     1      -0.107  10.770  20.025  0.00  0.00    +0.000 A 
ENDBRANCH  16  18
ENDBRANCH   1  13
TORSDOF 4
ENDMDL
MODEL 7
REMARK VINA RESULT:      -7.3      1.498      2.646
REMARK  Name = 
REMARK  4 active torsions:
REMARK  status: ('A' for Active; 'I' for Inactive)
REMARK    1  A    between atoms: C_2  and  C_4
REMARK    2  A    between atoms: N_6  and  C_7
REMARK    3  A    between atoms: C_7  and  C_8
REMARK    4  A    between atoms: N_11  and  C_12
REMARK                            x       y       z     vdW  Elec       q    Type
REMARK                         _______ _______ _______ _____ _____    ______ ____
ROOT
ATOM      1  C   UNL     1       4.220   4.509  16.621  0.00  0.00    +0.000 C 
ENDROOT
BRANCH   1   4
ATOM      2  C   UNL     1       6.804   6.169  16.861  0.00  0.00    +0.000 C 
ATOM      3  C   UNL     1       6.377   4.916  17.658  0.00  0.00    +0.000 C 
ATOM      4  N   UNL     1       5.568   3.950  16.867  0.00  0.00    +0.000 NA
ATOM      5  C   UNL     1       6.318   3.663  15.622  0.00  0.00    +0.000 C 
ATOM      6  C   UNL     1       6.760   4.920  14.854  0.00  0.00    +0.000 C 
ATOM      7  O   UNL     1       7.543   5.794  15.685  0.00  0.00    +0.000 OA
BRANCH   2   9
ATOM      8  N   UNL     1       7.678   8.397  17.380  0.00  0.00    +0.000 N 
ATOM      9  C   UNL     1       7.610   7.095  17.781  0.00  0.00    +0.000 C 
ATOM     10  O   UNL     1       8.132   6.725  18.828  0.00  0.00    +0.000 OA
ATOM     11  H   UNL     1       8.184   9.065  17.943  0.00  0.00    +0.000 HD
ATOM     12  H   UNL     1       7.247   8.678  16.507  0.00  0.00    +0.000 HD
ENDBRANCH   2   9
ENDBRANCH   1   4
BRANCH   1  13
ATOM     13  C   UNL     1       3.584   5.025  17.879  0.00  0.00    +0.000 A 
ATOM     14  C   UNL     1       3.499   4.379  19.128  0.00  0.00    +0.000 A 
ATOM     15  C   UNL     1       2.854   5.274  19.943  0.00  0.00    +0.000 A 
ATOM     16  N   UNL     1       2.593   6.398  19.190  0.00  0.00    +0.000 N 
ATOM     17  N   UNL     1       3.036   6.248  17.915  0.00  0.00    +0.000 NA
BRANCH  16  18
ATOM     18  C   UNL     1       1.983   7.615  19.609  0.00  0.00    +0.000 A 
ATOM     19  C   UNL     1       1.802   8.679  18.712  0.00  0.00    +0.000 A 
ATOM     20  C   UNL     1       1.157   9.848  19.130  0.00  0.00    +0.000 A 
ATOM     21  C   UNL     1       0.701   9.963  20.441  0.00  0.00    +0.000 A 
ATOM     22 CL   UNL     1      -0.109  11.394  20.939  0.00  0.00    +0.000 Cl
ATOM     23  C   UNL     1       0.892   8.921  21.347  0.00  0.00    +0.000 A 
ATOM     24  C   UNL     1       1.533   7.748  20.931  0.00  0.00    +0.000 A 
ENDBRANCH  16  18
ENDBRANCH   1  13
TORSDOF 4
ENDMDL
MODEL 8
REMARK VINA RESULT:      -7.3      2.732      3.926
REMARK  Name = 
REMARK  4 active torsions:
REMARK  status: ('A' for Active; 'I' for Inactive)
REMARK    1  A    between atoms: C_2  and  C_4
REMARK    2  A    between atoms: N_6  and  C_7
REMARK    3  A    between atoms: C_7  and  C_8
REMARK    4  A    between atoms: N_11  and  C_12
REMARK                            x       y       z     vdW  Elec       q    Type
REMARK                         _______ _______ _______ _____ _____    ______ ____
ROOT
ATOM      1  C   UNL     1       2.912   6.227  19.669  0.00  0.00    +0.000 C 
ENDROOT
BRANCH   1   4
ATOM      2  C   UNL     1       4.390   3.547  19.317  0.00  0.00    +0.000 C 
ATOM      3  C   UNL     1       3.348   4.210  18.389  0.00  0.00    +0.000 C 
ATOM      4  N   UNL     1       3.412   5.697  18.381  0.00  0.00    +0.000 NA
ATOM      5  C   UNL     1       4.818   6.074  18.100  0.00  0.00    +0.000 C 
ATOM      6  C   UNL     1       5.845   5.386  19.013  0.00  0.00    +0.000 C 
ATOM      7  O   UNL     1       5.722   3.955  18.956  0.00  0.00    +0.000 OA
BRANCH   2   9
ATOM      8  N   UNL     1       5.086   1.308  20.025  0.00  0.00    +0.000 N 
ATOM      9  C   UNL     1       4.214   2.024  19.258  0.00  0.00    +0.000 C 
ATOM     10  O   UNL     1       3.335   1.467  18.608  0.00  0.00    +0.000 OA
ATOM     11  H   UNL     1       5.021   0.301  20.042  0.00  0.00    +0.000 HD
ATOM     12  H   UNL     1       5.809   1.790  20.547  0.00  0.00    +0.000 HD
ENDBRANCH   2   9
ENDBRANCH   1   4
BRANCH   1  13
ATOM     13  C   UNL     1       2.192   7.534  19.499  0.00  0.00    +0.000 A 
ATOM     14  C   UNL     1       2.077   8.308  18.328  0.00  0.00    +0.000 A 
ATOM     15  C   UNL     1       1.306   9.382  18.691  0.00  0.00    +0.000 A 
ATOM     16  N   UNL     1       0.978   9.219  20.020  0.00  0.00    +0.000 N 
ATOM     17  N   UNL     1       1.527   8.084  20.525  0.00  0.00    +0.000 NA
BRANCH  16  18
ATOM     18  C   UNL     1       0.154  10.051  20.831  0.00  0.00    +0.000 A 
ATOM     19  C   UNL     1      -0.524  11.151  20.284  0.00  0.00    +0.000 A 
ATOM     20  C   UNL     1      -1.366  11.927  21.087  0.00  0.00    +0.000 A 
ATOM     21  C   UNL     1      -1.527  11.615  22.435  0.00  0.00    +0.000 A 
ATOM     22 CL   UNL     1      -2.582  12.561  23.408  0.00  0.00    +0.000 Cl
ATOM     23  C   UNL     1      -0.845  10.538  22.995  0.00  0.00    +0.000 A 
ATOM     24  C   UNL     1      -0.004   9.755  22.194  0.00  0.00    +0.000 A 
ENDBRANCH  16  18
ENDBRANCH   1  13
TORSDOF 4
ENDMDL
MODEL 9
REMARK VINA RESULT:      -7.2      3.421      4.232
REMARK  Name = 
REMARK  4 active torsions:
REMARK  status: ('A' for Active; 'I' for Inactive)
REMARK    1  A    between atoms: C_2  and  C_4
REMARK    2  A    between atoms: N_6  and  C_7
REMARK    3  A    between atoms: C_7  and  C_8
REMARK    4  A    between atoms: N_11  and  C_12
REMARK                            x       y       z     vdW  Elec       q    Type
REMARK                         _______ _______ _______ _____ _____    ______ ____
ROOT
ATOM      1  C   UNL     1       3.202   5.871  19.012  0.00  0.00    +0.000 C 
ENDROOT
BRANCH   1   4
ATOM      2  C   UNL     1       3.894   2.871  18.903  0.00  0.00    +0.000 C 
ATOM      3  C   UNL     1       2.929   3.610  19.856  0.00  0.00    +0.000 C 
ATOM      4  N   UNL     1       2.238   4.769  19.229  0.00  0.00    +0.000 NA
ATOM      5  C   UNL     1       1.615   4.284  17.974  0.00  0.00    +0.000 C 
ATOM      6  C   UNL     1       2.581   3.526  17.049  0.00  0.00    +0.000 C 
ATOM      7  O   UNL     1       3.198   2.419  17.727  0.00  0.00    +0.000 OA
BRANCH   2   9
ATOM      8  N   UNL     1       4.524   0.508  19.030  0.00  0.00    +0.000 N 
ATOM      9  C   UNL     1       4.558   1.715  19.663  0.00  0.00    +0.000 C 
ATOM     10  O   UNL     1       5.123   1.850  20.744  0.00  0.00    +0.000 OA
ATOM     11  H   UNL     1       4.951  -0.295  19.467  0.00  0.00    +0.000 HD
ATOM     12  H   UNL     1       4.045   0.419  18.141  0.00  0.00    +0.000 HD
ENDBRANCH   2   9
ENDBRANCH   1   4
BRANCH   1  13
ATOM     13  C   UNL     1       2.529   7.212  18.982  0.00  0.00    +0.000 A 
ATOM     14  C   UNL     1       2.467   8.121  17.908  0.00  0.00    +0.000 A 
ATOM     15  C   UNL     1       1.721   9.172  18.378  0.00  0.00    +0.000 A 
ATOM     16  N   UNL     1       1.358   8.867  19.673  0.00  0.00    +0.000 N 
ATOM     17  N   UNL     1       1.858   7.663  20.052  0.00  0.00    +0.000 NA
BRANCH  16  18
ATOM     18  C   UNL     1       0.542   9.627  20.558  0.00  0.00    +0.000 A 
ATOM     19  C   UNL     1       0.405   9.264  21.907  0.00  0.00    +0.000 A 
ATOM     20  C   UNL     1      -0.362  10.050  22.772  0.00  0.00    +0.000 A 
ATOM     21  C   UNL     1      -1.001  11.192  22.295  0.00  0.00    +0.000 A 
ATOM     22 CL   UNL     1      -1.924  12.165  23.371  0.00  0.00    +0.000 Cl
ATOM     23  C   UNL     1      -0.889  11.555  20.954  0.00  0.00    +0.000 A 
ATOM     24  C   UNL     1      -0.118  10.772  20.086  0.00  0.00    +0.000 A 
ENDBRANCH  16  18
ENDBRANCH   1  13
TORSDOF 4
ENDMDL
