MODEL 1
REMARK VINA RESULT:      -7.9      0.000      0.000
REMARK  Name = 
REMARK  4 active torsions:
REMARK  status: ('A' for Active; 'I' for Inactive)
REMARK    1  A    between atoms: C_2  and  C_3
REMARK    2  A    between atoms: C_5  and  C_6
REMARK    3  A    between atoms: N_15  and  C_16
REMARK    4  A    between atoms: C_16  and  C_17
REMARK                            x       y       z     vdW  Elec       q    Type
REMARK                         _______ _______ _______ _____ _____    ______ ____
ROOT
ATOM      1  O   UNL     1       7.431   5.737  15.743  0.00  0.00    +0.000 OA
ATOM      2  C   UNL     1       6.855   6.203  16.727  0.00  0.00    +0.000 C 
ATOM      3  N   UNL     1       5.546   5.827  17.058  0.00  0.00    +0.000 N 
ATOM      4  C   UNL     1       4.925   4.742  16.317  0.00  0.00    +0.000 C 
ATOM      5  C   UNL     1       4.852   3.420  17.078  0.00  0.00    +0.000 C 
ATOM      6  C   UNL     1       4.502   3.450  18.569  0.00  0.00    +0.000 C 
ATOM      7  N   UNL     1       3.619   4.487  19.102  0.00  0.00    +0.000 NA
ATOM      8  C   UNL     1       4.339   5.764  19.278  0.00  0.00    +0.000 C 
ATOM      9  C   UNL     1       4.682   6.551  18.004  0.00  0.00    +0.000 C 
ENDROOT
BRANCH   2  10
ATOM     10  C   UNL     1       7.545   7.196  17.573  0.00  0.00    +0.000 A 
ATOM     11  C   UNL     1       7.630   8.591  17.310  0.00  0.00    +0.000 A 
ATOM     12  C   UNL     1       8.393   9.102  18.333  0.00  0.00    +0.000 A 
ATOM     13  N   UNL     1       8.727   8.041  19.118  0.00  0.00    +0.000 N 
ATOM     14  N   UNL     1       8.236   6.873  18.684  0.00  0.00    +0.000 NA
ATOM     15  H   UNL     1       9.293   8.047  19.959  0.00  0.00    +0.000 HD
BRANCH  12  16
ATOM     16  C   UNL     1       8.793  10.546  18.524  0.00  0.00    +0.000 C 
ATOM     17  C   UNL     1       9.535  10.938  19.783  0.00  0.00    +0.000 C 
ATOM     18  C   UNL     1      10.270  10.869  18.489  0.00  0.00    +0.000 C 
ENDBRANCH  12  16
ENDBRANCH   2  10
BRANCH   7  19
ATOM     19  C   UNL     1       2.325   4.653  18.429  0.00  0.00    +0.000 C 
BRANCH  19  20
ATOM     20  C   UNL     1       1.079   4.168  19.197  0.00  0.00    +0.000 C 
ATOM     21  C   UNL     1       0.778   2.690  19.017  0.00  0.00    +0.000 C 
ATOM     22  C   UNL     1       1.640   2.050  20.076  0.00  0.00    +0.000 C 
ATOM     23  C   UNL     1       1.589   3.063  21.197  0.00  0.00    +0.000 C 
ATOM     24  O   UNL     1       1.337   4.346  20.608  0.00  0.00    +0.000 OA
ENDBRANCH  19  20
ENDBRANCH   7  19
TORSDOF 4
ENDMDL
MODEL 2
REMARK VINA RESULT:      -7.4      3.422      5.162
REMARK  Name = 
REMARK  4 active torsions:
REMARK  status: ('A' for Active; 'I' for Inactive)
REMARK    1  A    between atoms: C_2  and  C_3
REMARK    2  A    between atoms: C_5  and  C_6
REMARK    3  A    between atoms: N_15  and  C_16
REMARK    4  A    between atoms: C_16  and  C_17
REMARK                            x       y       z     vdW  Elec       q    Type
REMARK                         _______ _______ _______ _____ _____    ______ ____
ROOT
ATOM      1  O   UNL     1       7.926   4.712  17.464  0.00  0.00    +0.000 OA
ATOM      2  C   UNL     1       6.918   4.512  16.785  0.00  0.00    +0.000 C 
ATOM      3  N   UNL     1       5.696   4.159  17.371  0.00  0.00    +0.000 N 
ATOM      4  C   UNL     1       5.582   4.195  18.820  0.00  0.00    +0.000 C 
ATOM      5  C   UNL     1       4.805   5.392  19.361  0.00  0.00    +0.000 C 
ATOM      6  C   UNL     1       3.547   5.848  18.616  0.00  0.00    +0.000 C 
ATOM      7  N   UNL     1       2.715   4.879  17.905  0.00  0.00    +0.000 NA
ATOM      8  C   UNL     1       3.313   4.513  16.605  0.00  0.00    +0.000 C 
ATOM      9  C   UNL     1       4.548   3.599  16.640  0.00  0.00    +0.000 C 
ENDROOT
BRANCH   2  10
ATOM     10  C   UNL     1       6.996   4.626  15.315  0.00  0.00    +0.000 A 
ATOM     11  C   UNL     1       6.344   3.773  14.383  0.00  0.00    +0.000 A 
ATOM     12  C   UNL     1       6.734   4.229  13.147  0.00  0.00    +0.000 A 
ATOM     13  N   UNL     1       7.573   5.275  13.381  0.00  0.00    +0.000 N 
ATOM     14  N   UNL     1       7.758   5.539  14.681  0.00  0.00    +0.000 NA
ATOM     15  H   UNL     1       8.058   5.846  12.697  0.00  0.00    +0.000 HD
BRANCH  12  16
ATOM     16  C   UNL     1       6.327   3.662  11.808  0.00  0.00    +0.000 C 
ATOM     17  C   UNL     1       6.932   2.351  11.355  0.00  0.00    +0.000 C 
ATOM     18  C   UNL     1       5.514   2.387  11.810  0.00  0.00    +0.000 C 
ENDBRANCH  12  16
ENDBRANCH   2  10
BRANCH   7  19
ATOM     19  C   UNL     1       2.270   3.710  18.673  0.00  0.00    +0.000 C 
BRANCH  19  20
ATOM     20  C   UNL     1       1.261   3.973  19.808  0.00  0.00    +0.000 C 
ATOM     21  C   UNL     1       0.866   2.729  20.587  0.00  0.00    +0.000 C 
ATOM     22  C   UNL     1       1.958   2.634  21.624  0.00  0.00    +0.000 C 
ATOM     23  C   UNL     1       2.248   4.086  21.928  0.00  0.00    +0.000 C 
ATOM     24  O   UNL     1       1.896   4.849  20.766  0.00  0.00    +0.000 OA
ENDBRANCH  19  20
ENDBRANCH   7  19
TORSDOF 4
ENDMDL
MODEL 3
REMARK VINA RESULT:      -7.2      3.060      5.257
REMARK  Name = 
REMARK  4 active torsions:
REMARK  status: ('A' for Active; 'I' for Inactive)
REMARK    1  A    between atoms: C_2  and  C_3
REMARK    2  A    between atoms: C_5  and  C_6
REMARK    3  A    between atoms: N_15  and  C_16
REMARK    4  A    between atoms: C_16  and  C_17
REMARK                            x       y       z     vdW  Elec       q    Type
REMARK                         _______ _______ _______ _____ _____    ______ ____
ROOT
ATOM      1  O   UNL     1       6.366   7.280  16.409  0.00  0.00    +0.000 OA
ATOM      2  C   UNL     1       6.189   6.075  16.219  0.00  0.00    +0.000 C 
ATOM      3  N   UNL     1       5.637   5.250  17.208  0.00  0.00    +0.000 N 
ATOM      4  C   UNL     1       5.112   5.866  18.415  0.00  0.00    +0.000 C 
ATOM      5  C   UNL     1       3.588   5.935  18.477  0.00  0.00    +0.000 C 
ATOM      6  C   UNL     1       2.779   4.736  17.975  0.00  0.00    +0.000 C 
ATOM      7  N   UNL     1       3.313   3.380  18.094  0.00  0.00    +0.000 NA
ATOM      8  C   UNL     1       4.312   3.104  17.043  0.00  0.00    +0.000 C 
ATOM      9  C   UNL     1       5.684   3.779  17.192  0.00  0.00    +0.000 C 
ENDROOT
BRANCH   2  10
ATOM     10  C   UNL     1       6.582   5.475  14.930  0.00  0.00    +0.000 A 
ATOM     11  C   UNL     1       5.712   4.803  14.029  0.00  0.00    +0.000 A 
ATOM     12  C   UNL     1       6.517   4.384  12.997  0.00  0.00    +0.000 A 
ATOM     13  N   UNL     1       7.777   4.790  13.317  0.00  0.00    +0.000 N 
ATOM     14  N   UNL     1       7.853   5.448  14.481  0.00  0.00    +0.000 NA
ATOM     15  H   UNL     1       8.628   4.643  12.786  0.00  0.00    +0.000 HD
BRANCH  12  16
ATOM     16  C   UNL     1       6.086   3.609  11.775  0.00  0.00    +0.000 C 
ATOM     17  C   UNL     1       5.696   2.155  11.931  0.00  0.00    +0.000 C 
ATOM     18  C   UNL     1       4.638   3.178  11.699  0.00  0.00    +0.000 C 
ENDBRANCH  12  16
ENDBRANCH   2  10
BRANCH   7  19
ATOM     19  C   UNL     1       3.766   2.970  19.429  0.00  0.00    +0.000 C 
BRANCH  19  20
ATOM     20  C   UNL     1       2.728   2.266  20.325  0.00  0.00    +0.000 C 
ATOM     21  C   UNL     1       2.247   3.107  21.495  0.00  0.00    +0.000 C 
ATOM     22  C   UNL     1       1.127   3.909  20.882  0.00  0.00    +0.000 C 
ATOM     23  C   UNL     1       0.523   2.930  19.899  0.00  0.00    +0.000 C 
ATOM     24  O   UNL     1       1.555   2.009  19.520  0.00  0.00    +0.000 OA
ENDBRANCH  19  20
ENDBRANCH   7  19
TORSDOF 4
ENDMDL
MODEL 4
REMARK VINA RESULT:      -6.9      3.450      6.359
REMARK  Name = 
REMARK  4 active torsions:
REMARK  status: ('A' for Active; 'I' for Inactive)
REMARK    1  A    between atoms: C_2  and  C_3
REMARK    2  A    between atoms: C_5  and  C_6
REMARK    3  A    between atoms: N_15  and  C_16
REMARK    4  A    between atoms: C_16  and  C_17
REMARK                            x       y       z     vdW  Elec       q    Type
REMARK                         _______ _______ _______ _____ _____    ______ ____
ROOT
ATOM      1  O   UNL     1       7.835   5.394  14.216  0.00  0.00    +0.000 OA
ATOM      2  C   UNL     1       6.832   4.717  14.450  0.00  0.00    +0.000 C 
ATOM      3  N   UNL     1       6.324   4.582  15.749  0.00  0.00    +0.000 N 
ATOM      4  C   UNL     1       6.898   5.394  16.808  0.00  0.00    +0.000 C 
ATOM      5  C   UNL     1       6.029   6.573  17.241  0.00  0.00    +0.000 C 
ATOM      6  C   UNL     1       4.515   6.366  17.351  0.00  0.00    +0.000 C 
ATOM      7  N   UNL     1       3.971   5.063  17.728  0.00  0.00    +0.000 NA
ATOM      8  C   UNL     1       3.983   4.127  16.586  0.00  0.00    +0.000 C 
ATOM      9  C   UNL     1       5.347   3.562  16.163  0.00  0.00    +0.000 C 
ENDROOT
BRANCH   2  10
ATOM     10  C   UNL     1       6.155   4.012  13.344  0.00  0.00    +0.000 A 
ATOM     11  C   UNL     1       4.826   4.252  12.899  0.00  0.00    +0.000 A 
ATOM     12  C   UNL     1       4.617   3.344  11.889  0.00  0.00    +0.000 A 
ATOM     13  N   UNL     1       5.768   2.625  11.787  0.00  0.00    +0.000 N 
ATOM     14  N   UNL     1       6.717   2.999  12.656  0.00  0.00    +0.000 NA
ATOM     15  H   UNL     1       5.968   1.862  11.149  0.00  0.00    +0.000 HD
BRANCH  12  16
ATOM     16  C   UNL     1       3.354   3.172  11.080  0.00  0.00    +0.000 C 
ATOM     17  C   UNL     1       3.071   4.140   9.951  0.00  0.00    +0.000 C 
ATOM     18  C   UNL     1       3.505   2.750   9.635  0.00  0.00    +0.000 C 
ENDBRANCH  12  16
ENDBRANCH   2  10
BRANCH   7  19
ATOM     19  C   UNL     1       4.503   4.463  18.958  0.00  0.00    +0.000 C 
BRANCH  19  20
ATOM     20  C   UNL     1       3.552   3.536  19.741  0.00  0.00    +0.000 C 
ATOM     21  C   UNL     1       2.879   4.201  20.930  0.00  0.00    +0.000 C 
ATOM     22  C   UNL     1       1.673   4.852  20.301  0.00  0.00    +0.000 C 
ATOM     23  C   UNL     1       1.292   3.863  19.222  0.00  0.00    +0.000 C 
ATOM     24  O   UNL     1       2.481   3.152  18.850  0.00  0.00    +0.000 OA
ENDBRANCH  19  20
ENDBRANCH   7  19
TORSDOF 4
ENDMDL
MODEL 5
REMARK VINA RESULT:      -6.9      3.216      6.078
REMARK  Name = 
REMARK  4 active torsions:
REMARK  status: ('A' for Active; 'I' for Inactive)
REMARK    1  A    between atoms: C_2  and  C_3
REMARK    2  A    between atoms: C_5  and  C_6
REMARK    3  A    between atoms: N_15  and  C_16
REMARK    4  A    between atoms: C_16  and  C_17
REMARK                            x       y       z     vdW  Elec       q    Type
REMARK                         _______ _______ _______ _____ _____    ______ ____
ROOT
ATOM      1  O   UNL     1       7.576   5.309  15.022  0.00  0.00    +0.000 OA
ATOM      2  C   UNL     1       6.537   4.650  15.075  0.00  0.00    +0.000 C 
ATOM      3  N   UNL     1       5.853   4.453  16.282  0.00  0.00    +0.000 N 
ATOM      4  C   UNL     1       6.294   5.183  17.459  0.00  0.00    +0.000 C 
ATOM      5  C   UNL     1       5.400   6.359  17.844  0.00  0.00    +0.000 C 
ATOM      6  C   UNL     1       3.881   6.192  17.735  0.00  0.00    +0.000 C 
ATOM      7  N   UNL     1       3.263   4.885  17.952  0.00  0.00    +0.000 NA
ATOM      8  C   UNL     1       3.411   4.019  16.765  0.00  0.00    +0.000 C 
ATOM      9  C   UNL     1       4.807   3.440  16.496  0.00  0.00    +0.000 C 
ENDROOT
BRANCH   2  10
ATOM     10  C   UNL     1       6.002   4.033  13.845  0.00  0.00    +0.000 A 
ATOM     11  C   UNL     1       4.682   4.197  13.343  0.00  0.00    +0.000 A 
ATOM     12  C   UNL     1       4.628   3.414  12.215  0.00  0.00    +0.000 A 
ATOM     13  N   UNL     1       5.853   2.832  12.104  0.00  0.00    +0.000 N 
ATOM     14  N   UNL     1       6.707   3.179  13.077  0.00  0.00    +0.000 NA
ATOM     15  H   UNL     1       6.168   2.182  11.392  0.00  0.00    +0.000 HD
BRANCH  12  16
ATOM     16  C   UNL     1       3.438   3.227  11.305  0.00  0.00    +0.000 C 
ATOM     17  C   UNL     1       3.212   4.217  10.183  0.00  0.00    +0.000 C 
ATOM     18  C   UNL     1       3.715   2.851   9.866  0.00  0.00    +0.000 C 
ENDBRANCH  12  16
ENDBRANCH   2  10
BRANCH   7  19
ATOM     19  C   UNL     1       3.609   4.197  19.202  0.00  0.00    +0.000 C 
BRANCH  19  20
ATOM     20  C   UNL     1       2.687   4.455  20.410  0.00  0.00    +0.000 C 
ATOM     21  C   UNL     1       1.206   4.460  20.070  0.00  0.00    +0.000 C 
ATOM     22  C   UNL     1       0.848   2.997  20.149  0.00  0.00    +0.000 C 
ATOM     23  C   UNL     1       1.723   2.506  21.281  0.00  0.00    +0.000 C 
ATOM     24  O   UNL     1       2.870   3.365  21.342  0.00  0.00    +0.000 OA
ENDBRANCH  19  20
ENDBRANCH   7  19
TORSDOF 4
ENDMDL
MODEL 6
REMARK VINA RESULT:      -6.8      3.056      5.276
REMARK  Name = 
REMARK  4 active torsions:
REMARK  status: ('A' for Active; 'I' for Inactive)
REMARK    1  A    between atoms: C_2  and  C_3
REMARK    2  A    between atoms: C_5  and  C_6
REMARK    3  A    between atoms: N_15  and  C_16
REMARK    4  A    between atoms: C_16  and  C_17
REMARK                            x       y       z     vdW  Elec       q    Type
REMARK                         _______ _______ _______ _____ _____    ______ ____
ROOT
ATOM      1  O   UNL     1       6.417   7.176  16.326  0.00  0.00    +0.000 OA
ATOM      2  C   UNL     1       5.789   6.119  16.407  0.00  0.00    +0.000 C 
ATOM      3  N   UNL     1       4.892   5.877  17.456  0.00  0.00    +0.000 N 
ATOM      4  C   UNL     1       4.577   6.964  18.368  0.00  0.00    +0.000 C 
ATOM      5  C   UNL     1       3.205   7.595  18.146  0.00  0.00    +0.000 C 
ATOM      6  C   UNL     1       2.021   6.681  17.817  0.00  0.00    +0.000 C 
ATOM      7  N   UNL     1       1.964   5.322  18.353  0.00  0.00    +0.000 NA
ATOM      8  C   UNL     1       2.839   4.409  17.590  0.00  0.00    +0.000 C 
ATOM      9  C   UNL     1       4.353   4.553  17.807  0.00  0.00    +0.000 C 
ENDROOT
BRANCH   2  10
ATOM     10  C   UNL     1       5.995   5.069  15.391  0.00  0.00    +0.000 A 
ATOM     11  C   UNL     1       5.698   5.188  14.006  0.00  0.00    +0.000 A 
ATOM     12  C   UNL     1       6.012   3.964  13.466  0.00  0.00    +0.000 A 
ATOM     13  N   UNL     1       6.450   3.198  14.503  0.00  0.00    +0.000 N 
ATOM     14  N   UNL     1       6.447   3.833  15.682  0.00  0.00    +0.000 NA
ATOM     15  H   UNL     1       6.757   2.232  14.473  0.00  0.00    +0.000 HD
BRANCH  12  16
ATOM     16  C   UNL     1       5.874   3.555  12.019  0.00  0.00    +0.000 C 
ATOM     17  C   UNL     1       5.493   2.126  11.696  0.00  0.00    +0.000 C 
ATOM     18  C   UNL     1       4.487   3.212  11.522  0.00  0.00    +0.000 C 
ENDBRANCH  12  16
ENDBRANCH   2  10
BRANCH   7  19
ATOM     19  C   UNL     1       2.130   5.183  19.805  0.00  0.00    +0.000 C 
BRANCH  19  20
ATOM     20  C   UNL     1       1.142   4.245  20.527  0.00  0.00    +0.000 C 
ATOM     21  C   UNL     1       0.746   3.021  19.717  0.00  0.00    +0.000 C 
ATOM     22  C   UNL     1       1.853   2.048  20.034  0.00  0.00    +0.000 C 
ATOM     23  C   UNL     1       2.166   2.367  21.479  0.00  0.00    +0.000 C 
ATOM     24  O   UNL     1       1.803   3.735  21.707  0.00  0.00    +0.000 OA
ENDBRANCH  19  20
ENDBRANCH   7  19
TORSDOF 4
ENDMDL
MODEL 7
REMARK VINA RESULT:      -6.8      3.196      5.992
REMARK  Name = 
REMARK  4 active torsions:
REMARK  status: ('A' for Active; 'I' for Inactive)
REMARK    1  A    between atoms: C_2  and  C_3
REMARK    2  A    between atoms: C_5  and  C_6
REMARK    3  A    between atoms: N_15  and  C_16
REMARK    4  A    between atoms: C_16  and  C_17
REMARK                            x       y       z     vdW  Elec       q    Type
REMARK                         _______ _______ _______ _____ _____    ______ ____
ROOT
ATOM      1  O   UNL     1       7.557   5.535  15.192  0.00  0.00    +0.000 OA
ATOM      2  C   UNL     1       6.540   4.846  15.280  0.00  0.00    +0.000 C 
ATOM      3  N   UNL     1       5.897   4.639  16.508  0.00  0.00    +0.000 N 
ATOM      4  C   UNL     1       6.349   5.392  17.665  0.00  0.00    +0.000 C 
ATOM      5  C   UNL     1       5.431   6.544  18.066  0.00  0.00    +0.000 C 
ATOM      6  C   UNL     1       3.915   6.331  18.002  0.00  0.00    +0.000 C 
ATOM      7  N   UNL     1       3.343   5.008  18.247  0.00  0.00    +0.000 NA
ATOM      8  C   UNL     1       3.483   4.137  17.063  0.00  0.00    +0.000 C 
ATOM      9  C   UNL     1       4.888   3.597  16.759  0.00  0.00    +0.000 C 
ENDROOT
BRANCH   2  10
ATOM     10  C   UNL     1       5.989   4.202  14.071  0.00  0.00    +0.000 A 
ATOM     11  C   UNL     1       6.702   3.340  13.194  0.00  0.00    +0.000 A 
ATOM     12  C   UNL     1       5.809   3.020  12.201  0.00  0.00    +0.000 A 
ATOM     13  N   UNL     1       4.659   3.683  12.504  0.00  0.00    +0.000 N 
ATOM     14  N   UNL     1       4.735   4.412  13.625  0.00  0.00    +0.000 NA
ATOM     15  H   UNL     1       3.789   3.685  11.982  0.00  0.00    +0.000 HD
BRANCH  12  16
ATOM     16  C   UNL     1       6.067   2.131  11.008  0.00  0.00    +0.000 C 
ATOM     17  C   UNL     1       7.428   1.487  10.858  0.00  0.00    +0.000 C 
ATOM     18  C   UNL     1       6.263   0.654  11.269  0.00  0.00    +0.000 C 
ENDBRANCH  12  16
ENDBRANCH   2  10
BRANCH   7  19
ATOM     19  C   UNL     1       3.744   4.342  19.492  0.00  0.00    +0.000 C 
BRANCH  19  20
ATOM     20  C   UNL     1       2.790   4.492  20.694  0.00  0.00    +0.000 C 
ATOM     21  C   UNL     1       1.342   4.744  20.308  0.00  0.00    +0.000 C 
ATOM     22  C   UNL     1       0.812   3.347  20.102  0.00  0.00    +0.000 C 
ATOM     23  C   UNL     1       1.557   2.555  21.153  0.00  0.00    +0.000 C 
ATOM     24  O   UNL     1       2.791   3.238  21.413  0.00  0.00    +0.000 OA
ENDBRANCH  19  20
ENDBRANCH   7  19
TORSDOF 4
ENDMDL
MODEL 8
REMARK VINA RESULT:      -6.7      0.915      1.120
REMARK  Name = 
REMARK  4 active torsions:
REMARK  status: ('A' for Active; 'I' for Inactive)
REMARK    1  A    between atoms: C_2  and  C_3
REMARK    2  A    between atoms: C_5  and  C_6
REMARK    3  A    between atoms: N_15  and  C_16
REMARK    4  A    between atoms: C_16  and  C_17
REMARK                            x       y       z     vdW  Elec       q    Type
REMARK                         _______ _______ _______ _____ _____    ______ ____
ROOT
ATOM      1  O   UNL     1       7.755   6.258  15.528  0.00  0.00    +0.000 OA
ATOM      2  C   UNL     1       7.144   6.540  16.560  0.00  0.00    +0.000 C 
ATOM      3  N   UNL     1       5.865   6.029  16.818  0.00  0.00    +0.000 N 
ATOM      4  C   UNL     1       5.327   5.016  15.926  0.00  0.00    +0.000 C 
ATOM      5  C   UNL     1       5.347   3.599  16.495  0.00  0.00    +0.000 C 
ATOM      6  C   UNL     1       4.992   3.396  17.971  0.00  0.00    +0.000 C 
ATOM      7  N   UNL     1       4.034   4.282  18.630  0.00  0.00    +0.000 NA
ATOM      8  C   UNL     1       4.659   5.571  18.992  0.00  0.00    +0.000 C 
ATOM      9  C   UNL     1       4.947   6.550  17.844  0.00  0.00    +0.000 C 
ENDROOT
BRANCH   2  10
ATOM     10  C   UNL     1       7.758   7.452  17.544  0.00  0.00    +0.000 A 
ATOM     11  C   UNL     1       7.915   8.856  17.386  0.00  0.00    +0.000 A 
ATOM     12  C   UNL     1       8.565   9.274  18.522  0.00  0.00    +0.000 A 
ATOM     13  N   UNL     1       8.771   8.155  19.269  0.00  0.00    +0.000 N 
ATOM     14  N   UNL     1       8.301   7.035  18.705  0.00  0.00    +0.000 NA
ATOM     15  H   UNL     1       9.233   8.087  20.170  0.00  0.00    +0.000 HD
BRANCH  12  16
ATOM     16  C   UNL     1       8.982  10.687  18.854  0.00  0.00    +0.000 C 
ATOM     17  C   UNL     1      10.159  11.293  18.120  0.00  0.00    +0.000 C 
ATOM     18  C   UNL     1       8.777  11.741  17.789  0.00  0.00    +0.000 C 
ENDBRANCH  12  16
ENDBRANCH   2  10
BRANCH   7  19
ATOM     19  C   UNL     1       2.734   4.448  17.970  0.00  0.00    +0.000 C 
BRANCH  19  20
ATOM     20  C   UNL     1       1.878   3.177  17.800  0.00  0.00    +0.000 C 
ATOM     21  C   UNL     1       2.354   1.995  18.628  0.00  0.00    +0.000 C 
ATOM     22  C   UNL     1       1.679   2.233  19.955  0.00  0.00    +0.000 C 
ATOM     23  C   UNL     1       0.354   2.837  19.545  0.00  0.00    +0.000 C 
ATOM     24  O   UNL     1       0.547   3.477  18.276  0.00  0.00    +0.000 OA
ENDBRANCH  19  20
ENDBRANCH   7  19
TORSDOF 4
ENDMDL
MODEL 9
REMARK VINA RESULT:      -6.6      3.287      5.254
REMARK  Name = 
REMARK  4 active torsions:
REMARK  status: ('A' for Active; 'I' for Inactive)
REMARK    1  A    between atoms: C_2  and  C_3
REMARK    2  A    between atoms: C_5  and  C_6
REMARK    3  A    between atoms: N_15  and  C_16
REMARK    4  A    between atoms: C_16  and  C_17
REMARK                            x       y       z     vdW  Elec       q    Type
REMARK                         _______ _______ _______ _____ _____    ______ ____
ROOT
ATOM      1  O   UNL     1       8.174   4.290  17.316  0.00  0.00    +0.000 OA
ATOM      2  C   UNL     1       7.101   4.399  16.720  0.00  0.00    +0.000 C 
ATOM      3  N   UNL     1       5.877   4.363  17.400  0.00  0.00    +0.000 N 
ATOM      4  C   UNL     1       5.887   4.364  18.853  0.00  0.00    +0.000 C 
ATOM      5  C   UNL     1       5.509   5.701  19.486  0.00  0.00    +0.000 C 
ATOM      6  C   UNL     1       4.371   6.512  18.861  0.00  0.00    +0.000 C 
ATOM      7  N   UNL     1       3.255   5.836  18.201  0.00  0.00    +0.000 NA
ATOM      8  C   UNL     1       3.630   5.381  16.847  0.00  0.00    +0.000 C 
ATOM      9  C   UNL     1       4.568   4.167  16.756  0.00  0.00    +0.000 C 
ENDROOT
BRANCH   2  10
ATOM     10  C   UNL     1       7.096   4.553  15.252  0.00  0.00    +0.000 A 
ATOM     11  C   UNL     1       6.439   3.692  14.332  0.00  0.00    +0.000 A 
ATOM     12  C   UNL     1       6.740   4.198  13.090  0.00  0.00    +0.000 A 
ATOM     13  N   UNL     1       7.538   5.279  13.309  0.00  0.00    +0.000 N 
ATOM     14  N   UNL     1       7.778   5.520  14.605  0.00  0.00    +0.000 NA
ATOM     15  H   UNL     1       7.956   5.891  12.617  0.00  0.00    +0.000 HD
BRANCH  12  16
ATOM     16  C   UNL     1       6.293   3.644  11.759  0.00  0.00    +0.000 C 
ATOM     17  C   UNL     1       6.933   2.374  11.242  0.00  0.00    +0.000 C 
ATOM     18  C   UNL     1       5.540   2.332  11.768  0.00  0.00    +0.000 C 
ENDBRANCH  12  16
ENDBRANCH   2  10
BRANCH   7  19
ATOM     19  C   UNL     1       2.568   4.797  18.978  0.00  0.00    +0.000 C 
BRANCH  19  20
ATOM     20  C   UNL     1       2.415   3.418  18.305  0.00  0.00    +0.000 C 
ATOM     21  C   UNL     1       2.762   2.247  19.209  0.00  0.00    +0.000 C 
ATOM     22  C   UNL     1       1.464   2.000  19.936  0.00  0.00    +0.000 C 
ATOM     23  C   UNL     1       0.430   2.316  18.878  0.00  0.00    +0.000 C 
ATOM     24  O   UNL     1       1.021   3.249  17.963  0.00  0.00    +0.000 OA
ENDBRANCH  19  20
ENDBRANCH   7  19
TORSDOF 4
ENDMDL
