MODEL 1
REMARK VINA RESULT:      -6.1      0.000      0.000
REMARK  Name = 
REMARK  7 active torsions:
REMARK  status: ('A' for Active; 'I' for Inactive)
REMARK    1  A    between atoms: C_1  and  O_2
REMARK    2  A    between atoms: O_2  and  C_3
REMARK    3  A    between atoms: C_7  and  C_8
REMARK    4  A    between atoms: N_10  and  C_11
REMARK    5  A    between atoms: N_14  and  C_15
REMARK    6  A    between atoms: C_18  and  O_19
REMARK    7  A    between atoms: O_19  and  C_20
REMARK                            x       y       z     vdW  Elec       q    Type
REMARK                         _______ _______ _______ _____ _____    ______ ____
ROOT
ATOM      1  C   UNL     1       2.251   7.493  18.882  0.00  0.00    +0.000 C 
ATOM      2  O   UNL     1       1.560   7.895  17.957  0.00  0.00    +0.000 OA
ATOM      3  N   UNL     1       2.044   7.860  20.202  0.00  0.00    +0.000 N 
ATOM      4  H   UNL     1       2.765   7.606  20.868  0.00  0.00    +0.000 HD
ENDROOT
BRANCH   3   5
ATOM      5  C   UNL     1       1.003   8.793  20.623  0.00  0.00    +0.000 C 
ATOM      6  C   UNL     1       1.212  10.189  20.035  0.00  0.00    +0.000 C 
ATOM      7  C   UNL     1       0.139  11.153  20.546  0.00  0.00    +0.000 C 
ATOM      8  N   UNL     1       0.157  11.223  22.014  0.00  0.00    +0.000 NA
ATOM      9  C   UNL     1      -0.817  12.204  22.491  0.00  0.00    +0.000 C 
ATOM     10  C   UNL     1      -0.094   9.903  22.610  0.00  0.00    +0.000 C 
ATOM     11  C   UNL     1       0.947   8.881  22.150  0.00  0.00    +0.000 C 
ENDBRANCH   3   5
BRANCH   1  16
ATOM     12  C   UNL     1       4.569   4.436  19.004  0.00  0.00    +0.000 A 
ATOM     13  C   UNL     1       5.372   4.733  17.886  0.00  0.00    +0.000 A 
ATOM     14  C   UNL     1       5.229   5.929  17.205  0.00  0.00    +0.000 A 
ATOM     15  C   UNL     1       4.220   6.807  17.575  0.00  0.00    +0.000 A 
ATOM     16  C   UNL     1       3.339   6.492  18.629  0.00  0.00    +0.000 A 
ATOM     17  C   UNL     1       3.519   5.304  19.372  0.00  0.00    +0.000 A 
BRANCH  12  19
ATOM     18  C   UNL     1       4.119   2.139  19.236  0.00  0.00    +0.000 C 
ATOM     19  O   UNL     1       4.812   3.292  19.724  0.00  0.00    +0.000 OA
ENDBRANCH  12  19
BRANCH  17  20
ATOM     20  O   UNL     1       2.638   5.145  20.411  0.00  0.00    +0.000 OA
ATOM     21  C   UNL     1       1.486   4.333  20.259  0.00  0.00    +0.000 C 
ENDBRANCH  17  20
ENDBRANCH   1  16
TORSDOF 4
ENDMDL
MODEL 2
REMARK VINA RESULT:      -6.1      2.309      2.516
REMARK  Name = 
REMARK  7 active torsions:
REMARK  status: ('A' for Active; 'I' for Inactive)
REMARK    1  A    between atoms: C_1  and  O_2
REMARK    2  A    between atoms: O_2  and  C_3
REMARK    3  A    between atoms: C_7  and  C_8
REMARK    4  A    between atoms: N_10  and  C_11
REMARK    5  A    between atoms: N_14  and  C_15
REMARK    6  A    between atoms: C_18  and  O_19
REMARK    7  A    between atoms: O_19  and  C_20
REMARK                            x       y       z     vdW  Elec       q    Type
REMARK                         _______ _______ _______ _____ _____    ______ ____
ROOT
ATOM      1  C   UNL     1       2.332   7.406  18.916  0.00  0.00    +0.000 C 
ATOM      2  O   UNL     1       2.227   7.394  20.134  0.00  0.00    +0.000 OA
ATOM      3  N   UNL     1       1.958   8.485  18.132  0.00  0.00    +0.000 N 
ATOM      4  H   UNL     1       1.931   8.337  17.128  0.00  0.00    +0.000 HD
ENDROOT
BRANCH   3   5
ATOM      5  C   UNL     1       1.368   9.706  18.673  0.00  0.00    +0.000 C 
ATOM      6  C   UNL     1      -0.101   9.859  18.273  0.00  0.00    +0.000 C 
ATOM      7  C   UNL     1      -0.667  11.177  18.805  0.00  0.00    +0.000 C 
ATOM      8  N   UNL     1       0.108  12.320  18.300  0.00  0.00    +0.000 NA
ATOM      9  C   UNL     1      -0.487  13.578  18.749  0.00  0.00    +0.000 C 
ATOM     10  C   UNL     1       1.515  12.228  18.713  0.00  0.00    +0.000 C 
ATOM     11  C   UNL     1       2.157  10.934  18.210  0.00  0.00    +0.000 C 
ENDBRANCH   3   5
BRANCH   1  16
ATOM     12  C   UNL     1       3.111   3.949  17.440  0.00  0.00    +0.000 A 
ATOM     13  C   UNL     1       4.262   4.287  16.702  0.00  0.00    +0.000 A 
ATOM     14  C   UNL     1       4.811   5.555  16.782  0.00  0.00    +0.000 A 
ATOM     15  C   UNL     1       4.167   6.530  17.531  0.00  0.00    +0.000 A 
ATOM     16  C   UNL     1       2.961   6.247  18.202  0.00  0.00    +0.000 A 
ATOM     17  C   UNL     1       2.428   4.939  18.180  0.00  0.00    +0.000 A 
BRANCH  12  19
ATOM     18  C   UNL     1       3.471   1.742  18.170  0.00  0.00    +0.000 C 
ATOM     19  O   UNL     1       2.656   2.653  17.425  0.00  0.00    +0.000 OA
ENDBRANCH  12  19
BRANCH  17  20
ATOM     20  O   UNL     1       1.287   4.777  18.924  0.00  0.00    +0.000 OA
ATOM     21  C   UNL     1       1.325   4.076  20.155  0.00  0.00    +0.000 C 
ENDBRANCH  17  20
ENDBRANCH   1  16
TORSDOF 4
ENDMDL
MODEL 3
REMARK VINA RESULT:      -6.0      1.581      2.520
REMARK  Name = 
REMARK  7 active torsions:
REMARK  status: ('A' for Active; 'I' for Inactive)
REMARK    1  A    between atoms: C_1  and  O_2
REMARK    2  A    between atoms: O_2  and  C_3
REMARK    3  A    between atoms: C_7  and  C_8
REMARK    4  A    between atoms: N_10  and  C_11
REMARK    5  A    between atoms: N_14  and  C_15
REMARK    6  A    between atoms: C_18  and  O_19
REMARK    7  A    between atoms: O_19  and  C_20
REMARK                            x       y       z     vdW  Elec       q    Type
REMARK                         _______ _______ _______ _____ _____    ______ ____
ROOT
ATOM      1  C   UNL     1       2.837   6.925  18.584  0.00  0.00    +0.000 C 
ATOM      2  O   UNL     1       3.461   7.614  17.790  0.00  0.00    +0.000 OA
ATOM      3  N   UNL     1       1.955   7.449  19.515  0.00  0.00    +0.000 N 
ATOM      4  H   UNL     1       1.615   6.817  20.232  0.00  0.00    +0.000 HD
ENDROOT
BRANCH   3   5
ATOM      5  C   UNL     1       1.704   8.879  19.669  0.00  0.00    +0.000 C 
ATOM      6  C   UNL     1       1.000   9.199  20.988  0.00  0.00    +0.000 C 
ATOM      7  C   UNL     1       0.697  10.696  21.087  0.00  0.00    +0.000 C 
ATOM      8  N   UNL     1      -0.136  11.135  19.958  0.00  0.00    +0.000 NA
ATOM      9  C   UNL     1      -0.485  12.548  20.101  0.00  0.00    +0.000 C 
ATOM     10  C   UNL     1       0.538  10.889  18.676  0.00  0.00    +0.000 C 
ATOM     11  C   UNL     1       0.867   9.405  18.499  0.00  0.00    +0.000 C 
ENDBRANCH   3   5
BRANCH   1  16
ATOM     12  C   UNL     1       3.952   3.278  19.018  0.00  0.00    +0.000 A 
ATOM     13  C   UNL     1       2.857   2.645  18.398  0.00  0.00    +0.000 A 
ATOM     14  C   UNL     1       1.869   3.386  17.773  0.00  0.00    +0.000 A 
ATOM     15  C   UNL     1       1.913   4.771  17.836  0.00  0.00    +0.000 A 
ATOM     16  C   UNL     1       2.945   5.430  18.532  0.00  0.00    +0.000 A 
ATOM     17  C   UNL     1       3.994   4.685  19.117  0.00  0.00    +0.000 A 
BRANCH  12  19
ATOM     18  C   UNL     1       4.619   1.797  20.720  0.00  0.00    +0.000 C 
ATOM     19  O   UNL     1       4.971   2.513  19.531  0.00  0.00    +0.000 OA
ENDBRANCH  12  19
BRANCH  17  20
ATOM     20  O   UNL     1       4.970   5.446  19.709  0.00  0.00    +0.000 OA
ATOM     21  C   UNL     1       6.271   5.506  19.151  0.00  0.00    +0.000 C 
ENDBRANCH  17  20
ENDBRANCH   1  16
TORSDOF 4
ENDMDL
MODEL 4
REMARK VINA RESULT:      -5.8      1.237      2.677
REMARK  Name = 
REMARK  7 active torsions:
REMARK  status: ('A' for Active; 'I' for Inactive)
REMARK    1  A    between atoms: C_1  and  O_2
REMARK    2  A    between atoms: O_2  and  C_3
REMARK    3  A    between atoms: C_7  and  C_8
REMARK    4  A    between atoms: N_10  and  C_11
REMARK    5  A    between atoms: N_14  and  C_15
REMARK    6  A    between atoms: C_18  and  O_19
REMARK    7  A    between atoms: O_19  and  C_20
REMARK                            x       y       z     vdW  Elec       q    Type
REMARK                         _______ _______ _______ _____ _____    ______ ____
ROOT
ATOM      1  C   UNL     1       2.023   6.980  20.078  0.00  0.00    +0.000 C 
ATOM      2  O   UNL     1       2.352   7.609  19.083  0.00  0.00    +0.000 OA
ATOM      3  N   UNL     1       1.366   7.552  21.156  0.00  0.00    +0.000 N 
ATOM      4  H   UNL     1       1.283   6.988  21.995  0.00  0.00    +0.000 HD
ENDROOT
BRANCH   3   5
ATOM      5  C   UNL     1       1.030   8.970  21.232  0.00  0.00    +0.000 C 
ATOM      6  C   UNL     1       0.182   9.294  22.463  0.00  0.00    +0.000 C 
ATOM      7  C   UNL     1      -0.202  10.774  22.477  0.00  0.00    +0.000 C 
ATOM      8  N   UNL     1      -0.939  11.133  21.256  0.00  0.00    +0.000 NA
ATOM      9  C   UNL     1      -1.371  12.530  21.313  0.00  0.00    +0.000 C 
ATOM     10  C   UNL     1      -0.129  10.883  20.056  0.00  0.00    +0.000 C 
ATOM     11  C   UNL     1       0.290   9.415  19.967  0.00  0.00    +0.000 C 
ENDBRANCH   3   5
BRANCH   1  16
ATOM     12  C   UNL     1       3.576   3.470  20.025  0.00  0.00    +0.000 A 
ATOM     13  C   UNL     1       2.452   2.733  20.447  0.00  0.00    +0.000 A 
ATOM     14  C   UNL     1       1.225   3.348  20.625  0.00  0.00    +0.000 A 
ATOM     15  C   UNL     1       1.124   4.723  20.472  0.00  0.00    +0.000 A 
ATOM     16  C   UNL     1       2.253   5.499  20.144  0.00  0.00    +0.000 A 
ATOM     17  C   UNL     1       3.495   4.873  19.896  0.00  0.00    +0.000 A 
BRANCH  12  19
ATOM     18  C   UNL     1       4.888   1.560  20.430  0.00  0.00    +0.000 C 
ATOM     19  O   UNL     1       4.750   2.812  19.750  0.00  0.00    +0.000 OA
ENDBRANCH  12  19
BRANCH  17  20
ATOM     20  O   UNL     1       4.499   5.731  19.524  0.00  0.00    +0.000 OA
ATOM     21  C   UNL     1       5.021   5.697  18.207  0.00  0.00    +0.000 C 
ENDBRANCH  17  20
ENDBRANCH   1  16
TORSDOF 4
ENDMDL
MODEL 5
REMARK VINA RESULT:      -5.8      2.795      4.286
REMARK  Name = 
REMARK  7 active torsions:
REMARK  status: ('A' for Active; 'I' for Inactive)
REMARK    1  A    between atoms: C_1  and  O_2
REMARK    2  A    between atoms: O_2  and  C_3
REMARK    3  A    between atoms: C_7  and  C_8
REMARK    4  A    between atoms: N_10  and  C_11
REMARK    5  A    between atoms: N_14  and  C_15
REMARK    6  A    between atoms: C_18  and  O_19
REMARK    7  A    between atoms: O_19  and  C_20
REMARK                            x       y       z     vdW  Elec       q    Type
REMARK                         _______ _______ _______ _____ _____    ______ ____
ROOT
ATOM      1  C   UNL     1       4.437   6.152  18.136  0.00  0.00    +0.000 C 
ATOM      2  O   UNL     1       4.747   5.909  19.293  0.00  0.00    +0.000 OA
ATOM      3  N   UNL     1       3.551   7.157  17.782  0.00  0.00    +0.000 N 
ATOM      4  H   UNL     1       3.235   7.172  16.818  0.00  0.00    +0.000 HD
ENDROOT
BRANCH   3   5
ATOM      5  C   UNL     1       2.868   8.006  18.754  0.00  0.00    +0.000 C 
ATOM      6  C   UNL     1       2.055   7.188  19.759  0.00  0.00    +0.000 C 
ATOM      7  C   UNL     1       1.306   8.111  20.721  0.00  0.00    +0.000 C 
ATOM      8  N   UNL     1       0.417   9.022  19.985  0.00  0.00    +0.000 NA
ATOM      9  C   UNL     1      -0.353   9.846  20.916  0.00  0.00    +0.000 C 
ATOM     10  C   UNL     1       1.177   9.860  19.048  0.00  0.00    +0.000 C 
ATOM     11  C   UNL     1       1.951   9.005  18.043  0.00  0.00    +0.000 C 
ENDBRANCH   3   5
BRANCH   1  16
ATOM     12  C   UNL     1       6.699   5.054  15.235  0.00  0.00    +0.000 A 
ATOM     13  C   UNL     1       6.178   3.761  15.036  0.00  0.00    +0.000 A 
ATOM     14  C   UNL     1       5.070   3.325  15.742  0.00  0.00    +0.000 A 
ATOM     15  C   UNL     1       4.521   4.141  16.721  0.00  0.00    +0.000 A 
ATOM     16  C   UNL     1       5.081   5.401  17.009  0.00  0.00    +0.000 A 
ATOM     17  C   UNL     1       6.171   5.882  16.249  0.00  0.00    +0.000 A 
BRANCH  12  19
ATOM     18  C   UNL     1       7.637   5.068  13.078  0.00  0.00    +0.000 C 
ATOM     19  O   UNL     1       7.729   5.496  14.441  0.00  0.00    +0.000 OA
ENDBRANCH  12  19
BRANCH  17  20
ATOM     20  O   UNL     1       6.583   7.147  16.584  0.00  0.00    +0.000 OA
ATOM     21  C   UNL     1       7.623   7.339  17.527  0.00  0.00    +0.000 C 
ENDBRANCH  17  20
ENDBRANCH   1  16
TORSDOF 4
ENDMDL
MODEL 6
REMARK VINA RESULT:      -5.7      1.416      1.775
REMARK  Name = 
REMARK  7 active torsions:
REMARK  status: ('A' for Active; 'I' for Inactive)
REMARK    1  A    between atoms: C_1  and  O_2
REMARK    2  A    between atoms: O_2  and  C_3
REMARK    3  A    between atoms: C_7  and  C_8
REMARK    4  A    between atoms: N_10  and  C_11
REMARK    5  A    between atoms: N_14  and  C_15
REMARK    6  A    between atoms: C_18  and  O_19
REMARK    7  A    between atoms: O_19  and  C_20
REMARK                            x       y       z     vdW  Elec       q    Type
REMARK                         _______ _______ _______ _____ _____    ______ ____
ROOT
ATOM      1  C   UNL     1       2.800   7.432  18.277  0.00  0.00    +0.000 C 
ATOM      2  O   UNL     1       2.773   8.398  17.529  0.00  0.00    +0.000 OA
ATOM      3  N   UNL     1       2.314   7.462  19.575  0.00  0.00    +0.000 N 
ATOM      4  H   UNL     1       2.530   6.665  20.164  0.00  0.00    +0.000 HD
ENDROOT
BRANCH   3   5
ATOM      5  C   UNL     1       1.752   8.657  20.196  0.00  0.00    +0.000 C 
ATOM      6  C   UNL     1       1.184   8.368  21.586  0.00  0.00    +0.000 C 
ATOM      7  C   UNL     1       0.549   9.627  22.180  0.00  0.00    +0.000 C 
ATOM      8  N   UNL     1      -0.515  10.137  21.303  0.00  0.00    +0.000 NA
ATOM      9  C   UNL     1      -1.169  11.294  21.915  0.00  0.00    +0.000 C 
ATOM     10  C   UNL     1       0.011  10.474  19.974  0.00  0.00    +0.000 C 
ATOM     11  C   UNL     1       0.658   9.258  19.309  0.00  0.00    +0.000 C 
ENDBRANCH   3   5
BRANCH   1  16
ATOM     12  C   UNL     1       3.225   3.710  17.441  0.00  0.00    +0.000 A 
ATOM     13  C   UNL     1       4.392   3.800  16.658  0.00  0.00    +0.000 A 
ATOM     14  C   UNL     1       5.060   5.003  16.513  0.00  0.00    +0.000 A 
ATOM     15  C   UNL     1       4.523   6.152  17.075  0.00  0.00    +0.000 A 
ATOM     16  C   UNL     1       3.305   6.110  17.782  0.00  0.00    +0.000 A 
ATOM     17  C   UNL     1       2.650   4.876  17.991  0.00  0.00    +0.000 A 
BRANCH  12  19
ATOM     18  C   UNL     1       3.457   1.585  18.425  0.00  0.00    +0.000 C 
ATOM     19  O   UNL     1       2.649   2.482  17.655  0.00  0.00    +0.000 OA
ENDBRANCH  12  19
BRANCH  17  20
ATOM     20  O   UNL     1       1.509   4.959  18.749  0.00  0.00    +0.000 OA
ATOM     21  C   UNL     1       1.436   4.317  20.010  0.00  0.00    +0.000 C 
ENDBRANCH  17  20
ENDBRANCH   1  16
TORSDOF 4
ENDMDL
MODEL 7
REMARK VINA RESULT:      -5.7      1.019      1.153
REMARK  Name = 
REMARK  7 active torsions:
REMARK  status: ('A' for Active; 'I' for Inactive)
REMARK    1  A    between atoms: C_1  and  O_2
REMARK    2  A    between atoms: O_2  and  C_3
REMARK    3  A    between atoms: C_7  and  C_8
REMARK    4  A    between atoms: N_10  and  C_11
REMARK    5  A    between atoms: N_14  and  C_15
REMARK    6  A    between atoms: C_18  and  O_19
REMARK    7  A    between atoms: O_19  and  C_20
REMARK                            x       y       z     vdW  Elec       q    Type
REMARK                         _______ _______ _______ _____ _____    ______ ____
ROOT
ATOM      1  C   UNL     1       1.637   8.503  18.881  0.00  0.00    +0.000 C 
ATOM      2  O   UNL     1       0.995   9.029  17.984  0.00  0.00    +0.000 OA
ATOM      3  N   UNL     1       1.448   8.794  20.223  0.00  0.00    +0.000 N 
ATOM      4  H   UNL     1       2.137   8.430  20.873  0.00  0.00    +0.000 HD
ENDROOT
BRANCH   3   5
ATOM      5  C   UNL     1       0.489   9.784  20.703  0.00  0.00    +0.000 C 
ATOM      6  C   UNL     1       1.018  11.212  20.560  0.00  0.00    +0.000 C 
ATOM      7  C   UNL     1       0.015  12.216  21.129  0.00  0.00    +0.000 C 
ATOM      8  N   UNL     1      -0.266  11.928  22.544  0.00  0.00    +0.000 NA
ATOM      9  C   UNL     1      -1.165  12.939  23.101  0.00  0.00    +0.000 C 
ATOM     10  C   UNL     1      -0.826  10.580  22.708  0.00  0.00    +0.000 C 
ATOM     11  C   UNL     1       0.128   9.514  22.167  0.00  0.00    +0.000 C 
ENDBRANCH   3   5
BRANCH   1  16
ATOM     12  C   UNL     1       3.691   5.260  18.818  0.00  0.00    +0.000 A 
ATOM     13  C   UNL     1       4.506   5.546  17.706  0.00  0.00    +0.000 A 
ATOM     14  C   UNL     1       4.457   6.784  17.088  0.00  0.00    +0.000 A 
ATOM     15  C   UNL     1       3.529   7.722  17.516  0.00  0.00    +0.000 A 
ATOM     16  C   UNL     1       2.634   7.429  18.564  0.00  0.00    +0.000 A 
ATOM     17  C   UNL     1       2.721   6.193  19.244  0.00  0.00    +0.000 A 
BRANCH  12  19
ATOM     18  C   UNL     1       5.018   3.339  19.101  0.00  0.00    +0.000 C 
ATOM     19  O   UNL     1       3.842   4.064  19.476  0.00  0.00    +0.000 OA
ENDBRANCH  12  19
BRANCH  17  20
ATOM     20  O   UNL     1       1.838   6.055  20.285  0.00  0.00    +0.000 OA
ATOM     21  C   UNL     1       1.110   4.851  20.455  0.00  0.00    +0.000 C 
ENDBRANCH  17  20
ENDBRANCH   1  16
TORSDOF 4
ENDMDL
MODEL 8
REMARK VINA RESULT:      -5.7      1.886      2.909
REMARK  Name = 
REMARK  7 active torsions:
REMARK  status: ('A' for Active; 'I' for Inactive)
REMARK    1  A    between atoms: C_1  and  O_2
REMARK    2  A    between atoms: O_2  and  C_3
REMARK    3  A    between atoms: C_7  and  C_8
REMARK    4  A    between atoms: N_10  and  C_11
REMARK    5  A    between atoms: N_14  and  C_15
REMARK    6  A    between atoms: C_18  and  O_19
REMARK    7  A    between atoms: O_19  and  C_20
REMARK                            x       y       z     vdW  Elec       q    Type
REMARK                         _______ _______ _______ _____ _____    ______ ____
ROOT
ATOM      1  C   UNL     1       2.748   7.376  18.387  0.00  0.00    +0.000 C 
ATOM      2  O   UNL     1       3.027   8.372  17.736  0.00  0.00    +0.000 OA
ATOM      3  N   UNL     1       2.072   7.422  19.596  0.00  0.00    +0.000 N 
ATOM      4  H   UNL     1       2.034   6.563  20.134  0.00  0.00    +0.000 HD
ENDROOT
BRANCH   3   5
ATOM      5  C   UNL     1       1.652   8.666  20.235  0.00  0.00    +0.000 C 
ATOM      6  C   UNL     1       1.071   8.425  21.630  0.00  0.00    +0.000 C 
ATOM      7  C   UNL     1       0.585   9.740  22.242  0.00  0.00    +0.000 C 
ATOM      8  N   UNL     1      -0.425  10.374  21.384  0.00  0.00    +0.000 NA
ATOM      9  C   UNL     1      -0.941  11.590  22.015  0.00  0.00    +0.000 C 
ATOM     10  C   UNL     1       0.120  10.666  20.051  0.00  0.00    +0.000 C 
ATOM     11  C   UNL     1       0.622   9.393  19.367  0.00  0.00    +0.000 C 
ENDBRANCH   3   5
BRANCH   1  16
ATOM     12  C   UNL     1       4.460   4.338  16.782  0.00  0.00    +0.000 A 
ATOM     13  C   UNL     1       3.471   3.371  17.048  0.00  0.00    +0.000 A 
ATOM     14  C   UNL     1       2.262   3.729  17.620  0.00  0.00    +0.000 A 
ATOM     15  C   UNL     1       2.060   5.043  18.017  0.00  0.00    +0.000 A 
ATOM     16  C   UNL     1       3.069   6.012  17.852  0.00  0.00    +0.000 A 
ATOM     17  C   UNL     1       4.280   5.671  17.210  0.00  0.00    +0.000 A 
BRANCH  12  19
ATOM     18  C   UNL     1       5.578   4.265  14.714  0.00  0.00    +0.000 C 
ATOM     19  O   UNL     1       5.602   3.969  16.114  0.00  0.00    +0.000 OA
ENDBRANCH  12  19
BRANCH  17  20
ATOM     20  O   UNL     1       5.154   6.717  17.053  0.00  0.00    +0.000 OA
ATOM     21  C   UNL     1       6.421   6.696  17.687  0.00  0.00    +0.000 C 
ENDBRANCH  17  20
ENDBRANCH   1  16
TORSDOF 4
ENDMDL
MODEL 9
REMARK VINA RESULT:      -5.7      2.545      3.458
REMARK  Name = 
REMARK  7 active torsions:
REMARK  status: ('A' for Active; 'I' for Inactive)
REMARK    1  A    between atoms: C_1  and  O_2
REMARK    2  A    between atoms: O_2  and  C_3
REMARK    3  A    between atoms: C_7  and  C_8
REMARK    4  A    between atoms: N_10  and  C_11
REMARK    5  A    between atoms: N_14  and  C_15
REMARK    6  A    between atoms: C_18  and  O_19
REMARK    7  A    between atoms: O_19  and  C_20
REMARK                            x       y       z     vdW  Elec       q    Type
REMARK                         _______ _______ _______ _____ _____    ______ ____
ROOT
ATOM      1  C   UNL     1       2.406   7.258  18.752  0.00  0.00    +0.000 C 
ATOM      2  O   UNL     1       2.295   7.223  19.969  0.00  0.00    +0.000 OA
ATOM      3  N   UNL     1       2.097   8.374  17.992  0.00  0.00    +0.000 N 
ATOM      4  H   UNL     1       2.065   8.251  16.986  0.00  0.00    +0.000 HD
ENDROOT
BRANCH   3   5
ATOM      5  C   UNL     1       1.574   9.613  18.561  0.00  0.00    +0.000 C 
ATOM      6  C   UNL     1       0.082   9.791  18.274  0.00  0.00    +0.000 C 
ATOM      7  C   UNL     1      -0.416  11.127  18.829  0.00  0.00    +0.000 C 
ATOM      8  N   UNL     1       0.340  12.247  18.250  0.00  0.00    +0.000 NA
ATOM      9  C   UNL     1      -0.194  13.523  18.726  0.00  0.00    +0.000 C 
ATOM     10  C   UNL     1       1.772  12.132  18.554  0.00  0.00    +0.000 C 
ATOM     11  C   UNL     1       2.348  10.819  18.021  0.00  0.00    +0.000 C 
ENDBRANCH   3   5
BRANCH   1  16
ATOM     12  C   UNL     1       4.643   4.891  16.720  0.00  0.00    +0.000 A 
ATOM     13  C   UNL     1       3.854   3.727  16.805  0.00  0.00    +0.000 A 
ATOM     14  C   UNL     1       2.604   3.757  17.399  0.00  0.00    +0.000 A 
ATOM     15  C   UNL     1       2.162   4.928  17.997  0.00  0.00    +0.000 A 
ATOM     16  C   UNL     1       2.972   6.082  18.013  0.00  0.00    +0.000 A 
ATOM     17  C   UNL     1       4.221   6.080  17.352  0.00  0.00    +0.000 A 
BRANCH  12  19
ATOM     18  C   UNL     1       5.800   4.011  14.870  0.00  0.00    +0.000 C 
ATOM     19  O   UNL     1       5.828   4.853  16.028  0.00  0.00    +0.000 OA
ENDBRANCH  12  19
BRANCH  17  20
ATOM     20  O   UNL     1       4.882   7.281  17.385  0.00  0.00    +0.000 OA
ATOM     21  C   UNL     1       6.297   7.321  17.458  0.00  0.00    +0.000 C 
ENDBRANCH  17  20
ENDBRANCH   1  16
TORSDOF 4
ENDMDL
