MODEL 1
REMARK VINA RESULT:      -6.2      0.000      0.000
REMARK  Name = 
REMARK  0 active torsions:
REMARK  status: ('A' for Active; 'I' for Inactive)
REMARK                            x       y       z     vdW  Elec       q    Type
REMARK                         _______ _______ _______ _____ _____    ______ ____
ROOT
ATOM      1  N   UNL     1       7.029   4.310  18.211  0.00  0.00    +0.000 N 
ATOM      2  C   UNL     1       5.624   4.310  18.395  0.00  0.00    +0.000 C 
ATOM      3  N   UNL     1       5.108   3.584  19.326  0.00  0.00    +0.000 NA
ATOM      4  C   UNL     1       3.713   3.542  19.573  0.00  0.00    +0.000 A 
ATOM      5  C   UNL     1       3.213   2.731  20.602  0.00  0.00    +0.000 A 
ATOM      6  F   UNL     1       4.058   1.981  21.353  0.00  0.00    +0.000 F 
ATOM      7  C   UNL     1       1.839   2.693  20.859  0.00  0.00    +0.000 A 
ATOM      8  C   UNL     1       0.961   3.462  20.091  0.00  0.00    +0.000 A 
ATOM      9  C   UNL     1       1.453   4.269  19.062  0.00  0.00    +0.000 A 
ATOM     10  C   UNL     1       2.830   4.312  18.796  0.00  0.00    +0.000 A 
ATOM     11  C   UNL     1       3.354   5.180  17.683  0.00  0.00    +0.000 C 
ATOM     12  N   UNL     1       4.799   5.112  17.551  0.00  0.00    +0.000 N 
ATOM     13  H   UNL     1       7.635   3.733  18.812  0.00  0.00    +0.000 HD
ATOM     14  H   UNL     1       7.459   4.882  17.469  0.00  0.00    +0.000 HD
ATOM     15  H   UNL     1       5.244   5.674  16.811  0.00  0.00    +0.000 HD
ENDROOT
TORSDOF 0
ENDMDL
MODEL 2
REMARK VINA RESULT:      -6.1      1.604      1.679
REMARK  Name = 
REMARK  0 active torsions:
REMARK  status: ('A' for Active; 'I' for Inactive)
REMARK                            x       y       z     vdW  Elec       q    Type
REMARK                         _______ _______ _______ _____ _____    ______ ____
ROOT
ATOM      1  N   UNL     1       6.671   5.298  19.341  0.00  0.00    +0.000 N 
ATOM      2  C   UNL     1       5.479   4.612  19.001  0.00  0.00    +0.000 C 
ATOM      3  N   UNL     1       4.478   4.642  19.812  0.00  0.00    +0.000 NA
ATOM      4  C   UNL     1       3.253   3.987  19.534  0.00  0.00    +0.000 A 
ATOM      5  C   UNL     1       2.201   4.058  20.459  0.00  0.00    +0.000 A 
ATOM      6  F   UNL     1       2.356   4.743  21.620  0.00  0.00    +0.000 F 
ATOM      7  C   UNL     1       0.985   3.424  20.186  0.00  0.00    +0.000 A 
ATOM      8  C   UNL     1       0.815   2.717  18.993  0.00  0.00    +0.000 A 
ATOM      9  C   UNL     1       1.862   2.639  18.069  0.00  0.00    +0.000 A 
ATOM     10  C   UNL     1       3.086   3.272  18.336  0.00  0.00    +0.000 A 
ATOM     11  C   UNL     1       4.211   3.181  17.340  0.00  0.00    +0.000 C 
ATOM     12  N   UNL     1       5.399   3.898  17.769  0.00  0.00    +0.000 N 
ATOM     13  H   UNL     1       6.742   5.815  20.229  0.00  0.00    +0.000 HD
ATOM     14  H   UNL     1       7.483   5.282  18.706  0.00  0.00    +0.000 HD
ATOM     15  H   UNL     1       6.221   3.886  17.147  0.00  0.00    +0.000 HD
ENDROOT
TORSDOF 0
ENDMDL
MODEL 3
REMARK VINA RESULT:      -6.1      2.804      4.695
REMARK  Name = 
REMARK  0 active torsions:
REMARK  status: ('A' for Active; 'I' for Inactive)
REMARK                            x       y       z     vdW  Elec       q    Type
REMARK                         _______ _______ _______ _____ _____    ______ ____
ROOT
ATOM      1  N   UNL     1       4.606   2.321  19.707  0.00  0.00    +0.000 N 
ATOM      2  C   UNL     1       4.886   3.534  19.031  0.00  0.00    +0.000 C 
ATOM      3  N   UNL     1       6.006   4.135  19.246  0.00  0.00    +0.000 NA
ATOM      4  C   UNL     1       6.357   5.346  18.600  0.00  0.00    +0.000 A 
ATOM      5  C   UNL     1       7.592   5.950  18.878  0.00  0.00    +0.000 A 
ATOM      6  F   UNL     1       8.444   5.385  19.769  0.00  0.00    +0.000 F 
ATOM      7  C   UNL     1       7.950   7.139  18.235  0.00  0.00    +0.000 A 
ATOM      8  C   UNL     1       7.079   7.728  17.315  0.00  0.00    +0.000 A 
ATOM      9  C   UNL     1       5.846   7.133  17.036  0.00  0.00    +0.000 A 
ATOM     10  C   UNL     1       5.478   5.940  17.679  0.00  0.00    +0.000 A 
ATOM     11  C   UNL     1       4.146   5.305  17.378  0.00  0.00    +0.000 C 
ATOM     12  N   UNL     1       3.930   4.076  18.121  0.00  0.00    +0.000 N 
ATOM     13  H   UNL     1       5.288   1.922  20.368  0.00  0.00    +0.000 HD
ATOM     14  H   UNL     1       3.715   1.829  19.549  0.00  0.00    +0.000 HD
ATOM     15  H   UNL     1       3.041   3.575  17.978  0.00  0.00    +0.000 HD
ENDROOT
TORSDOF 0
ENDMDL
MODEL 4
REMARK VINA RESULT:      -6.0      2.311      3.460
REMARK  Name = 
REMARK  0 active torsions:
REMARK  status: ('A' for Active; 'I' for Inactive)
REMARK                            x       y       z     vdW  Elec       q    Type
REMARK                         _______ _______ _______ _____ _____    ______ ____
ROOT
ATOM      1  N   UNL     1       4.890   2.088  20.061  0.00  0.00    +0.000 N 
ATOM      2  C   UNL     1       4.736   3.308  19.357  0.00  0.00    +0.000 C 
ATOM      3  N   UNL     1       3.786   4.113  19.688  0.00  0.00    +0.000 NA
ATOM      4  C   UNL     1       3.577   5.353  19.035  0.00  0.00    +0.000 A 
ATOM      5  C   UNL     1       2.524   6.186  19.443  0.00  0.00    +0.000 A 
ATOM      6  F   UNL     1       1.703   5.804  20.453  0.00  0.00    +0.000 F 
ATOM      7  C   UNL     1       2.319   7.416  18.811  0.00  0.00    +0.000 A 
ATOM      8  C   UNL     1       3.161   7.818  17.771  0.00  0.00    +0.000 A 
ATOM      9  C   UNL     1       4.209   6.991  17.357  0.00  0.00    +0.000 A 
ATOM     10  C   UNL     1       4.421   5.754  17.985  0.00  0.00    +0.000 A 
ATOM     11  C   UNL     1       5.548   4.865  17.533  0.00  0.00    +0.000 C 
ATOM     12  N   UNL     1       5.629   3.631  18.294  0.00  0.00    +0.000 N 
ATOM     13  H   UNL     1       4.249   1.843  20.829  0.00  0.00    +0.000 HD
ATOM     14  H   UNL     1       5.642   1.431  19.808  0.00  0.00    +0.000 HD
ATOM     15  H   UNL     1       6.373   2.960  18.049  0.00  0.00    +0.000 HD
ENDROOT
TORSDOF 0
ENDMDL
MODEL 5
REMARK VINA RESULT:      -6.0      1.210      1.258
REMARK  Name = 
REMARK  0 active torsions:
REMARK  status: ('A' for Active; 'I' for Inactive)
REMARK                            x       y       z     vdW  Elec       q    Type
REMARK                         _______ _______ _______ _____ _____    ______ ____
ROOT
ATOM      1  N   UNL     1       7.588   5.160  18.911  0.00  0.00    +0.000 N 
ATOM      2  C   UNL     1       6.211   5.006  18.613  0.00  0.00    +0.000 C 
ATOM      3  N   UNL     1       5.573   3.988  19.080  0.00  0.00    +0.000 NA
ATOM      4  C   UNL     1       4.195   3.773  18.830  0.00  0.00    +0.000 A 
ATOM      5  C   UNL     1       3.558   2.645  19.367  0.00  0.00    +0.000 A 
ATOM      6  F   UNL     1       4.258   1.756  20.115  0.00  0.00    +0.000 F 
ATOM      7  C   UNL     1       2.196   2.433  19.134  0.00  0.00    +0.000 A 
ATOM      8  C   UNL     1       1.466   3.344  18.366  0.00  0.00    +0.000 A 
ATOM      9  C   UNL     1       2.096   4.467  17.825  0.00  0.00    +0.000 A 
ATOM     10  C   UNL     1       3.463   4.687  18.053  0.00  0.00    +0.000 A 
ATOM     11  C   UNL     1       4.138   5.897  17.463  0.00  0.00    +0.000 C 
ATOM     12  N   UNL     1       5.548   5.974  17.803  0.00  0.00    +0.000 N 
ATOM     13  H   UNL     1       8.078   4.466  19.493  0.00  0.00    +0.000 HD
ATOM     14  H   UNL     1       8.114   5.966  18.544  0.00  0.00    +0.000 HD
ATOM     15  H   UNL     1       6.090   6.772  17.439  0.00  0.00    +0.000 HD
ENDROOT
TORSDOF 0
ENDMDL
MODEL 6
REMARK VINA RESULT:      -5.9      1.944      2.486
REMARK  Name = 
REMARK  0 active torsions:
REMARK  status: ('A' for Active; 'I' for Inactive)
REMARK                            x       y       z     vdW  Elec       q    Type
REMARK                         _______ _______ _______ _____ _____    ______ ____
ROOT
ATOM      1  N   UNL     1       6.655   5.521  18.634  0.00  0.00    +0.000 N 
ATOM      2  C   UNL     1       5.527   4.768  19.045  0.00  0.00    +0.000 C 
ATOM      3  N   UNL     1       4.451   5.383  19.399  0.00  0.00    +0.000 NA
ATOM      4  C   UNL     1       3.283   4.696  19.814  0.00  0.00    +0.000 A 
ATOM      5  C   UNL     1       2.144   5.425  20.186  0.00  0.00    +0.000 A 
ATOM      6  F   UNL     1       2.160   6.781  20.159  0.00  0.00    +0.000 F 
ATOM      7  C   UNL     1       0.984   4.753  20.585  0.00  0.00    +0.000 A 
ATOM      8  C   UNL     1       0.957   3.357  20.615  0.00  0.00    +0.000 A 
ATOM      9  C   UNL     1       2.091   2.626  20.249  0.00  0.00    +0.000 A 
ATOM     10  C   UNL     1       3.260   3.292  19.848  0.00  0.00    +0.000 A 
ATOM     11  C   UNL     1       4.480   2.500  19.459  0.00  0.00    +0.000 C 
ATOM     12  N   UNL     1       5.594   3.344  19.065  0.00  0.00    +0.000 N 
ATOM     13  H   UNL     1       6.620   6.550  18.618  0.00  0.00    +0.000 HD
ATOM     14  H   UNL     1       7.525   5.045  18.350  0.00  0.00    +0.000 HD
ATOM     15  H   UNL     1       6.472   2.884  18.784  0.00  0.00    +0.000 HD
ENDROOT
TORSDOF 0
ENDMDL
MODEL 7
REMARK VINA RESULT:      -5.9      2.101      2.763
REMARK  Name = 
REMARK  0 active torsions:
REMARK  status: ('A' for Active; 'I' for Inactive)
REMARK                            x       y       z     vdW  Elec       q    Type
REMARK                         _______ _______ _______ _____ _____    ______ ____
ROOT
ATOM      1  N   UNL     1       3.943   0.789  18.441  0.00  0.00    +0.000 N 
ATOM      2  C   UNL     1       3.755   2.193  18.443  0.00  0.00    +0.000 C 
ATOM      3  N   UNL     1       3.023   2.733  19.356  0.00  0.00    +0.000 NA
ATOM      4  C   UNL     1       2.797   4.130  19.425  0.00  0.00    +0.000 A 
ATOM      5  C   UNL     1       1.990   4.654  20.445  0.00  0.00    +0.000 A 
ATOM      6  F   UNL     1       1.418   3.829  21.357  0.00  0.00    +0.000 F 
ATOM      7  C   UNL     1       1.773   6.033  20.526  0.00  0.00    +0.000 A 
ATOM      8  C   UNL     1       2.358   6.892  19.592  0.00  0.00    +0.000 A 
ATOM      9  C   UNL     1       3.160   6.374  18.571  0.00  0.00    +0.000 A 
ATOM     10  C   UNL     1       3.382   4.991  18.482  0.00  0.00    +0.000 A 
ATOM     11  C   UNL     1       4.244   4.438  17.377  0.00  0.00    +0.000 C 
ATOM     12  N   UNL     1       4.375   2.993  17.438  0.00  0.00    +0.000 N 
ATOM     13  H   UNL     1       3.498   0.201  19.160  0.00  0.00    +0.000 HD
ATOM     14  H   UNL     1       4.523   0.341  17.716  0.00  0.00    +0.000 HD
ATOM     15  H   UNL     1       4.947   2.530  16.717  0.00  0.00    +0.000 HD
ENDROOT
TORSDOF 0
ENDMDL
MODEL 8
REMARK VINA RESULT:      -5.9      2.708      3.328
REMARK  Name = 
REMARK  0 active torsions:
REMARK  status: ('A' for Active; 'I' for Inactive)
REMARK                            x       y       z     vdW  Elec       q    Type
REMARK                         _______ _______ _______ _____ _____    ______ ____
ROOT
ATOM      1  N   UNL     1       1.820   7.786  21.122  0.00  0.00    +0.000 N 
ATOM      2  C   UNL     1       2.048   6.737  20.197  0.00  0.00    +0.000 C 
ATOM      3  N   UNL     1       1.674   5.540  20.493  0.00  0.00    +0.000 NA
ATOM      4  C   UNL     1       1.862   4.444  19.614  0.00  0.00    +0.000 A 
ATOM      5  C   UNL     1       1.432   3.165  19.996  0.00  0.00    +0.000 A 
ATOM      6  F   UNL     1       0.847   2.973  21.205  0.00  0.00    +0.000 F 
ATOM      7  C   UNL     1       1.603   2.081  19.129  0.00  0.00    +0.000 A 
ATOM      8  C   UNL     1       2.203   2.270  17.881  0.00  0.00    +0.000 A 
ATOM      9  C   UNL     1       2.637   3.541  17.497  0.00  0.00    +0.000 A 
ATOM     10  C   UNL     1       2.470   4.634  18.362  0.00  0.00    +0.000 A 
ATOM     11  C   UNL     1       2.943   6.001  17.945  0.00  0.00    +0.000 C 
ATOM     12  N   UNL     1       2.686   7.015  18.952  0.00  0.00    +0.000 N 
ATOM     13  H   UNL     1       1.363   7.596  22.025  0.00  0.00    +0.000 HD
ATOM     14  H   UNL     1       2.115   8.749  20.903  0.00  0.00    +0.000 HD
ATOM     15  H   UNL     1       2.981   7.982  18.750  0.00  0.00    +0.000 HD
ENDROOT
TORSDOF 0
ENDMDL
MODEL 9
REMARK VINA RESULT:      -5.9      1.091      1.143
REMARK  Name = 
REMARK  0 active torsions:
REMARK  status: ('A' for Active; 'I' for Inactive)
REMARK                            x       y       z     vdW  Elec       q    Type
REMARK                         _______ _______ _______ _____ _____    ______ ____
ROOT
ATOM      1  N   UNL     1       5.764   3.764  16.740  0.00  0.00    +0.000 N 
ATOM      2  C   UNL     1       4.587   3.806  17.528  0.00  0.00    +0.000 C 
ATOM      3  N   UNL     1       4.570   3.213  18.672  0.00  0.00    +0.000 NA
ATOM      4  C   UNL     1       3.432   3.221  19.517  0.00  0.00    +0.000 A 
ATOM      5  C   UNL     1       3.478   2.556  20.751  0.00  0.00    +0.000 A 
ATOM      6  F   UNL     1       4.602   1.900  21.133  0.00  0.00    +0.000 F 
ATOM      7  C   UNL     1       2.363   2.569  21.595  0.00  0.00    +0.000 A 
ATOM      8  C   UNL     1       1.201   3.243  21.211  0.00  0.00    +0.000 A 
ATOM      9  C   UNL     1       1.148   3.904  19.980  0.00  0.00    +0.000 A 
ATOM     10  C   UNL     1       2.263   3.895  19.127  0.00  0.00    +0.000 A 
ATOM     11  C   UNL     1       2.199   4.604  17.800  0.00  0.00    +0.000 C 
ATOM     12  N   UNL     1       3.437   4.502  17.049  0.00  0.00    +0.000 N 
ATOM     13  H   UNL     1       6.599   3.263  17.075  0.00  0.00    +0.000 HD
ATOM     14  H   UNL     1       5.794   4.231  15.822  0.00  0.00    +0.000 HD
ATOM     15  H   UNL     1       3.482   4.958  16.126  0.00  0.00    +0.000 HD
ENDROOT
TORSDOF 0
ENDMDL
