MODEL 1
REMARK VINA RESULT:      -7.8      0.000      0.000
REMARK  Name = 
REMARK  9 active torsions:
REMARK  status: ('A' for Active; 'I' for Inactive)
REMARK    1  A    between atoms: C_1  and  C_2
REMARK    2  A    between atoms: C_2  and  C_3
REMARK    3  A    between atoms: C_3  and  C_4
REMARK    4  A    between atoms: C_4  and  C_5
REMARK    5  A    between atoms: C_14  and  C_15
REMARK    6  A    between atoms: C_18  and  O_19
REMARK    7  A    between atoms: O_19  and  C_20
REMARK    8  A    between atoms: C_20  and  C_21
REMARK    9  A    between atoms: C_21  and  C_22
REMARK                            x       y       z     vdW  Elec       q    Type
REMARK                         _______ _______ _______ _____ _____    ______ ____
ROOT
ATOM      1  C   UNL     1       3.238   3.710  17.487  0.00  0.00    +0.000 A 
ATOM      2  N   UNL     1       4.261   3.179  16.848  0.00  0.00    +0.000 NA
ATOM      3  C   UNL     1       5.221   4.084  16.499  0.00  0.00    +0.000 A 
ATOM      4  N   UNL     1       6.394   3.803  15.861  0.00  0.00    +0.000 N 
ATOM      5  C   UNL     1       7.079   4.988  15.724  0.00  0.00    +0.000 A 
ATOM      6  N   UNL     1       6.414   6.010  16.227  0.00  0.00    +0.000 NA
ATOM      7  C   UNL     1       5.274   5.448  16.703  0.00  0.00    +0.000 A 
ATOM      8  C   UNL     1       4.109   5.991  17.404  0.00  0.00    +0.000 A 
ATOM      9  N   UNL     1       3.785   7.189  17.805  0.00  0.00    +0.000 NA
ATOM     10  C   UNL     1       2.573   6.982  18.444  0.00  0.00    +0.000 A 
ATOM     11  N   UNL     1       2.136   5.709  18.422  0.00  0.00    +0.000 NA
ATOM     12  N   UNL     1       3.141   5.092  17.763  0.00  0.00    +0.000 N 
ATOM     13  H   UNL     1       6.699   2.889  15.558  0.00  0.00    +0.000 HD
ENDROOT
BRANCH  10  14
ATOM     14  C   UNL     1       1.890   8.084  19.112  0.00  0.00    +0.000 A 
ATOM     15  C   UNL     1       1.593   9.230  18.369  0.00  0.00    +0.000 A 
ATOM     16  C   UNL     1       0.981  10.328  18.963  0.00  0.00    +0.000 A 
ATOM     17  C   UNL     1       0.650  10.310  20.320  0.00  0.00    +0.000 A 
ATOM     18  C   UNL     1       0.927   9.167  21.071  0.00  0.00    +0.000 A 
ATOM     19  C   UNL     1       1.547   8.055  20.469  0.00  0.00    +0.000 A 
BRANCH  17  20
ATOM     20  O   UNL     1       0.062  11.357  20.991  0.00  0.00    +0.000 OA
BRANCH  20  21
ATOM     21  C   UNL     1      -0.379  11.031  22.312  0.00  0.00    +0.000 C 
BRANCH  21  22
ATOM     22  C   UNL     1      -1.626  11.811  22.696  0.00  0.00    +0.000 C 
ATOM     23  C   UNL     1      -1.237  13.229  23.097  0.00  0.00    +0.000 C 
ENDBRANCH  21  22
ENDBRANCH  20  21
ENDBRANCH  17  20
ENDBRANCH  10  14
BRANCH   1  24
ATOM     24  C   UNL     1       2.073   2.881  17.957  0.00  0.00    +0.000 C 
BRANCH  24  25
ATOM     25  C   UNL     1       2.381   2.250  19.312  0.00  0.00    +0.000 C 
BRANCH  25  27
ATOM     26  C   UNL     1       2.104   3.096  21.667  0.00  0.00    +0.000 C 
ATOM     27  C   UNL     1       1.393   2.721  20.377  0.00  0.00    +0.000 C 
ENDBRANCH  25  27
ENDBRANCH  24  25
ENDBRANCH   1  24
TORSDOF 7
ENDMDL
MODEL 2
REMARK VINA RESULT:      -7.8      1.380      3.704
REMARK  Name = 
REMARK  9 active torsions:
REMARK  status: ('A' for Active; 'I' for Inactive)
REMARK    1  A    between atoms: C_1  and  C_2
REMARK    2  A    between atoms: C_2  and  C_3
REMARK    3  A    between atoms: C_3  and  C_4
REMARK    4  A    between atoms: C_4  and  C_5
REMARK    5  A    between atoms: C_14  and  C_15
REMARK    6  A    between atoms: C_18  and  O_19
REMARK    7  A    between atoms: O_19  and  C_20
REMARK    8  A    between atoms: C_20  and  C_21
REMARK    9  A    between atoms: C_21  and  C_22
REMARK                            x       y       z     vdW  Elec       q    Type
REMARK                         _______ _______ _______ _____ _____    ______ ____
ROOT
ATOM      1  C   UNL     1       4.788   5.110  16.872  0.00  0.00    +0.000 A 
ATOM      2  N   UNL     1       4.938   3.801  16.864  0.00  0.00    +0.000 NA
ATOM      3  C   UNL     1       4.080   3.143  17.697  0.00  0.00    +0.000 A 
ATOM      4  N   UNL     1       3.999   1.791  17.860  0.00  0.00    +0.000 N 
ATOM      5  C   UNL     1       2.994   1.548  18.766  0.00  0.00    +0.000 A 
ATOM      6  N   UNL     1       2.433   2.660  19.200  0.00  0.00    +0.000 NA
ATOM      7  C   UNL     1       3.105   3.637  18.539  0.00  0.00    +0.000 A 
ATOM      8  C   UNL     1       2.986   5.096  18.522  0.00  0.00    +0.000 A 
ATOM      9  N   UNL     1       2.197   5.936  19.133  0.00  0.00    +0.000 NA
ATOM     10  C   UNL     1       2.595   7.160  18.620  0.00  0.00    +0.000 A 
ATOM     11  N   UNL     1       3.615   7.097  17.743  0.00  0.00    +0.000 NA
ATOM     12  N   UNL     1       3.839   5.766  17.687  0.00  0.00    +0.000 N 
ATOM     13  H   UNL     1       4.568   1.103  17.389  0.00  0.00    +0.000 HD
ENDROOT
BRANCH  10  14
ATOM     14  C   UNL     1       1.899   8.384  18.999  0.00  0.00    +0.000 A 
ATOM     15  C   UNL     1       1.448   8.512  20.316  0.00  0.00    +0.000 A 
ATOM     16  C   UNL     1       0.741   9.638  20.723  0.00  0.00    +0.000 A 
ATOM     17  C   UNL     1       0.465  10.669  19.822  0.00  0.00    +0.000 A 
ATOM     18  C   UNL     1       0.922  10.562  18.508  0.00  0.00    +0.000 A 
ATOM     19  C   UNL     1       1.638   9.422  18.095  0.00  0.00    +0.000 A 
BRANCH  17  20
ATOM     20  O   UNL     1      -0.242  11.806  20.135  0.00  0.00    +0.000 OA
BRANCH  20  21
ATOM     21  C   UNL     1      -0.013  12.289  21.462  0.00  0.00    +0.000 C 
BRANCH  21  22
ATOM     22  C   UNL     1      -1.313  12.430  22.240  0.00  0.00    +0.000 C 
ATOM     23  C   UNL     1      -1.482  11.236  23.171  0.00  0.00    +0.000 C 
ENDBRANCH  21  22
ENDBRANCH  20  21
ENDBRANCH  17  20
ENDBRANCH  10  14
BRANCH   1  24
ATOM     24  C   UNL     1       5.638   6.016  16.024  0.00  0.00    +0.000 C 
BRANCH  24  25
ATOM     25  C   UNL     1       7.103   5.918  16.443  0.00  0.00    +0.000 C 
BRANCH  25  27
ATOM     26  C   UNL     1       7.781   8.063  17.574  0.00  0.00    +0.000 C 
ATOM     27  C   UNL     1       7.343   6.622  17.777  0.00  0.00    +0.000 C 
ENDBRANCH  25  27
ENDBRANCH  24  25
ENDBRANCH   1  24
TORSDOF 7
ENDMDL
MODEL 3
REMARK VINA RESULT:      -7.8      1.773      3.913
REMARK  Name = 
REMARK  9 active torsions:
REMARK  status: ('A' for Active; 'I' for Inactive)
REMARK    1  A    between atoms: C_1  and  C_2
REMARK    2  A    between atoms: C_2  and  C_3
REMARK    3  A    between atoms: C_3  and  C_4
REMARK    4  A    between atoms: C_4  and  C_5
REMARK    5  A    between atoms: C_14  and  C_15
REMARK    6  A    between atoms: C_18  and  O_19
REMARK    7  A    between atoms: O_19  and  C_20
REMARK    8  A    between atoms: C_20  and  C_21
REMARK    9  A    between atoms: C_21  and  C_22
REMARK                            x       y       z     vdW  Elec       q    Type
REMARK                         _______ _______ _______ _____ _____    ______ ____
ROOT
ATOM      1  C   UNL     1       4.757   5.076  16.805  0.00  0.00    +0.000 A 
ATOM      2  N   UNL     1       4.889   3.765  16.827  0.00  0.00    +0.000 NA
ATOM      3  C   UNL     1       4.039   3.141  17.692  0.00  0.00    +0.000 A 
ATOM      4  N   UNL     1       3.942   1.794  17.890  0.00  0.00    +0.000 N 
ATOM      5  C   UNL     1       2.951   1.588  18.821  0.00  0.00    +0.000 A 
ATOM      6  N   UNL     1       2.414   2.718  19.238  0.00  0.00    +0.000 NA
ATOM      7  C   UNL     1       3.086   3.669  18.539  0.00  0.00    +0.000 A 
ATOM      8  C   UNL     1       2.987   5.129  18.488  0.00  0.00    +0.000 A 
ATOM      9  N   UNL     1       2.221   5.995  19.092  0.00  0.00    +0.000 NA
ATOM     10  C   UNL     1       2.626   7.200  18.541  0.00  0.00    +0.000 A 
ATOM     11  N   UNL     1       3.628   7.101  17.646  0.00  0.00    +0.000 NA
ATOM     12  N   UNL     1       3.833   5.766  17.620  0.00  0.00    +0.000 N 
ATOM     13  H   UNL     1       4.493   1.086  17.426  0.00  0.00    +0.000 HD
ENDROOT
BRANCH  10  14
ATOM     14  C   UNL     1       1.954   8.443  18.902  0.00  0.00    +0.000 A 
ATOM     15  C   UNL     1       1.354   8.532  20.161  0.00  0.00    +0.000 A 
ATOM     16  C   UNL     1       0.662   9.676  20.543  0.00  0.00    +0.000 A 
ATOM     17  C   UNL     1       0.552  10.764  19.674  0.00  0.00    +0.000 A 
ATOM     18  C   UNL     1       1.159  10.695  18.420  0.00  0.00    +0.000 A 
ATOM     19  C   UNL     1       1.859   9.536  18.032  0.00  0.00    +0.000 A 
BRANCH  17  20
ATOM     20  O   UNL     1      -0.128  11.924  19.964  0.00  0.00    +0.000 OA
BRANCH  20  21
ATOM     21  C   UNL     1      -0.936  12.412  18.888  0.00  0.00    +0.000 C 
BRANCH  21  22
ATOM     22  C   UNL     1      -2.284  11.709  18.836  0.00  0.00    +0.000 C 
ATOM     23  C   UNL     1      -2.494  11.112  17.450  0.00  0.00    +0.000 C 
ENDBRANCH  21  22
ENDBRANCH  20  21
ENDBRANCH  17  20
ENDBRANCH  10  14
BRANCH   1  24
ATOM     24  C   UNL     1       5.603   5.949  15.918  0.00  0.00    +0.000 C 
BRANCH  24  25
ATOM     25  C   UNL     1       7.063   5.899  16.360  0.00  0.00    +0.000 C 
BRANCH  25  27
ATOM     26  C   UNL     1       7.760   6.195  18.762  0.00  0.00    +0.000 C 
ATOM     27  C   UNL     1       7.333   6.898  17.483  0.00  0.00    +0.000 C 
ENDBRANCH  25  27
ENDBRANCH  24  25
ENDBRANCH   1  24
TORSDOF 7
ENDMDL
MODEL 4
REMARK VINA RESULT:      -7.7      1.076      1.535
REMARK  Name = 
REMARK  9 active torsions:
REMARK  status: ('A' for Active; 'I' for Inactive)
REMARK    1  A    between atoms: C_1  and  C_2
REMARK    2  A    between atoms: C_2  and  C_3
REMARK    3  A    between atoms: C_3  and  C_4
REMARK    4  A    between atoms: C_4  and  C_5
REMARK    5  A    between atoms: C_14  and  C_15
REMARK    6  A    between atoms: C_18  and  O_19
REMARK    7  A    between atoms: O_19  and  C_20
REMARK    8  A    between atoms: C_20  and  C_21
REMARK    9  A    between atoms: C_21  and  C_22
REMARK                            x       y       z     vdW  Elec       q    Type
REMARK                         _______ _______ _______ _____ _____    ______ ____
ROOT
ATOM      1  C   UNL     1       3.103   3.881  17.463  0.00  0.00    +0.000 A 
ATOM      2  N   UNL     1       4.106   3.226  16.914  0.00  0.00    +0.000 NA
ATOM      3  C   UNL     1       5.145   4.027  16.538  0.00  0.00    +0.000 A 
ATOM      4  N   UNL     1       6.317   3.609  15.976  0.00  0.00    +0.000 N 
ATOM      5  C   UNL     1       7.095   4.725  15.777  0.00  0.00    +0.000 A 
ATOM      6  N   UNL     1       6.492   5.831  16.167  0.00  0.00    +0.000 NA
ATOM      7  C   UNL     1       5.294   5.395  16.635  0.00  0.00    +0.000 A 
ATOM      8  C   UNL     1       4.148   6.078  17.238  0.00  0.00    +0.000 A 
ATOM      9  N   UNL     1       3.901   7.326  17.528  0.00  0.00    +0.000 NA
ATOM     10  C   UNL     1       2.654   7.261  18.127  0.00  0.00    +0.000 A 
ATOM     11  N   UNL     1       2.121   6.025  18.186  0.00  0.00    +0.000 NA
ATOM     12  N   UNL     1       3.101   5.284  17.624  0.00  0.00    +0.000 N 
ATOM     13  H   UNL     1       6.562   2.654  15.761  0.00  0.00    +0.000 HD
ENDROOT
BRANCH  10  14
ATOM     14  C   UNL     1       2.031   8.461  18.675  0.00  0.00    +0.000 A 
ATOM     15  C   UNL     1       1.506   8.405  19.969  0.00  0.00    +0.000 A 
ATOM     16  C   UNL     1       0.863   9.505  20.527  0.00  0.00    +0.000 A 
ATOM     17  C   UNL     1       0.729  10.693  19.803  0.00  0.00    +0.000 A 
ATOM     18  C   UNL     1       1.262  10.767  18.516  0.00  0.00    +0.000 A 
ATOM     19  C   UNL     1       1.912   9.654  17.951  0.00  0.00    +0.000 A 
BRANCH  17  20
ATOM     20  O   UNL     1       0.093  11.819  20.271  0.00  0.00    +0.000 OA
BRANCH  20  21
ATOM     21  C   UNL     1      -1.205  11.571  20.821  0.00  0.00    +0.000 C 
BRANCH  21  22
ATOM     22  C   UNL     1      -2.281  12.369  20.101  0.00  0.00    +0.000 C 
ATOM     23  C   UNL     1      -2.575  11.725  18.751  0.00  0.00    +0.000 C 
ENDBRANCH  21  22
ENDBRANCH  20  21
ENDBRANCH  17  20
ENDBRANCH  10  14
BRANCH   1  24
ATOM     24  C   UNL     1       1.861   3.181  17.944  0.00  0.00    +0.000 C 
BRANCH  24  25
ATOM     25  C   UNL     1       2.113   2.519  19.296  0.00  0.00    +0.000 C 
BRANCH  25  27
ATOM     26  C   UNL     1       1.699   2.774  21.767  0.00  0.00    +0.000 C 
ATOM     27  C   UNL     1       1.186   3.085  20.369  0.00  0.00    +0.000 C 
ENDBRANCH  25  27
ENDBRANCH  24  25
ENDBRANCH   1  24
TORSDOF 7
ENDMDL
MODEL 5
REMARK VINA RESULT:      -7.7      1.212      1.518
REMARK  Name = 
REMARK  9 active torsions:
REMARK  status: ('A' for Active; 'I' for Inactive)
REMARK    1  A    between atoms: C_1  and  C_2
REMARK    2  A    between atoms: C_2  and  C_3
REMARK    3  A    between atoms: C_3  and  C_4
REMARK    4  A    between atoms: C_4  and  C_5
REMARK    5  A    between atoms: C_14  and  C_15
REMARK    6  A    between atoms: C_18  and  O_19
REMARK    7  A    between atoms: O_19  and  C_20
REMARK    8  A    between atoms: C_20  and  C_21
REMARK    9  A    between atoms: C_21  and  C_22
REMARK                            x       y       z     vdW  Elec       q    Type
REMARK                         _______ _______ _______ _____ _____    ______ ____
ROOT
ATOM      1  C   UNL     1       3.122   3.897  17.524  0.00  0.00    +0.000 A 
ATOM      2  N   UNL     1       4.127   3.258  16.960  0.00  0.00    +0.000 NA
ATOM      3  C   UNL     1       5.140   4.077  16.553  0.00  0.00    +0.000 A 
ATOM      4  N   UNL     1       6.308   3.678  15.970  0.00  0.00    +0.000 N 
ATOM      5  C   UNL     1       7.057   4.809  15.743  0.00  0.00    +0.000 A 
ATOM      6  N   UNL     1       6.439   5.905  16.136  0.00  0.00    +0.000 NA
ATOM      7  C   UNL     1       5.261   5.449  16.634  0.00  0.00    +0.000 A 
ATOM      8  C   UNL     1       4.114   6.113  17.255  0.00  0.00    +0.000 A 
ATOM      9  N   UNL     1       3.847   7.358  17.538  0.00  0.00    +0.000 NA
ATOM     10  C   UNL     1       2.614   7.273  18.165  0.00  0.00    +0.000 A 
ATOM     11  N   UNL     1       2.110   6.027  18.248  0.00  0.00    +0.000 NA
ATOM     12  N   UNL     1       3.093   5.301  17.672  0.00  0.00    +0.000 N 
ATOM     13  H   UNL     1       6.569   2.726  15.759  0.00  0.00    +0.000 HD
ENDROOT
BRANCH  10  14
ATOM     14  C   UNL     1       1.978   8.465  18.714  0.00  0.00    +0.000 A 
ATOM     15  C   UNL     1       1.970   9.630  17.941  0.00  0.00    +0.000 A 
ATOM     16  C   UNL     1       1.416  10.808  18.430  0.00  0.00    +0.000 A 
ATOM     17  C   UNL     1       0.855  10.853  19.709  0.00  0.00    +0.000 A 
ATOM     18  C   UNL     1       0.843   9.694  20.486  0.00  0.00    +0.000 A 
ATOM     19  C   UNL     1       1.404   8.501  19.991  0.00  0.00    +0.000 A 
BRANCH  17  20
ATOM     20  O   UNL     1       0.305  11.978  20.277  0.00  0.00    +0.000 OA
BRANCH  20  21
ATOM     21  C   UNL     1      -0.682  12.619  19.463  0.00  0.00    +0.000 C 
BRANCH  21  22
ATOM     22  C   UNL     1      -1.938  11.771  19.332  0.00  0.00    +0.000 C 
ATOM     23  C   UNL     1      -2.268  11.572  17.858  0.00  0.00    +0.000 C 
ENDBRANCH  21  22
ENDBRANCH  20  21
ENDBRANCH  17  20
ENDBRANCH  10  14
BRANCH   1  24
ATOM     24  C   UNL     1       1.905   3.176  18.040  0.00  0.00    +0.000 C 
BRANCH  24  25
ATOM     25  C   UNL     1       2.235   2.432  19.332  0.00  0.00    +0.000 C 
BRANCH  25  27
ATOM     26  C   UNL     1       1.559   2.549  21.754  0.00  0.00    +0.000 C 
ATOM     27  C   UNL     1       2.051   3.335  20.549  0.00  0.00    +0.000 C 
ENDBRANCH  25  27
ENDBRANCH  24  25
ENDBRANCH   1  24
TORSDOF 7
ENDMDL
MODEL 6
REMARK VINA RESULT:      -7.6      1.195      1.755
REMARK  Name = 
REMARK  9 active torsions:
REMARK  status: ('A' for Active; 'I' for Inactive)
REMARK    1  A    between atoms: C_1  and  C_2
REMARK    2  A    between atoms: C_2  and  C_3
REMARK    3  A    between atoms: C_3  and  C_4
REMARK    4  A    between atoms: C_4  and  C_5
REMARK    5  A    between atoms: C_14  and  C_15
REMARK    6  A    between atoms: C_18  and  O_19
REMARK    7  A    between atoms: O_19  and  C_20
REMARK    8  A    between atoms: C_20  and  C_21
REMARK    9  A    between atoms: C_21  and  C_22
REMARK                            x       y       z     vdW  Elec       q    Type
REMARK                         _______ _______ _______ _____ _____    ______ ____
ROOT
ATOM      1  C   UNL     1       3.312   3.819  17.547  0.00  0.00    +0.000 A 
ATOM      2  N   UNL     1       4.327   3.224  16.955  0.00  0.00    +0.000 NA
ATOM      3  C   UNL     1       5.286   4.087  16.510  0.00  0.00    +0.000 A 
ATOM      4  N   UNL     1       6.453   3.740  15.892  0.00  0.00    +0.000 N 
ATOM      5  C   UNL     1       7.139   4.903  15.633  0.00  0.00    +0.000 A 
ATOM      6  N   UNL     1       6.482   5.972  16.038  0.00  0.00    +0.000 NA
ATOM      7  C   UNL     1       5.344   5.464  16.577  0.00  0.00    +0.000 A 
ATOM      8  C   UNL     1       4.187   6.077  17.231  0.00  0.00    +0.000 A 
ATOM      9  N   UNL     1       3.869   7.311  17.514  0.00  0.00    +0.000 NA
ATOM     10  C   UNL     1       2.663   7.172  18.181  0.00  0.00    +0.000 A 
ATOM     11  N   UNL     1       2.222   5.904  18.289  0.00  0.00    +0.000 NA
ATOM     12  N   UNL     1       3.220   5.221  17.686  0.00  0.00    +0.000 N 
ATOM     13  H   UNL     1       6.753   2.800  15.679  0.00  0.00    +0.000 HD
ENDROOT
BRANCH  10  14
ATOM     14  C   UNL     1       1.989   8.337  18.742  0.00  0.00    +0.000 A 
ATOM     15  C   UNL     1       1.596   8.295  20.083  0.00  0.00    +0.000 A 
ATOM     16  C   UNL     1       0.911   9.358  20.660  0.00  0.00    +0.000 A 
ATOM     17  C   UNL     1       0.600  10.495  19.910  0.00  0.00    +0.000 A 
ATOM     18  C   UNL     1       1.000  10.557  18.575  0.00  0.00    +0.000 A 
ATOM     19  C   UNL     1       1.692   9.480  17.990  0.00  0.00    +0.000 A 
BRANCH  17  20
ATOM     20  O   UNL     1      -0.089  11.582  20.397  0.00  0.00    +0.000 OA
BRANCH  20  21
ATOM     21  C   UNL     1       0.398  12.841  19.923  0.00  0.00    +0.000 C 
BRANCH  21  22
ATOM     22  C   UNL     1       1.509  13.382  20.810  0.00  0.00    +0.000 C 
ATOM     23  C   UNL     1       2.729  13.707  19.958  0.00  0.00    +0.000 C 
ENDBRANCH  21  22
ENDBRANCH  20  21
ENDBRANCH  17  20
ENDBRANCH  10  14
BRANCH   1  24
ATOM     24  C   UNL     1       2.149   3.044  18.107  0.00  0.00    +0.000 C 
BRANCH  24  25
ATOM     25  C   UNL     1       2.619   2.100  19.210  0.00  0.00    +0.000 C 
BRANCH  25  27
ATOM     26  C   UNL     1       1.024   3.490  20.576  0.00  0.00    +0.000 C 
ATOM     27  C   UNL     1       2.303   2.667  20.592  0.00  0.00    +0.000 C 
ENDBRANCH  25  27
ENDBRANCH  24  25
ENDBRANCH   1  24
TORSDOF 7
ENDMDL
MODEL 7
REMARK VINA RESULT:      -7.6      1.412      3.572
REMARK  Name = 
REMARK  9 active torsions:
REMARK  status: ('A' for Active; 'I' for Inactive)
REMARK    1  A    between atoms: C_1  and  C_2
REMARK    2  A    between atoms: C_2  and  C_3
REMARK    3  A    between atoms: C_3  and  C_4
REMARK    4  A    between atoms: C_4  and  C_5
REMARK    5  A    between atoms: C_14  and  C_15
REMARK    6  A    between atoms: C_18  and  O_19
REMARK    7  A    between atoms: O_19  and  C_20
REMARK    8  A    between atoms: C_20  and  C_21
REMARK    9  A    between atoms: C_21  and  C_22
REMARK                            x       y       z     vdW  Elec       q    Type
REMARK                         _______ _______ _______ _____ _____    ______ ____
ROOT
ATOM      1  C   UNL     1       4.692   5.130  16.845  0.00  0.00    +0.000 A 
ATOM      2  N   UNL     1       4.876   3.827  16.780  0.00  0.00    +0.000 NA
ATOM      3  C   UNL     1       4.085   3.116  17.634  0.00  0.00    +0.000 A 
ATOM      4  N   UNL     1       4.049   1.757  17.751  0.00  0.00    +0.000 N 
ATOM      5  C   UNL     1       3.103   1.453  18.702  0.00  0.00    +0.000 A 
ATOM      6  N   UNL     1       2.539   2.532  19.208  0.00  0.00    +0.000 NA
ATOM      7  C   UNL     1       3.146   3.551  18.547  0.00  0.00    +0.000 A 
ATOM      8  C   UNL     1       2.988   5.006  18.591  0.00  0.00    +0.000 A 
ATOM      9  N   UNL     1       2.212   5.801  19.275  0.00  0.00    +0.000 NA
ATOM     10  C   UNL     1       2.547   7.053  18.786  0.00  0.00    +0.000 A 
ATOM     11  N   UNL     1       3.517   7.051  17.852  0.00  0.00    +0.000 NA
ATOM     12  N   UNL     1       3.773   5.730  17.734  0.00  0.00    +0.000 N 
ATOM     13  H   UNL     1       4.609   1.103  17.223  0.00  0.00    +0.000 HD
ENDROOT
BRANCH  10  14
ATOM     14  C   UNL     1       1.841   8.243  19.249  0.00  0.00    +0.000 A 
ATOM     15  C   UNL     1       1.659   9.298  18.351  0.00  0.00    +0.000 A 
ATOM     16  C   UNL     1       1.031  10.474  18.748  0.00  0.00    +0.000 A 
ATOM     17  C   UNL     1       0.569  10.625  20.058  0.00  0.00    +0.000 A 
ATOM     18  C   UNL     1       0.731   9.574  20.961  0.00  0.00    +0.000 A 
ATOM     19  C   UNL     1       1.367   8.384  20.559  0.00  0.00    +0.000 A 
BRANCH  17  20
ATOM     20  O   UNL     1      -0.045  11.759  20.538  0.00  0.00    +0.000 OA
BRANCH  20  21
ATOM     21  C   UNL     1      -1.470  11.746  20.420  0.00  0.00    +0.000 C 
BRANCH  21  22
ATOM     22  C   UNL     1      -2.140  12.372  21.634  0.00  0.00    +0.000 C 
ATOM     23  C   UNL     1      -1.506  11.823  22.905  0.00  0.00    +0.000 C 
ENDBRANCH  21  22
ENDBRANCH  20  21
ENDBRANCH  17  20
ENDBRANCH  10  14
BRANCH   1  24
ATOM     24  C   UNL     1       5.468   6.091  15.985  0.00  0.00    +0.000 C 
BRANCH  24  25
ATOM     25  C   UNL     1       6.952   6.042  16.340  0.00  0.00    +0.000 C 
BRANCH  25  27
ATOM     26  C   UNL     1       7.732   8.090  17.579  0.00  0.00    +0.000 C 
ATOM     27  C   UNL     1       7.212   6.667  17.708  0.00  0.00    +0.000 C 
ENDBRANCH  25  27
ENDBRANCH  24  25
ENDBRANCH   1  24
TORSDOF 7
ENDMDL
MODEL 8
REMARK VINA RESULT:      -7.6      0.760      1.279
REMARK  Name = 
REMARK  9 active torsions:
REMARK  status: ('A' for Active; 'I' for Inactive)
REMARK    1  A    between atoms: C_1  and  C_2
REMARK    2  A    between atoms: C_2  and  C_3
REMARK    3  A    between atoms: C_3  and  C_4
REMARK    4  A    between atoms: C_4  and  C_5
REMARK    5  A    between atoms: C_14  and  C_15
REMARK    6  A    between atoms: C_18  and  O_19
REMARK    7  A    between atoms: O_19  and  C_20
REMARK    8  A    between atoms: C_20  and  C_21
REMARK    9  A    between atoms: C_21  and  C_22
REMARK                            x       y       z     vdW  Elec       q    Type
REMARK                         _______ _______ _______ _____ _____    ______ ____
ROOT
ATOM      1  C   UNL     1       4.068   3.878  18.362  0.00  0.00    +0.000 A 
ATOM      2  N   UNL     1       5.016   3.337  17.626  0.00  0.00    +0.000 NA
ATOM      3  C   UNL     1       5.572   4.197  16.724  0.00  0.00    +0.000 A 
ATOM      4  N   UNL     1       6.590   3.909  15.862  0.00  0.00    +0.000 N 
ATOM      5  C   UNL     1       6.861   5.055  15.153  0.00  0.00    +0.000 A 
ATOM      6  N   UNL     1       6.075   6.056  15.500  0.00  0.00    +0.000 NA
ATOM      7  C   UNL     1       5.286   5.522  16.467  0.00  0.00    +0.000 A 
ATOM      8  C   UNL     1       4.216   6.074  17.301  0.00  0.00    +0.000 A 
ATOM      9  N   UNL     1       3.673   7.256  17.392  0.00  0.00    +0.000 NA
ATOM     10  C   UNL     1       2.756   7.094  18.419  0.00  0.00    +0.000 A 
ATOM     11  N   UNL     1       2.702   5.851  18.934  0.00  0.00    +0.000 NA
ATOM     12  N   UNL     1       3.654   5.221  18.212  0.00  0.00    +0.000 N 
ATOM     13  H   UNL     1       7.059   3.019  15.777  0.00  0.00    +0.000 HD
ENDROOT
BRANCH  10  14
ATOM     14  C   UNL     1       1.970   8.226  18.895  0.00  0.00    +0.000 A 
ATOM     15  C   UNL     1       1.571   8.242  20.235  0.00  0.00    +0.000 A 
ATOM     16  C   UNL     1       0.784   9.273  20.734  0.00  0.00    +0.000 A 
ATOM     17  C   UNL     1       0.373  10.320  19.905  0.00  0.00    +0.000 A 
ATOM     18  C   UNL     1       0.777  10.326  18.569  0.00  0.00    +0.000 A 
ATOM     19  C   UNL     1       1.573   9.281  18.063  0.00  0.00    +0.000 A 
BRANCH  17  20
ATOM     20  O   UNL     1      -0.420  11.368  20.311  0.00  0.00    +0.000 OA
BRANCH  20  21
ATOM     21  C   UNL     1       0.038  12.020  21.500  0.00  0.00    +0.000 C 
BRANCH  21  22
ATOM     22  C   UNL     1      -0.996  11.948  22.613  0.00  0.00    +0.000 C 
ATOM     23  C   UNL     1      -1.238  13.343  23.174  0.00  0.00    +0.000 C 
ENDBRANCH  21  22
ENDBRANCH  20  21
ENDBRANCH  17  20
ENDBRANCH  10  14
BRANCH   1  24
ATOM     24  C   UNL     1       3.329   3.096  19.414  0.00  0.00    +0.000 C 
BRANCH  24  25
ATOM     25  C   UNL     1       2.363   2.110  18.763  0.00  0.00    +0.000 C 
BRANCH  25  27
ATOM     26  C   UNL     1       0.747   3.341  20.250  0.00  0.00    +0.000 C 
ATOM     27  C   UNL     1       0.913   2.542  18.967  0.00  0.00    +0.000 C 
ENDBRANCH  25  27
ENDBRANCH  24  25
ENDBRANCH   1  24
TORSDOF 7
ENDMDL
MODEL 9
REMARK VINA RESULT:      -7.6      1.975      4.219
REMARK  Name = 
REMARK  9 active torsions:
REMARK  status: ('A' for Active; 'I' for Inactive)
REMARK    1  A    between atoms: C_1  and  C_2
REMARK    2  A    between atoms: C_2  and  C_3
REMARK    3  A    between atoms: C_3  and  C_4
REMARK    4  A    between atoms: C_4  and  C_5
REMARK    5  A    between atoms: C_14  and  C_15
REMARK    6  A    between atoms: C_18  and  O_19
REMARK    7  A    between atoms: O_19  and  C_20
REMARK    8  A    between atoms: C_20  and  C_21
REMARK    9  A    between atoms: C_21  and  C_22
REMARK                            x       y       z     vdW  Elec       q    Type
REMARK                         _______ _______ _______ _____ _____    ______ ____
ROOT
ATOM      1  C   UNL     1       4.841   5.148  17.304  0.00  0.00    +0.000 A 
ATOM      2  N   UNL     1       5.212   3.931  17.645  0.00  0.00    +0.000 NA
ATOM      3  C   UNL     1       4.621   3.475  18.786  0.00  0.00    +0.000 A 
ATOM      4  N   UNL     1       4.802   2.243  19.346  0.00  0.00    +0.000 N 
ATOM      5  C   UNL     1       4.006   2.183  20.466  0.00  0.00    +0.000 A 
ATOM      6  N   UNL     1       3.336   3.301  20.664  0.00  0.00    +0.000 NA
ATOM      7  C   UNL     1       3.717   4.091  19.627  0.00  0.00    +0.000 A 
ATOM      8  C   UNL     1       3.347   5.446  19.214  0.00  0.00    +0.000 A 
ATOM      9  N   UNL     1       2.528   6.337  19.701  0.00  0.00    +0.000 NA
ATOM     10  C   UNL     1       2.623   7.373  18.787  0.00  0.00    +0.000 A 
ATOM     11  N   UNL     1       3.490   7.157  17.779  0.00  0.00    +0.000 NA
ATOM     12  N   UNL     1       3.930   5.912  18.067  0.00  0.00    +0.000 N 
ATOM     13  H   UNL     1       5.401   1.513  18.989  0.00  0.00    +0.000 HD
ENDROOT
BRANCH  10  14
ATOM     14  C   UNL     1       1.793   8.564  18.928  0.00  0.00    +0.000 A 
ATOM     15  C   UNL     1       1.123   8.768  20.138  0.00  0.00    +0.000 A 
ATOM     16  C   UNL     1       0.284   9.863  20.314  0.00  0.00    +0.000 A 
ATOM     17  C   UNL     1       0.091  10.785  19.283  0.00  0.00    +0.000 A 
ATOM     18  C   UNL     1       0.765  10.602  18.075  0.00  0.00    +0.000 A 
ATOM     19  C   UNL     1       1.614   9.493  17.896  0.00  0.00    +0.000 A 
BRANCH  17  20
ATOM     20  O   UNL     1      -0.733  11.882  19.366  0.00  0.00    +0.000 OA
BRANCH  20  21
ATOM     21  C   UNL     1      -1.595  12.052  18.236  0.00  0.00    +0.000 C 
BRANCH  21  22
ATOM     22  C   UNL     1      -2.878  11.248  18.384  0.00  0.00    +0.000 C 
ATOM     23  C   UNL     1      -2.883  10.107  17.375  0.00  0.00    +0.000 C 
ENDBRANCH  21  22
ENDBRANCH  20  21
ENDBRANCH  17  20
ENDBRANCH  10  14
BRANCH   1  24
ATOM     24  C   UNL     1       5.379   5.834  16.077  0.00  0.00    +0.000 C 
BRANCH  24  25
ATOM     25  C   UNL     1       6.804   5.368  15.789  0.00  0.00    +0.000 C 
BRANCH  25  27
ATOM     26  C   UNL     1       5.816   3.998  13.921  0.00  0.00    +0.000 C 
ATOM     27  C   UNL     1       6.953   4.917  14.338  0.00  0.00    +0.000 C 
ENDBRANCH  25  27
ENDBRANCH  24  25
ENDBRANCH   1  24
TORSDOF 7
ENDMDL
