MODEL 1
REMARK VINA RESULT:      -8.2      0.000      0.000
REMARK  Name = 
REMARK  10 active torsions:
REMARK  status: ('A' for Active; 'I' for Inactive)
REMARK    1  A    between atoms: C_1  and  O_2
REMARK    2  A    between atoms: O_2  and  C_3
REMARK    3  A    between atoms: C_9  and  C_10
REMARK    4  A    between atoms: C_11  and  C_12
REMARK    5  A    between atoms: C_12  and  C_14
REMARK    6  A    between atoms: C_14  and  C_15
REMARK    7  A    between atoms: C_15  and  C_16
REMARK    8  A    between atoms: C_15  and  C_17
REMARK    9  A    between atoms: N_22  and  C_23
REMARK   10  A    between atoms: C_26  and  C_27
REMARK                            x       y       z     vdW  Elec       q    Type
REMARK                         _______ _______ _______ _____ _____    ______ ____
ROOT
ATOM      1  C   UNL     1       4.771   4.943  18.122  0.00  0.00    +0.000 C 
ATOM      2  C   UNL     1       5.931   4.339  17.310  0.00  0.00    +0.000 C 
ATOM      3  C   UNL     1       6.734   5.586  17.101  0.00  0.00    +0.000 C 
ATOM      4  O   UNL     1       7.928   5.636  16.873  0.00  0.00    +0.000 OA
ATOM      5  C   UNL     1       5.809   6.803  17.189  0.00  0.00    +0.000 C 
ATOM      6  O   UNL     1       6.155   7.933  16.920  0.00  0.00    +0.000 OA
ATOM      7  N   UNL     1       4.579   6.308  17.609  0.00  0.00    +0.000 N 
ENDROOT
BRANCH   1  14
ATOM      8  C   UNL     1       3.474   3.100  19.335  0.00  0.00    +0.000 A 
ATOM      9  C   UNL     1       2.266   2.452  19.617  0.00  0.00    +0.000 A 
ATOM     10  C   UNL     1       1.117   2.783  18.909  0.00  0.00    +0.000 A 
ATOM     11  F   UNL     1      -0.047   2.210  19.237  0.00  0.00    +0.000 F 
ATOM     12  C   UNL     1       1.149   3.714  17.887  0.00  0.00    +0.000 A 
ATOM     13  C   UNL     1       2.349   4.348  17.580  0.00  0.00    +0.000 A 
ATOM     14  C   UNL     1       3.524   4.085  18.316  0.00  0.00    +0.000 A 
BRANCH   8  16
ATOM     15  C   UNL     1       4.820   1.596  20.629  0.00  0.00    +0.000 C 
ATOM     16  O   UNL     1       4.643   2.867  20.012  0.00  0.00    +0.000 OA
ENDBRANCH   8  16
ENDBRANCH   1  14
BRANCH   7  17
ATOM     17  C   UNL     1       3.540   7.141  18.088  0.00  0.00    +0.000 A 
ATOM     18  C   UNL     1       3.091   6.964  19.395  0.00  0.00    +0.000 A 
ATOM     19  C   UNL     1       2.131   7.798  19.961  0.00  0.00    +0.000 A 
ATOM     20  C   UNL     1       1.535   8.804  19.200  0.00  0.00    +0.000 A 
ATOM     21  C   UNL     1       1.940   8.957  17.867  0.00  0.00    +0.000 A 
ATOM     22  C   UNL     1       2.929   8.124  17.306  0.00  0.00    +0.000 A 
BRANCH  20  23
ATOM     23  C   UNL     1       0.513   9.668  19.803  0.00  0.00    +0.000 A 
ATOM     24  C   UNL     1      -0.502  10.423  19.130  0.00  0.00    +0.000 A 
ATOM     25  C   UNL     1      -1.288  11.152  19.997  0.00  0.00    +0.000 A 
ATOM     26  S   UNL     1      -0.815  10.940  21.624  0.00  0.00    +0.000 S 
ATOM     27  C   UNL     1       0.435   9.866  21.170  0.00  0.00    +0.000 A 
ENDBRANCH  20  23
ENDBRANCH   7  17
BRANCH   2  28
ATOM     28  C   UNL     1       5.555   3.760  15.967  0.00  0.00    +0.000 C 
ATOM     29  O   UNL     1       5.196   2.585  15.860  0.00  0.00    +0.000 OA
BRANCH  28  30
ATOM     30  C   UNL     1       5.620   4.661  14.747  0.00  0.00    +0.000 C 
BRANCH  30  31
ATOM     31  C   UNL     1       6.522   4.052  13.663  0.00  0.00    +0.000 C 
ATOM     32  C   UNL     1       5.693   3.517  12.492  0.00  0.00    +0.000 C 
ATOM     33  C   UNL     1       7.535   5.080  13.160  0.00  0.00    +0.000 C 
ENDBRANCH  30  31
ENDBRANCH  28  30
ENDBRANCH   2  28
TORSDOF 7
ENDMDL
MODEL 2
REMARK VINA RESULT:      -8.1      0.526      1.132
REMARK  Name = 
REMARK  10 active torsions:
REMARK  status: ('A' for Active; 'I' for Inactive)
REMARK    1  A    between atoms: C_1  and  O_2
REMARK    2  A    between atoms: O_2  and  C_3
REMARK    3  A    between atoms: C_9  and  C_10
REMARK    4  A    between atoms: C_11  and  C_12
REMARK    5  A    between atoms: C_12  and  C_14
REMARK    6  A    between atoms: C_14  and  C_15
REMARK    7  A    between atoms: C_15  and  C_16
REMARK    8  A    between atoms: C_15  and  C_17
REMARK    9  A    between atoms: N_22  and  C_23
REMARK   10  A    between atoms: C_26  and  C_27
REMARK                            x       y       z     vdW  Elec       q    Type
REMARK                         _______ _______ _______ _____ _____    ______ ____
ROOT
ATOM      1  C   UNL     1       4.813   4.928  18.162  0.00  0.00    +0.000 C 
ATOM      2  C   UNL     1       5.960   4.309  17.342  0.00  0.00    +0.000 C 
ATOM      3  C   UNL     1       6.786   5.542  17.142  0.00  0.00    +0.000 C 
ATOM      4  O   UNL     1       7.981   5.571  16.912  0.00  0.00    +0.000 OA
ATOM      5  C   UNL     1       5.885   6.776  17.242  0.00  0.00    +0.000 C 
ATOM      6  O   UNL     1       6.253   7.901  16.982  0.00  0.00    +0.000 OA
ATOM      7  N   UNL     1       4.647   6.301  17.661  0.00  0.00    +0.000 N 
ENDROOT
BRANCH   1  14
ATOM      8  C   UNL     1       3.461   3.143  19.399  0.00  0.00    +0.000 A 
ATOM      9  C   UNL     1       2.237   2.520  19.671  0.00  0.00    +0.000 A 
ATOM     10  C   UNL     1       1.112   2.842  18.923  0.00  0.00    +0.000 A 
ATOM     11  F   UNL     1      -0.069   2.295  19.239  0.00  0.00    +0.000 F 
ATOM     12  C   UNL     1       1.182   3.739  17.872  0.00  0.00    +0.000 A 
ATOM     13  C   UNL     1       2.398   4.347  17.576  0.00  0.00    +0.000 A 
ATOM     14  C   UNL     1       3.550   4.093  18.350  0.00  0.00    +0.000 A 
BRANCH   8  16
ATOM     15  C   UNL     1       4.871   1.592  20.563  0.00  0.00    +0.000 C 
ATOM     16  O   UNL     1       4.609   2.917  20.114  0.00  0.00    +0.000 OA
ENDBRANCH   8  16
ENDBRANCH   1  14
BRANCH   7  17
ATOM     17  C   UNL     1       3.625   7.151  18.148  0.00  0.00    +0.000 A 
ATOM     18  C   UNL     1       3.162   8.177  17.327  0.00  0.00    +0.000 A 
ATOM     19  C   UNL     1       2.105   8.999  17.706  0.00  0.00    +0.000 A 
ATOM     20  C   UNL     1       1.519   8.859  18.965  0.00  0.00    +0.000 A 
ATOM     21  C   UNL     1       2.012   7.865  19.820  0.00  0.00    +0.000 A 
ATOM     22  C   UNL     1       3.069   7.021  19.422  0.00  0.00    +0.000 A 
BRANCH  20  23
ATOM     23  C   UNL     1       0.414   9.741  19.358  0.00  0.00    +0.000 A 
ATOM     24  C   UNL     1       0.045  10.142  20.683  0.00  0.00    +0.000 A 
ATOM     25  C   UNL     1      -1.063  10.963  20.704  0.00  0.00    +0.000 A 
ATOM     26  S   UNL     1      -1.671  11.258  19.136  0.00  0.00    +0.000 S 
ATOM     27  C   UNL     1      -0.448  10.296  18.429  0.00  0.00    +0.000 A 
ENDBRANCH  20  23
ENDBRANCH   7  17
BRANCH   2  28
ATOM     28  C   UNL     1       5.570   3.748  15.995  0.00  0.00    +0.000 C 
ATOM     29  O   UNL     1       5.196   2.580  15.877  0.00  0.00    +0.000 OA
BRANCH  28  30
ATOM     30  C   UNL     1       5.640   4.662  14.785  0.00  0.00    +0.000 C 
BRANCH  30  31
ATOM     31  C   UNL     1       6.538   4.058  13.694  0.00  0.00    +0.000 C 
ATOM     32  C   UNL     1       5.708   3.559  12.509  0.00  0.00    +0.000 C 
ATOM     33  C   UNL     1       7.570   5.079  13.216  0.00  0.00    +0.000 C 
ENDBRANCH  30  31
ENDBRANCH  28  30
ENDBRANCH   2  28
TORSDOF 7
ENDMDL
MODEL 3
REMARK VINA RESULT:      -7.0      7.026      9.845
REMARK  Name = 
REMARK  10 active torsions:
REMARK  status: ('A' for Active; 'I' for Inactive)
REMARK    1  A    between atoms: C_1  and  O_2
REMARK    2  A    between atoms: O_2  and  C_3
REMARK    3  A    between atoms: C_9  and  C_10
REMARK    4  A    between atoms: C_11  and  C_12
REMARK    5  A    between atoms: C_12  and  C_14
REMARK    6  A    between atoms: C_14  and  C_15
REMARK    7  A    between atoms: C_15  and  C_16
REMARK    8  A    between atoms: C_15  and  C_17
REMARK    9  A    between atoms: N_22  and  C_23
REMARK   10  A    between atoms: C_26  and  C_27
REMARK                            x       y       z     vdW  Elec       q    Type
REMARK                         _______ _______ _______ _____ _____    ______ ____
ROOT
ATOM      1  C   UNL     1       0.700  12.737  20.627  0.00  0.00    +0.000 C 
ATOM      2  C   UNL     1       2.082  13.345  20.325  0.00  0.00    +0.000 C 
ATOM      3  C   UNL     1       2.215  14.217  21.535  0.00  0.00    +0.000 C 
ATOM      4  O   UNL     1       3.259  14.617  22.015  0.00  0.00    +0.000 OA
ATOM      5  C   UNL     1       0.821  14.561  22.065  0.00  0.00    +0.000 C 
ATOM      6  O   UNL     1       0.615  15.366  22.948  0.00  0.00    +0.000 OA
ATOM      7  N   UNL     1      -0.063  13.784  21.324  0.00  0.00    +0.000 N 
ENDROOT
BRANCH   1  14
ATOM      8  C   UNL     1       0.131  10.585  19.365  0.00  0.00    +0.000 A 
ATOM      9  C   UNL     1      -0.662   9.894  18.442  0.00  0.00    +0.000 A 
ATOM     10  C   UNL     1      -1.588  10.582  17.668  0.00  0.00    +0.000 A 
ATOM     11  F   UNL     1      -2.392   9.902  16.842  0.00  0.00    +0.000 F 
ATOM     12  C   UNL     1      -1.713  11.957  17.755  0.00  0.00    +0.000 A 
ATOM     13  C   UNL     1      -0.914  12.659  18.651  0.00  0.00    +0.000 A 
ATOM     14  C   UNL     1      -0.004  11.991  19.498  0.00  0.00    +0.000 A 
BRANCH   8  16
ATOM     15  C   UNL     1       0.554   9.027  21.138  0.00  0.00    +0.000 C 
ATOM     16  O   UNL     1       1.038   9.981  20.198  0.00  0.00    +0.000 OA
ENDBRANCH   8  16
ENDBRANCH   1  14
BRANCH   7  17
ATOM     17  C   UNL     1      -1.415  13.593  21.698  0.00  0.00    +0.000 A 
ATOM     18  C   UNL     1      -2.371  14.488  21.222  0.00  0.00    +0.000 A 
ATOM     19  C   UNL     1      -3.729  14.316  21.480  0.00  0.00    +0.000 A 
ATOM     20  C   UNL     1      -4.166  13.268  22.290  0.00  0.00    +0.000 A 
ATOM     21  C   UNL     1      -3.207  12.392  22.817  0.00  0.00    +0.000 A 
ATOM     22  C   UNL     1      -1.836  12.558  22.535  0.00  0.00    +0.000 A 
BRANCH  20  23
ATOM     23  C   UNL     1      -5.597  13.106  22.566  0.00  0.00    +0.000 A 
ATOM     24  C   UNL     1      -6.577  12.450  21.752  0.00  0.00    +0.000 A 
ATOM     25  C   UNL     1      -7.843  12.498  22.295  0.00  0.00    +0.000 A 
ATOM     26  S   UNL     1      -7.869  13.331  23.786  0.00  0.00    +0.000 S 
ATOM     27  C   UNL     1      -6.186  13.620  23.708  0.00  0.00    +0.000 A 
ENDBRANCH  20  23
ENDBRANCH   7  17
BRANCH   2  28
ATOM     28  C   UNL     1       2.162  14.200  19.084  0.00  0.00    +0.000 C 
ATOM     29  O   UNL     1       2.331  13.695  17.972  0.00  0.00    +0.000 OA
BRANCH  28  30
ATOM     30  C   UNL     1       2.018  15.704  19.232  0.00  0.00    +0.000 C 
BRANCH  30  31
ATOM     31  C   UNL     1       1.011  16.261  18.215  0.00  0.00    +0.000 C 
ATOM     32  C   UNL     1      -0.387  16.373  18.828  0.00  0.00    +0.000 C 
ATOM     33  C   UNL     1       1.463  17.626  17.695  0.00  0.00    +0.000 C 
ENDBRANCH  30  31
ENDBRANCH  28  30
ENDBRANCH   2  28
TORSDOF 7
ENDMDL
MODEL 4
REMARK VINA RESULT:      -6.8      6.649      9.814
REMARK  Name = 
REMARK  10 active torsions:
REMARK  status: ('A' for Active; 'I' for Inactive)
REMARK    1  A    between atoms: C_1  and  O_2
REMARK    2  A    between atoms: O_2  and  C_3
REMARK    3  A    between atoms: C_9  and  C_10
REMARK    4  A    between atoms: C_11  and  C_12
REMARK    5  A    between atoms: C_12  and  C_14
REMARK    6  A    between atoms: C_14  and  C_15
REMARK    7  A    between atoms: C_15  and  C_16
REMARK    8  A    between atoms: C_15  and  C_17
REMARK    9  A    between atoms: N_22  and  C_23
REMARK   10  A    between atoms: C_26  and  C_27
REMARK                            x       y       z     vdW  Elec       q    Type
REMARK                         _______ _______ _______ _____ _____    ______ ____
ROOT
ATOM      1  C   UNL     1       0.874  12.862  20.794  0.00  0.00    +0.000 C 
ATOM      2  C   UNL     1       2.268  13.482  20.590  0.00  0.00    +0.000 C 
ATOM      3  C   UNL     1       2.289  14.390  21.780  0.00  0.00    +0.000 C 
ATOM      4  O   UNL     1       3.285  14.819  22.333  0.00  0.00    +0.000 OA
ATOM      5  C   UNL     1       0.851  14.726  22.185  0.00  0.00    +0.000 C 
ATOM      6  O   UNL     1       0.563  15.551  23.025  0.00  0.00    +0.000 OA
ATOM      7  N   UNL     1       0.042  13.915  21.397  0.00  0.00    +0.000 N 
ENDROOT
BRANCH   1  14
ATOM      8  C   UNL     1       0.372  10.659  19.593  0.00  0.00    +0.000 A 
ATOM      9  C   UNL     1      -0.337   9.941  18.623  0.00  0.00    +0.000 A 
ATOM     10  C   UNL     1      -1.142  10.612  17.711  0.00  0.00    +0.000 A 
ATOM     11  F   UNL     1      -1.872   9.910  16.835  0.00  0.00    +0.000 F 
ATOM     12  C   UNL     1      -1.224  11.993  17.708  0.00  0.00    +0.000 A 
ATOM     13  C   UNL     1      -0.506  12.720  18.652  0.00  0.00    +0.000 A 
ATOM     14  C   UNL     1       0.276  12.073  19.634  0.00  0.00    +0.000 A 
BRANCH   8  16
ATOM     15  C   UNL     1       1.151   8.655  20.655  0.00  0.00    +0.000 C 
ATOM     16  O   UNL     1       1.154  10.076  20.556  0.00  0.00    +0.000 OA
ENDBRANCH   8  16
ENDBRANCH   1  14
BRANCH   7  17
ATOM     17  C   UNL     1      -1.333  13.712  21.664  0.00  0.00    +0.000 A 
ATOM     18  C   UNL     1      -1.700  12.681  22.527  0.00  0.00    +0.000 A 
ATOM     19  C   UNL     1      -3.025  12.474  22.900  0.00  0.00    +0.000 A 
ATOM     20  C   UNL     1      -4.042  13.260  22.357  0.00  0.00    +0.000 A 
ATOM     21  C   UNL     1      -3.690  14.265  21.446  0.00  0.00    +0.000 A 
ATOM     22  C   UNL     1      -2.344  14.485  21.089  0.00  0.00    +0.000 A 
BRANCH  20  23
ATOM     23  C   UNL     1      -5.436  13.023  22.746  0.00  0.00    +0.000 A 
ATOM     24  C   UNL     1      -6.033  13.228  24.033  0.00  0.00    +0.000 A 
ATOM     25  C   UNL     1      -7.367  12.881  24.065  0.00  0.00    +0.000 A 
ATOM     26  S   UNL     1      -7.916  12.305  22.555  0.00  0.00    +0.000 S 
ATOM     27  C   UNL     1      -6.372  12.528  21.855  0.00  0.00    +0.000 A 
ENDBRANCH  20  23
ENDBRANCH   7  17
BRANCH   2  28
ATOM     28  C   UNL     1       2.438  14.305  19.335  0.00  0.00    +0.000 C 
ATOM     29  O   UNL     1       2.783  13.782  18.273  0.00  0.00    +0.000 OA
BRANCH  28  30
ATOM     30  C   UNL     1       2.163  15.796  19.406  0.00  0.00    +0.000 C 
BRANCH  30  31
ATOM     31  C   UNL     1       1.212  16.232  18.280  0.00  0.00    +0.000 C 
ATOM     32  C   UNL     1      -0.214  16.421  18.804  0.00  0.00    +0.000 C 
ATOM     33  C   UNL     1       1.703  17.523  17.625  0.00  0.00    +0.000 C 
ENDBRANCH  30  31
ENDBRANCH  28  30
ENDBRANCH   2  28
TORSDOF 7
ENDMDL
MODEL 5
REMARK VINA RESULT:      -6.8      6.063     10.876
REMARK  Name = 
REMARK  10 active torsions:
REMARK  status: ('A' for Active; 'I' for Inactive)
REMARK    1  A    between atoms: C_1  and  O_2
REMARK    2  A    between atoms: O_2  and  C_3
REMARK    3  A    between atoms: C_9  and  C_10
REMARK    4  A    between atoms: C_11  and  C_12
REMARK    5  A    between atoms: C_12  and  C_14
REMARK    6  A    between atoms: C_14  and  C_15
REMARK    7  A    between atoms: C_15  and  C_16
REMARK    8  A    between atoms: C_15  and  C_17
REMARK    9  A    between atoms: N_22  and  C_23
REMARK   10  A    between atoms: C_26  and  C_27
REMARK                            x       y       z     vdW  Elec       q    Type
REMARK                         _______ _______ _______ _____ _____    ______ ____
ROOT
ATOM      1  C   UNL     1       0.160  13.460  21.987  0.00  0.00    +0.000 C 
ATOM      2  C   UNL     1      -0.833  14.566  22.388  0.00  0.00    +0.000 C 
ATOM      3  C   UNL     1      -1.720  13.760  23.286  0.00  0.00    +0.000 C 
ATOM      4  O   UNL     1      -2.422  14.200  24.177  0.00  0.00    +0.000 OA
ATOM      5  C   UNL     1      -1.632  12.284  22.890  0.00  0.00    +0.000 C 
ATOM      6  O   UNL     1      -2.348  11.420  23.349  0.00  0.00    +0.000 OA
ATOM      7  N   UNL     1      -0.616  12.210  21.944  0.00  0.00    +0.000 N 
ENDROOT
BRANCH   1  14
ATOM      8  C   UNL     1       2.425  14.188  21.046  0.00  0.00    +0.000 A 
ATOM      9  C   UNL     1       3.325  14.267  19.977  0.00  0.00    +0.000 A 
ATOM     10  C   UNL     1       2.923  13.898  18.700  0.00  0.00    +0.000 A 
ATOM     11  F   UNL     1       3.812  13.908  17.699  0.00  0.00    +0.000 F 
ATOM     12  C   UNL     1       1.624  13.496  18.446  0.00  0.00    +0.000 A 
ATOM     13  C   UNL     1       0.712  13.436  19.495  0.00  0.00    +0.000 A 
ATOM     14  C   UNL     1       1.098  13.743  20.818  0.00  0.00    +0.000 A 
BRANCH   8  16
ATOM     15  C   UNL     1       4.010  15.104  22.595  0.00  0.00    +0.000 C 
ATOM     16  O   UNL     1       2.750  14.489  22.343  0.00  0.00    +0.000 OA
ENDBRANCH   8  16
ENDBRANCH   1  14
BRANCH   7  17
ATOM     17  C   UNL     1      -0.030  10.987  21.542  0.00  0.00    +0.000 A 
ATOM     18  C   UNL     1      -0.201  10.566  20.224  0.00  0.00    +0.000 A 
ATOM     19  C   UNL     1       0.414   9.417  19.735  0.00  0.00    +0.000 A 
ATOM     20  C   UNL     1       1.171   8.607  20.582  0.00  0.00    +0.000 A 
ATOM     21  C   UNL     1       1.305   8.992  21.923  0.00  0.00    +0.000 A 
ATOM     22  C   UNL     1       0.699  10.169  22.408  0.00  0.00    +0.000 A 
BRANCH  20  23
ATOM     23  C   UNL     1       1.802   7.390  20.059  0.00  0.00    +0.000 A 
ATOM     24  C   UNL     1       1.802   6.083  20.646  0.00  0.00    +0.000 A 
ATOM     25  C   UNL     1       2.513   5.165  19.904  0.00  0.00    +0.000 A 
ATOM     26  S   UNL     1       3.188   5.860  18.498  0.00  0.00    +0.000 S 
ATOM     27  C   UNL     1       2.522   7.389  18.877  0.00  0.00    +0.000 A 
ENDBRANCH  20  23
ENDBRANCH   7  17
BRANCH   2  28
ATOM     28  C   UNL     1      -1.658  15.142  21.262  0.00  0.00    +0.000 C 
ATOM     29  O   UNL     1      -2.476  14.448  20.654  0.00  0.00    +0.000 OA
BRANCH  28  30
ATOM     30  C   UNL     1      -1.465  16.603  20.899  0.00  0.00    +0.000 C 
BRANCH  30  31
ATOM     31  C   UNL     1      -0.697  16.743  19.576  0.00  0.00    +0.000 C 
ATOM     32  C   UNL     1      -1.446  17.648  18.596  0.00  0.00    +0.000 C 
ATOM     33  C   UNL     1       0.710  17.289  19.821  0.00  0.00    +0.000 C 
ENDBRANCH  30  31
ENDBRANCH  28  30
ENDBRANCH   2  28
TORSDOF 7
ENDMDL
MODEL 6
REMARK VINA RESULT:      -6.6      6.649      9.636
REMARK  Name = 
REMARK  10 active torsions:
REMARK  status: ('A' for Active; 'I' for Inactive)
REMARK    1  A    between atoms: C_1  and  O_2
REMARK    2  A    between atoms: O_2  and  C_3
REMARK    3  A    between atoms: C_9  and  C_10
REMARK    4  A    between atoms: C_11  and  C_12
REMARK    5  A    between atoms: C_12  and  C_14
REMARK    6  A    between atoms: C_14  and  C_15
REMARK    7  A    between atoms: C_15  and  C_16
REMARK    8  A    between atoms: C_15  and  C_17
REMARK    9  A    between atoms: N_22  and  C_23
REMARK   10  A    between atoms: C_26  and  C_27
REMARK                            x       y       z     vdW  Elec       q    Type
REMARK                         _______ _______ _______ _____ _____    ______ ____
ROOT
ATOM      1  C   UNL     1       0.998  12.778  20.690  0.00  0.00    +0.000 C 
ATOM      2  C   UNL     1       2.373  13.236  20.171  0.00  0.00    +0.000 C 
ATOM      3  C   UNL     1       2.709  14.216  21.251  0.00  0.00    +0.000 C 
ATOM      4  O   UNL     1       3.828  14.577  21.565  0.00  0.00    +0.000 OA
ATOM      5  C   UNL     1       1.415  14.726  21.891  0.00  0.00    +0.000 C 
ATOM      6  O   UNL     1       1.372  15.633  22.695  0.00  0.00    +0.000 OA
ATOM      7  N   UNL     1       0.398  13.951  21.345  0.00  0.00    +0.000 N 
ENDROOT
BRANCH   1  14
ATOM      8  C   UNL     1      -0.036  10.577  19.896  0.00  0.00    +0.000 A 
ATOM      9  C   UNL     1      -0.987   9.889  19.134  0.00  0.00    +0.000 A 
ATOM     10  C   UNL     1      -1.789  10.580  18.235  0.00  0.00    +0.000 A 
ATOM     11  F   UNL     1      -2.745   9.925  17.565  0.00  0.00    +0.000 F 
ATOM     12  C   UNL     1      -1.636  11.941  18.037  0.00  0.00    +0.000 A 
ATOM     13  C   UNL     1      -0.678  12.632  18.771  0.00  0.00    +0.000 A 
ATOM     14  C   UNL     1       0.115  11.978  19.738  0.00  0.00    +0.000 A 
BRANCH   8  16
ATOM     15  C   UNL     1       1.246   8.667  20.574  0.00  0.00    +0.000 C 
ATOM     16  O   UNL     1       0.766   9.982  20.836  0.00  0.00    +0.000 OA
ENDBRANCH   8  16
ENDBRANCH   1  14
BRANCH   7  17
ATOM     17  C   UNL     1      -0.910  13.910  21.885  0.00  0.00    +0.000 A 
ATOM     18  C   UNL     1      -1.843  14.846  21.443  0.00  0.00    +0.000 A 
ATOM     19  C   UNL     1      -3.169  14.816  21.867  0.00  0.00    +0.000 A 
ATOM     20  C   UNL     1      -3.586  13.879  22.813  0.00  0.00    +0.000 A 
ATOM     21  C   UNL     1      -2.642  12.967  23.304  0.00  0.00    +0.000 A 
ATOM     22  C   UNL     1      -1.307  12.987  22.854  0.00  0.00    +0.000 A 
BRANCH  20  23
ATOM     23  C   UNL     1      -4.982  13.867  23.263  0.00  0.00    +0.000 A 
ATOM     24  C   UNL     1      -5.681  12.801  23.919  0.00  0.00    +0.000 A 
ATOM     25  C   UNL     1      -6.998  13.111  24.185  0.00  0.00    +0.000 A 
ATOM     26  S   UNL     1      -7.409  14.679  23.651  0.00  0.00    +0.000 S 
ATOM     27  C   UNL     1      -5.824  14.949  23.070  0.00  0.00    +0.000 A 
ENDBRANCH  20  23
ENDBRANCH   7  17
BRANCH   2  28
ATOM     28  C   UNL     1       2.364  13.948  18.839  0.00  0.00    +0.000 C 
ATOM     29  O   UNL     1       2.454  13.321  17.782  0.00  0.00    +0.000 OA
BRANCH  28  30
ATOM     30  C   UNL     1       2.229  15.460  18.829  0.00  0.00    +0.000 C 
BRANCH  30  31
ATOM     31  C   UNL     1       3.211  16.092  17.831  0.00  0.00    +0.000 C 
ATOM     32  C   UNL     1       2.558  17.250  17.073  0.00  0.00    +0.000 C 
ATOM     33  C   UNL     1       4.471  16.579  18.545  0.00  0.00    +0.000 C 
ENDBRANCH  30  31
ENDBRANCH  28  30
ENDBRANCH   2  28
TORSDOF 7
ENDMDL
MODEL 7
REMARK VINA RESULT:      -6.6      6.478      9.693
REMARK  Name = 
REMARK  10 active torsions:
REMARK  status: ('A' for Active; 'I' for Inactive)
REMARK    1  A    between atoms: C_1  and  O_2
REMARK    2  A    between atoms: O_2  and  C_3
REMARK    3  A    between atoms: C_9  and  C_10
REMARK    4  A    between atoms: C_11  and  C_12
REMARK    5  A    between atoms: C_12  and  C_14
REMARK    6  A    between atoms: C_14  and  C_15
REMARK    7  A    between atoms: C_15  and  C_16
REMARK    8  A    between atoms: C_15  and  C_17
REMARK    9  A    between atoms: N_22  and  C_23
REMARK   10  A    between atoms: C_26  and  C_27
REMARK                            x       y       z     vdW  Elec       q    Type
REMARK                         _______ _______ _______ _____ _____    ______ ____
ROOT
ATOM      1  C   UNL     1       0.583  12.674  20.692  0.00  0.00    +0.000 C 
ATOM      2  C   UNL     1       2.015  13.186  20.452  0.00  0.00    +0.000 C 
ATOM      3  C   UNL     1       2.119  14.122  21.615  0.00  0.00    +0.000 C 
ATOM      4  O   UNL     1       3.151  14.493  22.143  0.00  0.00    +0.000 OA
ATOM      5  C   UNL     1       0.715  14.573  22.028  0.00  0.00    +0.000 C 
ATOM      6  O   UNL     1       0.499  15.440  22.847  0.00  0.00    +0.000 OA
ATOM      7  N   UNL     1      -0.162  13.801  21.274  0.00  0.00    +0.000 N 
ENDROOT
BRANCH   1  14
ATOM      8  C   UNL     1      -0.056  10.481  19.538  0.00  0.00    +0.000 A 
ATOM      9  C   UNL     1      -0.827   9.783  18.602  0.00  0.00    +0.000 A 
ATOM     10  C   UNL     1      -1.631  10.478  17.707  0.00  0.00    +0.000 A 
ATOM     11  F   UNL     1      -2.420   9.799  16.864  0.00  0.00    +0.000 F 
ATOM     12  C   UNL     1      -1.651  11.861  17.687  0.00  0.00    +0.000 A 
ATOM     13  C   UNL     1      -0.871  12.567  18.597  0.00  0.00    +0.000 A 
ATOM     14  C   UNL     1      -0.088  11.898  19.562  0.00  0.00    +0.000 A 
BRANCH   8  16
ATOM     15  C   UNL     1       1.322   8.620  20.163  0.00  0.00    +0.000 C 
ATOM     16  O   UNL     1       0.730   9.875  20.485  0.00  0.00    +0.000 OA
ENDBRANCH   8  16
ENDBRANCH   1  14
BRANCH   7  17
ATOM     17  C   UNL     1      -1.544  13.706  21.563  0.00  0.00    +0.000 A 
ATOM     18  C   UNL     1      -1.976  12.710  22.437  0.00  0.00    +0.000 A 
ATOM     19  C   UNL     1      -3.307  12.608  22.832  0.00  0.00    +0.000 A 
ATOM     20  C   UNL     1      -4.268  13.468  22.302  0.00  0.00    +0.000 A 
ATOM     21  C   UNL     1      -3.854  14.439  21.380  0.00  0.00    +0.000 A 
ATOM     22  C   UNL     1      -2.501  14.553  21.001  0.00  0.00    +0.000 A 
BRANCH  20  23
ATOM     23  C   UNL     1      -5.670  13.340  22.715  0.00  0.00    +0.000 A 
ATOM     24  C   UNL     1      -6.694  12.547  22.102  0.00  0.00    +0.000 A 
ATOM     25  C   UNL     1      -7.915  12.674  22.729  0.00  0.00    +0.000 A 
ATOM     26  S   UNL     1      -7.846  13.746  24.057  0.00  0.00    +0.000 S 
ATOM     27  C   UNL     1      -6.181  14.034  23.798  0.00  0.00    +0.000 A 
ENDBRANCH  20  23
ENDBRANCH   7  17
BRANCH   2  28
ATOM     28  C   UNL     1       2.226  13.958  19.172  0.00  0.00    +0.000 C 
ATOM     29  O   UNL     1       2.617  13.396  18.147  0.00  0.00    +0.000 OA
BRANCH  28  30
ATOM     30  C   UNL     1       1.934  15.448  19.170  0.00  0.00    +0.000 C 
BRANCH  30  31
ATOM     31  C   UNL     1       2.705  16.156  18.046  0.00  0.00    +0.000 C 
ATOM     32  C   UNL     1       1.944  17.386  17.544  0.00  0.00    +0.000 C 
ATOM     33  C   UNL     1       4.101  16.562  18.518  0.00  0.00    +0.000 C 
ENDBRANCH  30  31
ENDBRANCH  28  30
ENDBRANCH   2  28
TORSDOF 7
ENDMDL
MODEL 8
REMARK VINA RESULT:      -6.5      7.235      9.819
REMARK  Name = 
REMARK  10 active torsions:
REMARK  status: ('A' for Active; 'I' for Inactive)
REMARK    1  A    between atoms: C_1  and  O_2
REMARK    2  A    between atoms: O_2  and  C_3
REMARK    3  A    between atoms: C_9  and  C_10
REMARK    4  A    between atoms: C_11  and  C_12
REMARK    5  A    between atoms: C_12  and  C_14
REMARK    6  A    between atoms: C_14  and  C_15
REMARK    7  A    between atoms: C_15  and  C_16
REMARK    8  A    between atoms: C_15  and  C_17
REMARK    9  A    between atoms: N_22  and  C_23
REMARK   10  A    between atoms: C_26  and  C_27
REMARK                            x       y       z     vdW  Elec       q    Type
REMARK                         _______ _______ _______ _____ _____    ______ ____
ROOT
ATOM      1  C   UNL     1       0.837  13.345  21.103  0.00  0.00    +0.000 C 
ATOM      2  C   UNL     1       2.129  14.140  20.844  0.00  0.00    +0.000 C 
ATOM      3  C   UNL     1       1.978  15.175  21.916  0.00  0.00    +0.000 C 
ATOM      4  O   UNL     1       2.881  15.812  22.426  0.00  0.00    +0.000 OA
ATOM      5  C   UNL     1       0.494  15.336  22.256  0.00  0.00    +0.000 C 
ATOM      6  O   UNL     1       0.060  16.202  22.986  0.00  0.00    +0.000 OA
ATOM      7  N   UNL     1      -0.160  14.325  21.562  0.00  0.00    +0.000 N 
ENDROOT
BRANCH   1  14
ATOM      8  C   UNL     1       0.551  10.950  20.250  0.00  0.00    +0.000 A 
ATOM      9  C   UNL     1      -0.020  10.043  19.350  0.00  0.00    +0.000 A 
ATOM     10  C   UNL     1      -0.743  10.509  18.259  0.00  0.00    +0.000 A 
ATOM     11  F   UNL     1      -1.346   9.633  17.445  0.00  0.00    +0.000 F 
ATOM     12  C   UNL     1      -0.875  11.863  18.012  0.00  0.00    +0.000 A 
ATOM     13  C   UNL     1      -0.292  12.775  18.886  0.00  0.00    +0.000 A 
ATOM     14  C   UNL     1       0.399  12.344  20.039  0.00  0.00    +0.000 A 
BRANCH   8  16
ATOM     15  C   UNL     1       1.040   9.263  21.883  0.00  0.00    +0.000 C 
ATOM     16  O   UNL     1       1.243  10.578  21.375  0.00  0.00    +0.000 OA
ENDBRANCH   8  16
ENDBRANCH   1  14
BRANCH   7  17
ATOM     17  C   UNL     1      -1.498  13.950  21.832  0.00  0.00    +0.000 A 
ATOM     18  C   UNL     1      -2.523  14.583  21.130  0.00  0.00    +0.000 A 
ATOM     19  C   UNL     1      -3.855  14.210  21.283  0.00  0.00    +0.000 A 
ATOM     20  C   UNL     1      -4.211  13.227  22.207  0.00  0.00    +0.000 A 
ATOM     21  C   UNL     1      -3.194  12.622  22.957  0.00  0.00    +0.000 A 
ATOM     22  C   UNL     1      -1.844  12.987  22.782  0.00  0.00    +0.000 A 
BRANCH  20  23
ATOM     23  C   UNL     1      -5.620  12.852  22.369  0.00  0.00    +0.000 A 
ATOM     24  C   UNL     1      -6.516  12.360  21.366  0.00  0.00    +0.000 A 
ATOM     25  C   UNL     1      -7.786  12.127  21.851  0.00  0.00    +0.000 A 
ATOM     26  S   UNL     1      -7.916  12.498  23.512  0.00  0.00    +0.000 S 
ATOM     27  C   UNL     1      -6.272  12.962  23.586  0.00  0.00    +0.000 A 
ENDBRANCH  20  23
ENDBRANCH   7  17
BRANCH   2  28
ATOM     28  C   UNL     1       2.216  14.825  19.501  0.00  0.00    +0.000 C 
ATOM     29  O   UNL     1       1.437  15.731  19.197  0.00  0.00    +0.000 OA
BRANCH  28  30
ATOM     30  C   UNL     1       3.296  14.380  18.531  0.00  0.00    +0.000 C 
BRANCH  30  31
ATOM     31  C   UNL     1       4.658  14.977  18.916  0.00  0.00    +0.000 C 
ATOM     32  C   UNL     1       5.731  14.612  17.887  0.00  0.00    +0.000 C 
ATOM     33  C   UNL     1       4.564  16.496  19.056  0.00  0.00    +0.000 C 
ENDBRANCH  30  31
ENDBRANCH  28  30
ENDBRANCH   2  28
TORSDOF 7
ENDMDL
MODEL 9
REMARK VINA RESULT:      -6.5      7.144      9.787
REMARK  Name = 
REMARK  10 active torsions:
REMARK  status: ('A' for Active; 'I' for Inactive)
REMARK    1  A    between atoms: C_1  and  O_2
REMARK    2  A    between atoms: O_2  and  C_3
REMARK    3  A    between atoms: C_9  and  C_10
REMARK    4  A    between atoms: C_11  and  C_12
REMARK    5  A    between atoms: C_12  and  C_14
REMARK    6  A    between atoms: C_14  and  C_15
REMARK    7  A    between atoms: C_15  and  C_16
REMARK    8  A    between atoms: C_15  and  C_17
REMARK    9  A    between atoms: N_22  and  C_23
REMARK   10  A    between atoms: C_26  and  C_27
REMARK                            x       y       z     vdW  Elec       q    Type
REMARK                         _______ _______ _______ _____ _____    ______ ____
ROOT
ATOM      1  C   UNL     1       1.009  13.208  21.053  0.00  0.00    +0.000 C 
ATOM      2  C   UNL     1       2.363  13.770  20.586  0.00  0.00    +0.000 C 
ATOM      3  C   UNL     1       2.580  14.776  21.673  0.00  0.00    +0.000 C 
ATOM      4  O   UNL     1       3.654  15.223  22.029  0.00  0.00    +0.000 OA
ATOM      5  C   UNL     1       1.226  15.185  22.259  0.00  0.00    +0.000 C 
ATOM      6  O   UNL     1       1.081  16.088  23.056  0.00  0.00    +0.000 OA
ATOM      7  N   UNL     1       0.294  14.332  21.678  0.00  0.00    +0.000 N 
ENDROOT
BRANCH   1  14
ATOM      8  C   UNL     1       0.216  10.927  20.206  0.00  0.00    +0.000 A 
ATOM      9  C   UNL     1      -0.647  10.161  19.415  0.00  0.00    +0.000 A 
ATOM     10  C   UNL     1      -1.498  10.783  18.510  0.00  0.00    +0.000 A 
ATOM     11  F   UNL     1      -2.370  10.046  17.811  0.00  0.00    +0.000 F 
ATOM     12  C   UNL     1      -1.478  12.155  18.335  0.00  0.00    +0.000 A 
ATOM     13  C   UNL     1      -0.608  12.927  19.099  0.00  0.00    +0.000 A 
ATOM     14  C   UNL     1       0.228  12.339  20.072  0.00  0.00    +0.000 A 
BRANCH   8  16
ATOM     15  C   UNL     1       1.005   8.997  21.389  0.00  0.00    +0.000 C 
ATOM     16  O   UNL     1       1.056  10.400  21.153  0.00  0.00    +0.000 OA
ENDBRANCH   8  16
ENDBRANCH   1  14
BRANCH   7  17
ATOM     17  C   UNL     1      -1.027  14.191  22.166  0.00  0.00    +0.000 A 
ATOM     18  C   UNL     1      -2.003  15.078  21.715  0.00  0.00    +0.000 A 
ATOM     19  C   UNL     1      -3.338  14.950  22.087  0.00  0.00    +0.000 A 
ATOM     20  C   UNL     1      -3.727  13.960  22.990  0.00  0.00    +0.000 A 
ATOM     21  C   UNL     1      -2.745  13.097  23.492  0.00  0.00    +0.000 A 
ATOM     22  C   UNL     1      -1.398  13.216  23.094  0.00  0.00    +0.000 A 
BRANCH  20  23
ATOM     23  C   UNL     1      -5.135  13.845  23.386  0.00  0.00    +0.000 A 
ATOM     24  C   UNL     1      -5.800  12.699  23.932  0.00  0.00    +0.000 A 
ATOM     25  C   UNL     1      -7.139  12.922  24.173  0.00  0.00    +0.000 A 
ATOM     26  S   UNL     1      -7.612  14.506  23.746  0.00  0.00    +0.000 S 
ATOM     27  C   UNL     1      -6.024  14.897  23.247  0.00  0.00    +0.000 A 
ENDBRANCH  20  23
ENDBRANCH   7  17
BRANCH   2  28
ATOM     28  C   UNL     1       2.351  14.475  19.251  0.00  0.00    +0.000 C 
ATOM     29  O   UNL     1       1.464  15.282  18.966  0.00  0.00    +0.000 OA
BRANCH  28  30
ATOM     30  C   UNL     1       3.468  14.178  18.266  0.00  0.00    +0.000 C 
BRANCH  30  31
ATOM     31  C   UNL     1       4.749  14.937  18.645  0.00  0.00    +0.000 C 
ATOM     32  C   UNL     1       5.929  14.495  17.775  0.00  0.00    +0.000 C 
ATOM     33  C   UNL     1       4.543  16.446  18.517  0.00  0.00    +0.000 C 
ENDBRANCH  30  31
ENDBRANCH  28  30
ENDBRANCH   2  28
TORSDOF 7
ENDMDL
