MODEL 1
REMARK VINA RESULT:      -6.5      0.000      0.000
REMARK  Name = 
REMARK  16 active torsions:
REMARK  status: ('A' for Active; 'I' for Inactive)
REMARK    1  A    between atoms: C_2  and  C_3
REMARK    2  A    between atoms: C_3  and  O_4
REMARK    3  A    between atoms: C_3  and  C_5
REMARK    4  A    between atoms: C_6  and  C_7
REMARK    5  A    between atoms: C_8  and  C_9
REMARK    6  A    between atoms: C_9  and  O_10
REMARK    7  A    between atoms: C_9  and  C_11
REMARK    8  A    between atoms: C_12  and  C_13
REMARK    9  A    between atoms: C_13  and  C_14
REMARK   10  A    between atoms: C_14  and  C_15
REMARK   11  A    between atoms: C_15  and  C_16
REMARK   12  A    between atoms: C_16  and  C_17
REMARK   13  A    between atoms: C_17  and  C_18
REMARK   14  A    between atoms: C_18  and  C_19
REMARK   15  A    between atoms: C_19  and  C_20
REMARK   16  A    between atoms: C_20  and  O_21
REMARK                            x       y       z     vdW  Elec       q    Type
REMARK                         _______ _______ _______ _____ _____    ______ ____
ROOT
ATOM      1  C   UNL     1       6.709   5.582  17.308  0.00  0.00    +0.000 C 
ENDROOT
BRANCH   1   3
ATOM      2  C   UNL     1       7.843   7.917  17.849  0.00  0.00    +0.000 C 
ATOM      3  C   UNL     1       7.356   6.842  17.619  0.00  0.00    +0.000 C 
BRANCH   2   5
ATOM      4  C   UNL     1       8.946  10.362  18.199  0.00  0.00    +0.000 C 
ATOM      5  C   UNL     1       8.397   9.309  18.042  0.00  0.00    +0.000 C 
BRANCH   4   6
ATOM      6  C   UNL     1       9.736  11.568  18.434  0.00  0.00    +0.000 C 
BRANCH   6   7
ATOM      7  O   UNL     1       8.869  12.622  18.823  0.00  0.00    +0.000 OA
ATOM      8  H   UNL     1       8.713  13.150  18.022  0.00  0.00    +0.000 HD
ENDBRANCH   6   7
BRANCH   6  10
ATOM      9  C   UNL     1      11.688  12.080  19.985  0.00  0.00    +0.000 C 
ATOM     10  C   UNL     1      10.733  11.260  19.519  0.00  0.00    +0.000 C 
ENDBRANCH   6  10
ENDBRANCH   4   6
ENDBRANCH   2   5
ENDBRANCH   1   3
BRANCH   1  11
ATOM     11  O   UNL     1       7.656   4.678  16.768  0.00  0.00    +0.000 OA
ATOM     12  H   UNL     1       8.529   5.009  17.030  0.00  0.00    +0.000 HD
ENDBRANCH   1  11
BRANCH   1  13
ATOM     13  C   UNL     1       6.150   4.997  18.575  0.00  0.00    +0.000 C 
ATOM     14  C   UNL     1       4.882   5.150  18.990  0.00  0.00    +0.000 C 
BRANCH  14  15
ATOM     15  C   UNL     1       3.880   5.923  18.194  0.00  0.00    +0.000 C 
BRANCH  15  16
ATOM     16  C   UNL     1       2.450   5.633  18.606  0.00  0.00    +0.000 C 
BRANCH  16  17
ATOM     17  C   UNL     1       1.862   4.605  17.649  0.00  0.00    +0.000 C 
BRANCH  17  18
ATOM     18  C   UNL     1       1.147   3.515  18.425  0.00  0.00    +0.000 C 
BRANCH  18  19
ATOM     19  C   UNL     1       1.115   3.851  19.908  0.00  0.00    +0.000 C 
BRANCH  19  20
ATOM     20  C   UNL     1       1.583   2.653  20.722  0.00  0.00    +0.000 C 
BRANCH  20  21
ATOM     21  C   UNL     1       3.074   2.737  21.006  0.00  0.00    +0.000 C 
BRANCH  21  22
ATOM     22  C   UNL     1       3.869   2.007  19.937  0.00  0.00    +0.000 C 
BRANCH  22  23
ATOM     23  O   UNL     1       5.223   1.883  20.347  0.00  0.00    +0.000 OA
ATOM     24  H   UNL     1       5.525   2.764  20.625  0.00  0.00    +0.000 HD
ENDBRANCH  22  23
ENDBRANCH  21  22
ENDBRANCH  20  21
ENDBRANCH  19  20
ENDBRANCH  18  19
ENDBRANCH  17  18
ENDBRANCH  16  17
ENDBRANCH  15  16
ENDBRANCH  14  15
ENDBRANCH   1  13
TORSDOF 16
ENDMDL
MODEL 2
REMARK VINA RESULT:      -6.3      3.800      6.740
REMARK  Name = 
REMARK  16 active torsions:
REMARK  status: ('A' for Active; 'I' for Inactive)
REMARK    1  A    between atoms: C_2  and  C_3
REMARK    2  A    between atoms: C_3  and  O_4
REMARK    3  A    between atoms: C_3  and  C_5
REMARK    4  A    between atoms: C_6  and  C_7
REMARK    5  A    between atoms: C_8  and  C_9
REMARK    6  A    between atoms: C_9  and  O_10
REMARK    7  A    between atoms: C_9  and  C_11
REMARK    8  A    between atoms: C_12  and  C_13
REMARK    9  A    between atoms: C_13  and  C_14
REMARK   10  A    between atoms: C_14  and  C_15
REMARK   11  A    between atoms: C_15  and  C_16
REMARK   12  A    between atoms: C_16  and  C_17
REMARK   13  A    between atoms: C_17  and  C_18
REMARK   14  A    between atoms: C_18  and  C_19
REMARK   15  A    between atoms: C_19  and  C_20
REMARK   16  A    between atoms: C_20  and  O_21
REMARK                            x       y       z     vdW  Elec       q    Type
REMARK                         _______ _______ _______ _____ _____    ______ ____
ROOT
ATOM      1  C   UNL     1       5.865   5.901  17.334  0.00  0.00    +0.000 C 
ENDROOT
BRANCH   1   3
ATOM      2  C   UNL     1       6.018   4.758  14.946  0.00  0.00    +0.000 C 
ATOM      3  C   UNL     1       5.984   5.277  16.029  0.00  0.00    +0.000 C 
BRANCH   2   5
ATOM      4  C   UNL     1       5.798   3.458  12.584  0.00  0.00    +0.000 C 
ATOM      5  C   UNL     1       5.956   4.055  13.610  0.00  0.00    +0.000 C 
BRANCH   4   6
ATOM      6  C   UNL     1       5.495   2.653  11.403  0.00  0.00    +0.000 C 
BRANCH   6   7
ATOM      7  O   UNL     1       5.859   1.305  11.654  0.00  0.00    +0.000 OA
ATOM      8  H   UNL     1       6.741   1.188  11.261  0.00  0.00    +0.000 HD
ENDBRANCH   6   7
BRANCH   6  10
ATOM      9  C   UNL     1       3.412   3.724  10.406  0.00  0.00    +0.000 C 
ATOM     10  C   UNL     1       4.019   2.772  11.132  0.00  0.00    +0.000 C 
ENDBRANCH   6  10
ENDBRANCH   4   6
ENDBRANCH   2   5
ENDBRANCH   1   3
BRANCH   1  11
ATOM     11  O   UNL     1       7.003   6.704  17.585  0.00  0.00    +0.000 OA
ATOM     12  H   UNL     1       7.644   6.136  18.040  0.00  0.00    +0.000 HD
ENDBRANCH   1  11
BRANCH   1  13
ATOM     13  C   UNL     1       4.644   6.777  17.343  0.00  0.00    +0.000 C 
ATOM     14  C   UNL     1       3.397   6.343  17.589  0.00  0.00    +0.000 C 
BRANCH  14  15
ATOM     15  C   UNL     1       3.109   4.909  17.902  0.00  0.00    +0.000 C 
BRANCH  15  16
ATOM     16  C   UNL     1       1.657   4.535  17.669  0.00  0.00    +0.000 C 
BRANCH  16  17
ATOM     17  C   UNL     1       1.437   3.103  18.137  0.00  0.00    +0.000 C 
BRANCH  17  18
ATOM     18  C   UNL     1       0.483   3.078  19.315  0.00  0.00    +0.000 C 
BRANCH  18  19
ATOM     19  C   UNL     1       1.182   3.556  20.577  0.00  0.00    +0.000 C 
BRANCH  19  20
ATOM     20  C   UNL     1       2.092   2.460  21.115  0.00  0.00    +0.000 C 
BRANCH  20  21
ATOM     21  C   UNL     1       3.552   2.879  21.041  0.00  0.00    +0.000 C 
BRANCH  21  22
ATOM     22  C   UNL     1       4.297   2.060  20.001  0.00  0.00    +0.000 C 
BRANCH  22  23
ATOM     23  O   UNL     1       5.358   2.829  19.455  0.00  0.00    +0.000 OA
ATOM     24  H   UNL     1       4.961   3.590  18.998  0.00  0.00    +0.000 HD
ENDBRANCH  22  23
ENDBRANCH  21  22
ENDBRANCH  20  21
ENDBRANCH  19  20
ENDBRANCH  18  19
ENDBRANCH  17  18
ENDBRANCH  16  17
ENDBRANCH  15  16
ENDBRANCH  14  15
ENDBRANCH   1  13
TORSDOF 16
ENDMDL
MODEL 3
REMARK VINA RESULT:      -6.2      3.670      6.925
REMARK  Name = 
REMARK  16 active torsions:
REMARK  status: ('A' for Active; 'I' for Inactive)
REMARK    1  A    between atoms: C_2  and  C_3
REMARK    2  A    between atoms: C_3  and  O_4
REMARK    3  A    between atoms: C_3  and  C_5
REMARK    4  A    between atoms: C_6  and  C_7
REMARK    5  A    between atoms: C_8  and  C_9
REMARK    6  A    between atoms: C_9  and  O_10
REMARK    7  A    between atoms: C_9  and  C_11
REMARK    8  A    between atoms: C_12  and  C_13
REMARK    9  A    between atoms: C_13  and  C_14
REMARK   10  A    between atoms: C_14  and  C_15
REMARK   11  A    between atoms: C_15  and  C_16
REMARK   12  A    between atoms: C_16  and  C_17
REMARK   13  A    between atoms: C_17  and  C_18
REMARK   14  A    between atoms: C_18  and  C_19
REMARK   15  A    between atoms: C_19  and  C_20
REMARK   16  A    between atoms: C_20  and  O_21
REMARK                            x       y       z     vdW  Elec       q    Type
REMARK                         _______ _______ _______ _____ _____    ______ ____
ROOT
ATOM      1  C   UNL     1       7.011   4.712  17.481  0.00  0.00    +0.000 C 
ENDROOT
BRANCH   1   3
ATOM      2  C   UNL     1       6.275   4.198  14.986  0.00  0.00    +0.000 C 
ATOM      3  C   UNL     1       6.600   4.465  16.112  0.00  0.00    +0.000 C 
BRANCH   2   5
ATOM      4  C   UNL     1       5.665   3.320  12.501  0.00  0.00    +0.000 C 
ATOM      5  C   UNL     1       5.941   3.771  13.576  0.00  0.00    +0.000 C 
BRANCH   4   6
ATOM      6  C   UNL     1       5.359   2.634  11.248  0.00  0.00    +0.000 C 
BRANCH   6   7
ATOM      7  O   UNL     1       5.683   1.259  11.382  0.00  0.00    +0.000 OA
ATOM      8  H   UNL     1       5.557   1.044  12.322  0.00  0.00    +0.000 HD
ENDBRANCH   6   7
BRANCH   6  10
ATOM      9  C   UNL     1       3.329   3.806  10.256  0.00  0.00    +0.000 C 
ATOM     10  C   UNL     1       3.891   2.819  10.971  0.00  0.00    +0.000 C 
ENDBRANCH   6  10
ENDBRANCH   4   6
ENDBRANCH   2   5
ENDBRANCH   1   3
BRANCH   1  11
ATOM     11  O   UNL     1       8.253   4.080  17.730  0.00  0.00    +0.000 OA
ATOM     12  H   UNL     1       8.528   4.357  18.617  0.00  0.00    +0.000 HD
ENDBRANCH   1  11
BRANCH   1  13
ATOM     13  C   UNL     1       7.174   6.193  17.680  0.00  0.00    +0.000 C 
ATOM     14  C   UNL     1       6.201   7.099  17.486  0.00  0.00    +0.000 C 
BRANCH  14  15
ATOM     15  C   UNL     1       4.824   6.699  17.062  0.00  0.00    +0.000 C 
BRANCH  15  16
ATOM     16  C   UNL     1       3.738   7.476  17.781  0.00  0.00    +0.000 C 
BRANCH  16  17
ATOM     17  C   UNL     1       2.970   6.522  18.687  0.00  0.00    +0.000 C 
BRANCH  17  18
ATOM     18  C   UNL     1       2.191   5.522  17.855  0.00  0.00    +0.000 C 
BRANCH  18  19
ATOM     19  C   UNL     1       2.062   4.200  18.596  0.00  0.00    +0.000 C 
BRANCH  19  20
ATOM     20  C   UNL     1       3.265   3.317  18.297  0.00  0.00    +0.000 C 
BRANCH  20  21
ATOM     21  C   UNL     1       4.090   3.078  19.552  0.00  0.00    +0.000 C 
BRANCH  21  22
ATOM     22  C   UNL     1       4.606   1.649  19.595  0.00  0.00    +0.000 C 
BRANCH  22  23
ATOM     23  O   UNL     1       4.137   0.935  18.461  0.00  0.00    +0.000 OA
ATOM     24  H   UNL     1       3.939   1.587  17.768  0.00  0.00    +0.000 HD
ENDBRANCH  22  23
ENDBRANCH  21  22
ENDBRANCH  20  21
ENDBRANCH  19  20
ENDBRANCH  18  19
ENDBRANCH  17  18
ENDBRANCH  16  17
ENDBRANCH  15  16
ENDBRANCH  14  15
ENDBRANCH   1  13
TORSDOF 16
ENDMDL
MODEL 4
REMARK VINA RESULT:      -6.2      3.548      6.694
REMARK  Name = 
REMARK  16 active torsions:
REMARK  status: ('A' for Active; 'I' for Inactive)
REMARK    1  A    between atoms: C_2  and  C_3
REMARK    2  A    between atoms: C_3  and  O_4
REMARK    3  A    between atoms: C_3  and  C_5
REMARK    4  A    between atoms: C_6  and  C_7
REMARK    5  A    between atoms: C_8  and  C_9
REMARK    6  A    between atoms: C_9  and  O_10
REMARK    7  A    between atoms: C_9  and  C_11
REMARK    8  A    between atoms: C_12  and  C_13
REMARK    9  A    between atoms: C_13  and  C_14
REMARK   10  A    between atoms: C_14  and  C_15
REMARK   11  A    between atoms: C_15  and  C_16
REMARK   12  A    between atoms: C_16  and  C_17
REMARK   13  A    between atoms: C_17  and  C_18
REMARK   14  A    between atoms: C_18  and  C_19
REMARK   15  A    between atoms: C_19  and  C_20
REMARK   16  A    between atoms: C_20  and  O_21
REMARK                            x       y       z     vdW  Elec       q    Type
REMARK                         _______ _______ _______ _____ _____    ______ ____
ROOT
ATOM      1  C   UNL     1       7.271   6.216  17.133  0.00  0.00    +0.000 C 
ENDROOT
BRANCH   1   3
ATOM      2  C   UNL     1       6.623   4.880  14.935  0.00  0.00    +0.000 C 
ATOM      3  C   UNL     1       6.937   5.507  15.912  0.00  0.00    +0.000 C 
BRANCH   2   5
ATOM      4  C   UNL     1       5.900   3.397  12.792  0.00  0.00    +0.000 C 
ATOM      5  C   UNL     1       6.210   3.999  13.780  0.00  0.00    +0.000 C 
BRANCH   4   6
ATOM      6  C   UNL     1       5.504   2.796  11.520  0.00  0.00    +0.000 C 
BRANCH   6   7
ATOM      7  O   UNL     1       5.786   1.405  11.558  0.00  0.00    +0.000 OA
ATOM      8  H   UNL     1       5.312   1.057  12.332  0.00  0.00    +0.000 HD
ENDBRANCH   6   7
BRANCH   6  10
ATOM      9  C   UNL     1       3.455   3.728  10.333  0.00  0.00    +0.000 C 
ATOM     10  C   UNL     1       4.032   3.044  11.333  0.00  0.00    +0.000 C 
ENDBRANCH   6  10
ENDBRANCH   4   6
ENDBRANCH   2   5
ENDBRANCH   1   3
BRANCH   1  11
ATOM     11  O   UNL     1       6.735   7.525  17.087  0.00  0.00    +0.000 OA
ATOM     12  H   UNL     1       7.248   8.008  16.420  0.00  0.00    +0.000 HD
ENDBRANCH   1  11
BRANCH   1  13
ATOM     13  C   UNL     1       6.665   5.486  18.299  0.00  0.00    +0.000 C 
ATOM     14  C   UNL     1       5.345   5.380  18.528  0.00  0.00    +0.000 C 
BRANCH  14  15
ATOM     15  C   UNL     1       4.334   5.982  17.606  0.00  0.00    +0.000 C 
BRANCH  15  16
ATOM     16  C   UNL     1       3.176   6.628  18.342  0.00  0.00    +0.000 C 
BRANCH  16  17
ATOM     17  C   UNL     1       2.076   5.592  18.533  0.00  0.00    +0.000 C 
BRANCH  17  18
ATOM     18  C   UNL     1       2.040   5.127  19.976  0.00  0.00    +0.000 C 
BRANCH  18  19
ATOM     19  C   UNL     1       1.010   4.022  20.153  0.00  0.00    +0.000 C 
BRANCH  19  20
ATOM     20  C   UNL     1       1.057   3.073  18.964  0.00  0.00    +0.000 C 
BRANCH  20  21
ATOM     21  C   UNL     1       2.113   1.997  19.167  0.00  0.00    +0.000 C 
BRANCH  21  22
ATOM     22  C   UNL     1       3.074   1.955  17.991  0.00  0.00    +0.000 C 
BRANCH  22  23
ATOM     23  O   UNL     1       4.407   2.106  18.455  0.00  0.00    +0.000 OA
ATOM     24  H   UNL     1       4.912   2.547  17.752  0.00  0.00    +0.000 HD
ENDBRANCH  22  23
ENDBRANCH  21  22
ENDBRANCH  20  21
ENDBRANCH  19  20
ENDBRANCH  18  19
ENDBRANCH  17  18
ENDBRANCH  16  17
ENDBRANCH  15  16
ENDBRANCH  14  15
ENDBRANCH   1  13
TORSDOF 16
ENDMDL
MODEL 5
REMARK VINA RESULT:      -6.0      1.486      1.804
REMARK  Name = 
REMARK  16 active torsions:
REMARK  status: ('A' for Active; 'I' for Inactive)
REMARK    1  A    between atoms: C_2  and  C_3
REMARK    2  A    between atoms: C_3  and  O_4
REMARK    3  A    between atoms: C_3  and  C_5
REMARK    4  A    between atoms: C_6  and  C_7
REMARK    5  A    between atoms: C_8  and  C_9
REMARK    6  A    between atoms: C_9  and  O_10
REMARK    7  A    between atoms: C_9  and  C_11
REMARK    8  A    between atoms: C_12  and  C_13
REMARK    9  A    between atoms: C_13  and  C_14
REMARK   10  A    between atoms: C_14  and  C_15
REMARK   11  A    between atoms: C_15  and  C_16
REMARK   12  A    between atoms: C_16  and  C_17
REMARK   13  A    between atoms: C_17  and  C_18
REMARK   14  A    between atoms: C_18  and  C_19
REMARK   15  A    between atoms: C_19  and  C_20
REMARK   16  A    between atoms: C_20  and  O_21
REMARK                            x       y       z     vdW  Elec       q    Type
REMARK                         _______ _______ _______ _____ _____    ______ ____
ROOT
ATOM      1  C   UNL     1       6.717   6.480  17.010  0.00  0.00    +0.000 C 
ENDROOT
BRANCH   1   3
ATOM      2  C   UNL     1       8.154   8.514  17.920  0.00  0.00    +0.000 C 
ATOM      3  C   UNL     1       7.525   7.589  17.480  0.00  0.00    +0.000 C 
BRANCH   2   5
ATOM      4  C   UNL     1       9.495  10.620  18.961  0.00  0.00    +0.000 C 
ATOM      5  C   UNL     1       8.844   9.715  18.524  0.00  0.00    +0.000 C 
BRANCH   4   6
ATOM      6  C   UNL     1      10.410  11.637  19.474  0.00  0.00    +0.000 C 
BRANCH   6   7
ATOM      7  O   UNL     1      10.960  12.358  18.383  0.00  0.00    +0.000 OA
ATOM      8  H   UNL     1      10.211  12.801  17.949  0.00  0.00    +0.000 HD
ENDBRANCH   6   7
BRANCH   6  10
ATOM      9  C   UNL     1       9.760  12.663  21.711  0.00  0.00    +0.000 C 
ATOM     10  C   UNL     1       9.625  12.546  20.381  0.00  0.00    +0.000 C 
ENDBRANCH   6  10
ENDBRANCH   4   6
ENDBRANCH   2   5
ENDBRANCH   1   3
BRANCH   1  11
ATOM     11  O   UNL     1       7.368   5.839  15.928  0.00  0.00    +0.000 OA
ATOM     12  H   UNL     1       6.804   5.092  15.674  0.00  0.00    +0.000 HD
ENDBRANCH   1  11
BRANCH   1  13
ATOM     13  C   UNL     1       6.553   5.490  18.130  0.00  0.00    +0.000 C 
ATOM     14  C   UNL     1       5.381   5.186  18.711  0.00  0.00    +0.000 C 
BRANCH  14  15
ATOM     15  C   UNL     1       4.096   5.810  18.270  0.00  0.00    +0.000 C 
BRANCH  15  16
ATOM     16  C   UNL     1       3.166   4.825  17.589  0.00  0.00    +0.000 C 
BRANCH  16  17
ATOM     17  C   UNL     1       3.807   3.444  17.616  0.00  0.00    +0.000 C 
BRANCH  17  18
ATOM     18  C   UNL     1       3.161   2.587  18.687  0.00  0.00    +0.000 C 
BRANCH  18  19
ATOM     19  C   UNL     1       1.767   2.158  18.256  0.00  0.00    +0.000 C 
BRANCH  19  20
ATOM     20  C   UNL     1       0.732   2.694  19.235  0.00  0.00    +0.000 C 
BRANCH  20  21
ATOM     21  C   UNL     1       1.398   3.466  20.363  0.00  0.00    +0.000 C 
BRANCH  21  22
ATOM     22  C   UNL     1       1.355   2.674  21.659  0.00  0.00    +0.000 C 
BRANCH  22  23
ATOM     23  O   UNL     1       2.674   2.483  22.148  0.00  0.00    +0.000 OA
ATOM     24  H   UNL     1       3.275   2.974  21.564  0.00  0.00    +0.000 HD
ENDBRANCH  22  23
ENDBRANCH  21  22
ENDBRANCH  20  21
ENDBRANCH  19  20
ENDBRANCH  18  19
ENDBRANCH  17  18
ENDBRANCH  16  17
ENDBRANCH  15  16
ENDBRANCH  14  15
ENDBRANCH   1  13
TORSDOF 16
ENDMDL
MODEL 6
REMARK VINA RESULT:      -6.0      3.909      6.815
REMARK  Name = 
REMARK  16 active torsions:
REMARK  status: ('A' for Active; 'I' for Inactive)
REMARK    1  A    between atoms: C_2  and  C_3
REMARK    2  A    between atoms: C_3  and  O_4
REMARK    3  A    between atoms: C_3  and  C_5
REMARK    4  A    between atoms: C_6  and  C_7
REMARK    5  A    between atoms: C_8  and  C_9
REMARK    6  A    between atoms: C_9  and  O_10
REMARK    7  A    between atoms: C_9  and  C_11
REMARK    8  A    between atoms: C_12  and  C_13
REMARK    9  A    between atoms: C_13  and  C_14
REMARK   10  A    between atoms: C_14  and  C_15
REMARK   11  A    between atoms: C_15  and  C_16
REMARK   12  A    between atoms: C_16  and  C_17
REMARK   13  A    between atoms: C_17  and  C_18
REMARK   14  A    between atoms: C_18  and  C_19
REMARK   15  A    between atoms: C_19  and  C_20
REMARK   16  A    between atoms: C_20  and  O_21
REMARK                            x       y       z     vdW  Elec       q    Type
REMARK                         _______ _______ _______ _____ _____    ______ ____
ROOT
ATOM      1  C   UNL     1       7.016   5.385  17.819  0.00  0.00    +0.000 C 
ENDROOT
BRANCH   1   3
ATOM      2  C   UNL     1       6.496   4.447  15.393  0.00  0.00    +0.000 C 
ATOM      3  C   UNL     1       6.760   4.889  16.480  0.00  0.00    +0.000 C 
BRANCH   2   5
ATOM      4  C   UNL     1       5.829   3.397  12.992  0.00  0.00    +0.000 C 
ATOM      5  C   UNL     1       6.108   3.803  14.083  0.00  0.00    +0.000 C 
BRANCH   4   6
ATOM      6  C   UNL     1       5.485   3.046  11.616  0.00  0.00    +0.000 C 
BRANCH   6   7
ATOM      7  O   UNL     1       5.730   1.662  11.416  0.00  0.00    +0.000 OA
ATOM      8  H   UNL     1       6.669   1.588  11.177  0.00  0.00    +0.000 HD
ENDBRANCH   6   7
BRANCH   6  10
ATOM      9  C   UNL     1       3.394   3.477  10.230  0.00  0.00    +0.000 C 
ATOM     10  C   UNL     1       4.031   3.373  11.407  0.00  0.00    +0.000 C 
ENDBRANCH   6  10
ENDBRANCH   4   6
ENDBRANCH   2   5
ENDBRANCH   1   3
BRANCH   1  11
ATOM     11  O   UNL     1       8.034   6.369  17.778  0.00  0.00    +0.000 OA
ATOM     12  H   UNL     1       8.783   5.967  17.311  0.00  0.00    +0.000 HD
ENDBRANCH   1  11
BRANCH   1  13
ATOM     13  C   UNL     1       5.758   6.014  18.352  0.00  0.00    +0.000 C 
ATOM     14  C   UNL     1       4.618   5.347  18.596  0.00  0.00    +0.000 C 
BRANCH  14  15
ATOM     15  C   UNL     1       4.503   3.873  18.370  0.00  0.00    +0.000 C 
BRANCH  15  16
ATOM     16  C   UNL     1       3.638   3.527  17.173  0.00  0.00    +0.000 C 
BRANCH  16  17
ATOM     17  C   UNL     1       2.536   2.577  17.622  0.00  0.00    +0.000 C 
BRANCH  17  18
ATOM     18  C   UNL     1       2.822   2.066  19.021  0.00  0.00    +0.000 C 
BRANCH  18  19
ATOM     19  C   UNL     1       1.687   2.434  19.964  0.00  0.00    +0.000 C 
BRANCH  19  20
ATOM     20  C   UNL     1       2.241   2.740  21.349  0.00  0.00    +0.000 C 
BRANCH  20  21
ATOM     21  C   UNL     1       2.412   4.237  21.548  0.00  0.00    +0.000 C 
BRANCH  21  22
ATOM     22  C   UNL     1       1.511   5.015  20.605  0.00  0.00    +0.000 C 
BRANCH  22  23
ATOM     23  O   UNL     1       1.938   6.367  20.538  0.00  0.00    +0.000 OA
ATOM     24  H   UNL     1       2.505   6.455  19.753  0.00  0.00    +0.000 HD
ENDBRANCH  22  23
ENDBRANCH  21  22
ENDBRANCH  20  21
ENDBRANCH  19  20
ENDBRANCH  18  19
ENDBRANCH  17  18
ENDBRANCH  16  17
ENDBRANCH  15  16
ENDBRANCH  14  15
ENDBRANCH   1  13
TORSDOF 16
ENDMDL
MODEL 7
REMARK VINA RESULT:      -6.0      4.263      6.759
REMARK  Name = 
REMARK  16 active torsions:
REMARK  status: ('A' for Active; 'I' for Inactive)
REMARK    1  A    between atoms: C_2  and  C_3
REMARK    2  A    between atoms: C_3  and  O_4
REMARK    3  A    between atoms: C_3  and  C_5
REMARK    4  A    between atoms: C_6  and  C_7
REMARK    5  A    between atoms: C_8  and  C_9
REMARK    6  A    between atoms: C_9  and  O_10
REMARK    7  A    between atoms: C_9  and  C_11
REMARK    8  A    between atoms: C_12  and  C_13
REMARK    9  A    between atoms: C_13  and  C_14
REMARK   10  A    between atoms: C_14  and  C_15
REMARK   11  A    between atoms: C_15  and  C_16
REMARK   12  A    between atoms: C_16  and  C_17
REMARK   13  A    between atoms: C_17  and  C_18
REMARK   14  A    between atoms: C_18  and  C_19
REMARK   15  A    between atoms: C_19  and  C_20
REMARK   16  A    between atoms: C_20  and  O_21
REMARK                            x       y       z     vdW  Elec       q    Type
REMARK                         _______ _______ _______ _____ _____    ______ ____
ROOT
ATOM      1  C   UNL     1       5.157   5.397  17.779  0.00  0.00    +0.000 C 
ENDROOT
BRANCH   1   3
ATOM      2  C   UNL     1       5.723   4.566  15.325  0.00  0.00    +0.000 C 
ATOM      3  C   UNL     1       5.495   4.963  16.436  0.00  0.00    +0.000 C 
BRANCH   2   5
ATOM      4  C   UNL     1       6.009   3.476  12.866  0.00  0.00    +0.000 C 
ATOM      5  C   UNL     1       5.949   3.968  13.956  0.00  0.00    +0.000 C 
BRANCH   4   6
ATOM      6  C   UNL     1       5.943   2.823  11.561  0.00  0.00    +0.000 C 
BRANCH   6   7
ATOM      7  O   UNL     1       5.854   1.419  11.750  0.00  0.00    +0.000 OA
ATOM      8  H   UNL     1       4.950   1.171  11.492  0.00  0.00    +0.000 HD
ENDBRANCH   6   7
BRANCH   6  10
ATOM      9  C   UNL     1       3.458   2.965  11.034  0.00  0.00    +0.000 C 
ATOM     10  C   UNL     1       4.729   3.349  10.843  0.00  0.00    +0.000 C 
ENDBRANCH   6  10
ENDBRANCH   4   6
ENDBRANCH   2   5
ENDBRANCH   1   3
BRANCH   1  11
ATOM     11  O   UNL     1       6.057   6.407  18.196  0.00  0.00    +0.000 OA
ATOM     12  H   UNL     1       6.067   6.381  19.165  0.00  0.00    +0.000 HD
ENDBRANCH   1  11
BRANCH   1  13
ATOM     13  C   UNL     1       3.765   5.964  17.769  0.00  0.00    +0.000 C 
ATOM     14  C   UNL     1       2.931   5.953  18.822  0.00  0.00    +0.000 C 
BRANCH  14  15
ATOM     15  C   UNL     1       3.333   5.374  20.140  0.00  0.00    +0.000 C 
BRANCH  15  16
ATOM     16  C   UNL     1       2.153   4.856  20.941  0.00  0.00    +0.000 C 
BRANCH  16  17
ATOM     17  C   UNL     1       1.012   4.538  19.984  0.00  0.00    +0.000 C 
BRANCH  17  18
ATOM     18  C   UNL     1       0.571   3.098  20.155  0.00  0.00    +0.000 C 
BRANCH  18  19
ATOM     19  C   UNL     1       1.571   2.154  19.506  0.00  0.00    +0.000 C 
BRANCH  19  20
ATOM     20  C   UNL     1       1.921   2.648  18.109  0.00  0.00    +0.000 C 
BRANCH  20  21
ATOM     21  C   UNL     1       3.356   2.294  17.750  0.00  0.00    +0.000 C 
BRANCH  21  22
ATOM     22  C   UNL     1       4.050   1.606  18.914  0.00  0.00    +0.000 C 
BRANCH  22  23
ATOM     23  O   UNL     1       4.965   2.503  19.524  0.00  0.00    +0.000 OA
ATOM     24  H   UNL     1       4.842   2.435  20.486  0.00  0.00    +0.000 HD
ENDBRANCH  22  23
ENDBRANCH  21  22
ENDBRANCH  20  21
ENDBRANCH  19  20
ENDBRANCH  18  19
ENDBRANCH  17  18
ENDBRANCH  16  17
ENDBRANCH  15  16
ENDBRANCH  14  15
ENDBRANCH   1  13
TORSDOF 16
ENDMDL
MODEL 8
REMARK VINA RESULT:      -6.0      3.859      7.059
REMARK  Name = 
REMARK  16 active torsions:
REMARK  status: ('A' for Active; 'I' for Inactive)
REMARK    1  A    between atoms: C_2  and  C_3
REMARK    2  A    between atoms: C_3  and  O_4
REMARK    3  A    between atoms: C_3  and  C_5
REMARK    4  A    between atoms: C_6  and  C_7
REMARK    5  A    between atoms: C_8  and  C_9
REMARK    6  A    between atoms: C_9  and  O_10
REMARK    7  A    between atoms: C_9  and  C_11
REMARK    8  A    between atoms: C_12  and  C_13
REMARK    9  A    between atoms: C_13  and  C_14
REMARK   10  A    between atoms: C_14  and  C_15
REMARK   11  A    between atoms: C_15  and  C_16
REMARK   12  A    between atoms: C_16  and  C_17
REMARK   13  A    between atoms: C_17  and  C_18
REMARK   14  A    between atoms: C_18  and  C_19
REMARK   15  A    between atoms: C_19  and  C_20
REMARK   16  A    between atoms: C_20  and  O_21
REMARK                            x       y       z     vdW  Elec       q    Type
REMARK                         _______ _______ _______ _____ _____    ______ ____
ROOT
ATOM      1  C   UNL     1       2.225   3.475  20.905  0.00  0.00    +0.000 C 
ENDROOT
BRANCH   1   3
ATOM      2  C   UNL     1       1.586   6.049  20.877  0.00  0.00    +0.000 C 
ATOM      3  C   UNL     1       1.846   4.876  20.907  0.00  0.00    +0.000 C 
BRANCH   2   5
ATOM      4  C   UNL     1       1.093   8.708  20.809  0.00  0.00    +0.000 C 
ATOM      5  C   UNL     1       1.377   7.544  20.833  0.00  0.00    +0.000 C 
BRANCH   4   6
ATOM      6  C   UNL     1       0.605  10.084  20.753  0.00  0.00    +0.000 C 
BRANCH   6   7
ATOM      7  O   UNL     1      -0.374  10.187  19.731  0.00  0.00    +0.000 OA
ATOM      8  H   UNL     1      -0.180  11.013  19.257  0.00  0.00    +0.000 HD
ENDBRANCH   6   7
BRANCH   6  10
ATOM      9  C   UNL     1      -0.213   9.562  23.106  0.00  0.00    +0.000 C 
ATOM     10  C   UNL     1       0.018  10.418  22.098  0.00  0.00    +0.000 C 
ENDBRANCH   6  10
ENDBRANCH   4   6
ENDBRANCH   2   5
ENDBRANCH   1   3
BRANCH   1  11
ATOM     11  O   UNL     1       2.428   3.033  22.234  0.00  0.00    +0.000 OA
ATOM     12  H   UNL     1       2.388   2.064  22.209  0.00  0.00    +0.000 HD
ENDBRANCH   1  11
BRANCH   1  13
ATOM     13  C   UNL     1       1.110   2.672  20.294  0.00  0.00    +0.000 C 
ATOM     14  C   UNL     1       0.871   2.582  18.975  0.00  0.00    +0.000 C 
BRANCH  14  15
ATOM     15  C   UNL     1       1.729   3.279  17.969  0.00  0.00    +0.000 C 
BRANCH  15  16
ATOM     16  C   UNL     1       2.984   2.501  17.625  0.00  0.00    +0.000 C 
BRANCH  16  17
ATOM     17  C   UNL     1       4.075   3.482  17.216  0.00  0.00    +0.000 C 
BRANCH  17  18
ATOM     18  C   UNL     1       4.613   4.205  18.435  0.00  0.00    +0.000 C 
BRANCH  18  19
ATOM     19  C   UNL     1       4.443   5.709  18.280  0.00  0.00    +0.000 C 
BRANCH  19  20
ATOM     20  C   UNL     1       4.904   6.143  16.895  0.00  0.00    +0.000 C 
BRANCH  20  21
ATOM     21  C   UNL     1       6.410   6.348  16.862  0.00  0.00    +0.000 C 
BRANCH  21  22
ATOM     22  C   UNL     1       7.076   5.317  15.966  0.00  0.00    +0.000 C 
BRANCH  22  23
ATOM     23  O   UNL     1       7.868   4.439  16.752  0.00  0.00    +0.000 OA
ATOM     24  H   UNL     1       8.725   4.874  16.900  0.00  0.00    +0.000 HD
ENDBRANCH  22  23
ENDBRANCH  21  22
ENDBRANCH  20  21
ENDBRANCH  19  20
ENDBRANCH  18  19
ENDBRANCH  17  18
ENDBRANCH  16  17
ENDBRANCH  15  16
ENDBRANCH  14  15
ENDBRANCH   1  13
TORSDOF 16
ENDMDL
MODEL 9
REMARK VINA RESULT:      -5.9      1.127      1.325
REMARK  Name = 
REMARK  16 active torsions:
REMARK  status: ('A' for Active; 'I' for Inactive)
REMARK    1  A    between atoms: C_2  and  C_3
REMARK    2  A    between atoms: C_3  and  O_4
REMARK    3  A    between atoms: C_3  and  C_5
REMARK    4  A    between atoms: C_6  and  C_7
REMARK    5  A    between atoms: C_8  and  C_9
REMARK    6  A    between atoms: C_9  and  O_10
REMARK    7  A    between atoms: C_9  and  C_11
REMARK    8  A    between atoms: C_12  and  C_13
REMARK    9  A    between atoms: C_13  and  C_14
REMARK   10  A    between atoms: C_14  and  C_15
REMARK   11  A    between atoms: C_15  and  C_16
REMARK   12  A    between atoms: C_16  and  C_17
REMARK   13  A    between atoms: C_17  and  C_18
REMARK   14  A    between atoms: C_18  and  C_19
REMARK   15  A    between atoms: C_19  and  C_20
REMARK   16  A    between atoms: C_20  and  O_21
REMARK                            x       y       z     vdW  Elec       q    Type
REMARK                         _______ _______ _______ _____ _____    ______ ____
ROOT
ATOM      1  C   UNL     1       6.801   5.868  17.413  0.00  0.00    +0.000 C 
ENDROOT
BRANCH   1   3
ATOM      2  C   UNL     1       7.995   8.198  17.828  0.00  0.00    +0.000 C 
ATOM      3  C   UNL     1       7.479   7.134  17.616  0.00  0.00    +0.000 C 
BRANCH   2   5
ATOM      4  C   UNL     1       9.055  10.614  18.427  0.00  0.00    +0.000 C 
ATOM      5  C   UNL     1       8.538   9.577  18.126  0.00  0.00    +0.000 C 
BRANCH   4   6
ATOM      6  C   UNL     1       9.759  11.804  18.900  0.00  0.00    +0.000 C 
BRANCH   6   7
ATOM      7  O   UNL     1       8.898  12.927  18.788  0.00  0.00    +0.000 OA
ATOM      8  H   UNL     1       8.699  13.018  17.841  0.00  0.00    +0.000 HD
ENDBRANCH   6   7
BRANCH   6  10
ATOM      9  C   UNL     1       9.567  12.090  21.422  0.00  0.00    +0.000 C 
ATOM     10  C   UNL     1      10.151  11.565  20.333  0.00  0.00    +0.000 C 
ENDBRANCH   6  10
ENDBRANCH   4   6
ENDBRANCH   2   5
ENDBRANCH   1   3
BRANCH   1  11
ATOM     11  O   UNL     1       7.630   4.995  16.669  0.00  0.00    +0.000 OA
ATOM     12  H   UNL     1       8.005   4.366  17.304  0.00  0.00    +0.000 HD
ENDBRANCH   1  11
BRANCH   1  13
ATOM     13  C   UNL     1       6.525   5.245  18.754  0.00  0.00    +0.000 C 
ATOM     14  C   UNL     1       5.298   4.977  19.230  0.00  0.00    +0.000 C 
BRANCH  14  15
ATOM     15  C   UNL     1       4.063   5.266  18.438  0.00  0.00    +0.000 C 
BRANCH  15  16
ATOM     16  C   UNL     1       3.462   6.621  18.757  0.00  0.00    +0.000 C 
BRANCH  16  17
ATOM     17  C   UNL     1       2.269   6.424  19.682  0.00  0.00    +0.000 C 
BRANCH  17  18
ATOM     18  C   UNL     1       2.365   5.083  20.383  0.00  0.00    +0.000 C 
BRANCH  18  19
ATOM     19  C   UNL     1       1.029   4.358  20.333  0.00  0.00    +0.000 C 
BRANCH  19  20
ATOM     20  C   UNL     1       1.238   2.867  20.553  0.00  0.00    +0.000 C 
BRANCH  20  21
ATOM     21  C   UNL     1       2.651   2.453  20.172  0.00  0.00    +0.000 C 
BRANCH  21  22
ATOM     22  C   UNL     1       2.675   1.821  18.791  0.00  0.00    +0.000 C 
BRANCH  22  23
ATOM     23  O   UNL     1       4.018   1.618  18.379  0.00  0.00    +0.000 OA
ATOM     24  H   UNL     1       4.244   0.691  18.570  0.00  0.00    +0.000 HD
ENDBRANCH  22  23
ENDBRANCH  21  22
ENDBRANCH  20  21
ENDBRANCH  19  20
ENDBRANCH  18  19
ENDBRANCH  17  18
ENDBRANCH  16  17
ENDBRANCH  15  16
ENDBRANCH  14  15
ENDBRANCH   1  13
TORSDOF 16
ENDMDL
