MODEL 1
REMARK VINA RESULT:      -8.1      0.000      0.000
REMARK  Name = 
REMARK  12 active torsions:
REMARK  status: ('A' for Active; 'I' for Inactive)
REMARK    1  A    between atoms: C_1  and  O_2
REMARK    2  A    between atoms: O_2  and  C_3
REMARK    3  A    between atoms: C_6  and  C_7
REMARK    4  A    between atoms: C_7  and  C_8
REMARK    5  A    between atoms: C_8  and  N_9
REMARK    6  A    between atoms: N_9  and  C_10
REMARK    7  A    between atoms: N_9  and  C_11
REMARK    8  A    between atoms: C_11  and  C_12
REMARK    9  A    between atoms: C_12  and  C_13
REMARK   10  A    between atoms: C_13  and  N_14
REMARK   11  A    between atoms: C_28  and  O_29
REMARK   12  A    between atoms: O_29  and  C_30
REMARK                            x       y       z     vdW  Elec       q    Type
REMARK                         _______ _______ _______ _____ _____    ______ ____
ROOT
ATOM      1  C   UNL     1       1.759   7.957  20.111  0.00  0.00    +0.000 C 
ENDROOT
BRANCH   1   2
ATOM      2  N   UNL     1       1.283   9.356  20.112  0.00  0.00    +0.000 NA
ATOM      3  C   UNL     1       0.247   9.483  21.146  0.00  0.00    +0.000 C 
BRANCH   2   4
ATOM      4  C   UNL     1       0.753   9.749  18.783  0.00  0.00    +0.000 C 
BRANCH   4   5
ATOM      5  C   UNL     1       0.129  11.162  18.725  0.00  0.00    +0.000 C 
BRANCH   5   9
ATOM      6  C   UNL     1      -4.101  11.131  17.760  0.00  0.00    +0.000 A 
ATOM      7  C   UNL     1      -3.630  11.747  18.928  0.00  0.00    +0.000 A 
ATOM      8  C   UNL     1      -2.272  11.755  19.252  0.00  0.00    +0.000 A 
ATOM      9  C   UNL     1      -1.351  11.123  18.418  0.00  0.00    +0.000 A 
ATOM     10  C   UNL     1      -1.830  10.420  17.306  0.00  0.00    +0.000 A 
ATOM     11  C   UNL     1      -3.204  10.411  16.959  0.00  0.00    +0.000 A 
BRANCH   6  13
ATOM     12  C   UNL     1      -5.868  12.509  17.024  0.00  0.00    +0.000 C 
ATOM     13  O   UNL     1      -5.415  11.210  17.399  0.00  0.00    +0.000 OA
ENDBRANCH   6  13
BRANCH  11  14
ATOM     14  O   UNL     1      -3.437   9.680  15.830  0.00  0.00    +0.000 OA
ATOM     15  C   UNL     1      -3.190  10.274  14.568  0.00  0.00    +0.000 C 
ENDBRANCH  11  14
ENDBRANCH   5   9
ENDBRANCH   4   5
ENDBRANCH   2   4
ENDBRANCH   1   2
BRANCH   1  16
ATOM     16  C   UNL     1       2.479   7.517  18.842  0.00  0.00    +0.000 C 
BRANCH  16  17
ATOM     17  C   UNL     1       3.388   6.287  19.022  0.00  0.00    +0.000 C 
BRANCH  17  18
ATOM     18  N   UNL     1       3.339   5.480  17.793  0.00  0.00    +0.000 N 
ATOM     19  C   UNL     1       4.425   5.341  16.947  0.00  0.00    +0.000 A 
ATOM     20  C   UNL     1       5.359   6.275  16.471  0.00  0.00    +0.000 A 
ATOM     21  C   UNL     1       6.429   5.797  15.706  0.00  0.00    +0.000 A 
ATOM     22  C   UNL     1       6.578   4.435  15.459  0.00  0.00    +0.000 A 
ATOM     23  C   UNL     1       5.675   3.508  15.991  0.00  0.00    +0.000 A 
ATOM     24  C   UNL     1       4.576   3.964  16.748  0.00  0.00    +0.000 A 
ATOM     25  C   UNL     1       3.526   3.317  17.478  0.00  0.00    +0.000 A 
ATOM     26  C   UNL     1       3.268   2.010  17.932  0.00  0.00    +0.000 A 
ATOM     27  C   UNL     1       2.072   1.752  18.617  0.00  0.00    +0.000 A 
ATOM     28  C   UNL     1       1.089   2.731  18.741  0.00  0.00    +0.000 A 
ATOM     29  C   UNL     1       1.330   4.039  18.317  0.00  0.00    +0.000 A 
ATOM     30  C   UNL     1       2.601   4.306  17.794  0.00  0.00    +0.000 A 
ENDBRANCH  17  18
ENDBRANCH  16  17
ENDBRANCH   1  16
TORSDOF 9
ENDMDL
MODEL 2
REMARK VINA RESULT:      -8.0      0.726      1.055
REMARK  Name = 
REMARK  12 active torsions:
REMARK  status: ('A' for Active; 'I' for Inactive)
REMARK    1  A    between atoms: C_1  and  O_2
REMARK    2  A    between atoms: O_2  and  C_3
REMARK    3  A    between atoms: C_6  and  C_7
REMARK    4  A    between atoms: C_7  and  C_8
REMARK    5  A    between atoms: C_8  and  N_9
REMARK    6  A    between atoms: N_9  and  C_10
REMARK    7  A    between atoms: N_9  and  C_11
REMARK    8  A    between atoms: C_11  and  C_12
REMARK    9  A    between atoms: C_12  and  C_13
REMARK   10  A    between atoms: C_13  and  N_14
REMARK   11  A    between atoms: C_28  and  O_29
REMARK   12  A    between atoms: O_29  and  C_30
REMARK                            x       y       z     vdW  Elec       q    Type
REMARK                         _______ _______ _______ _____ _____    ______ ____
ROOT
ATOM      1  C   UNL     1       2.522   8.548  17.646  0.00  0.00    +0.000 C 
ENDROOT
BRANCH   1   2
ATOM      2  N   UNL     1       1.704   9.778  17.680  0.00  0.00    +0.000 NA
ATOM      3  C   UNL     1       2.615  10.926  17.795  0.00  0.00    +0.000 C 
BRANCH   2   4
ATOM      4  C   UNL     1       0.739   9.756  18.808  0.00  0.00    +0.000 C 
BRANCH   4   5
ATOM      5  C   UNL     1       0.035  11.103  19.085  0.00  0.00    +0.000 C 
BRANCH   5   9
ATOM      6  C   UNL     1      -4.084  11.159  17.721  0.00  0.00    +0.000 A 
ATOM      7  C   UNL     1      -3.703  11.817  18.899  0.00  0.00    +0.000 A 
ATOM      8  C   UNL     1      -2.383  11.797  19.351  0.00  0.00    +0.000 A 
ATOM      9  C   UNL     1      -1.411  11.096  18.639  0.00  0.00    +0.000 A 
ATOM     10  C   UNL     1      -1.808  10.354  17.521  0.00  0.00    +0.000 A 
ATOM     11  C   UNL     1      -3.142  10.372  17.044  0.00  0.00    +0.000 A 
BRANCH   6  13
ATOM     12  C   UNL     1      -5.857  12.591  17.114  0.00  0.00    +0.000 C 
ATOM     13  O   UNL     1      -5.354  11.263  17.232  0.00  0.00    +0.000 OA
ENDBRANCH   6  13
BRANCH  11  14
ATOM     14  O   UNL     1      -3.294   9.594  15.932  0.00  0.00    +0.000 OA
ATOM     15  C   UNL     1      -3.030  10.159  14.661  0.00  0.00    +0.000 C 
ENDBRANCH  11  14
ENDBRANCH   5   9
ENDBRANCH   4   5
ENDBRANCH   2   4
ENDBRANCH   1   2
BRANCH   1  16
ATOM     16  C   UNL     1       2.234   7.545  18.757  0.00  0.00    +0.000 C 
BRANCH  16  17
ATOM     17  C   UNL     1       3.315   6.462  18.931  0.00  0.00    +0.000 C 
BRANCH  17  18
ATOM     18  N   UNL     1       3.359   5.640  17.712  0.00  0.00    +0.000 N 
ATOM     19  C   UNL     1       4.492   5.529  16.927  0.00  0.00    +0.000 A 
ATOM     20  C   UNL     1       5.417   6.490  16.488  0.00  0.00    +0.000 A 
ATOM     21  C   UNL     1       6.542   6.042  15.787  0.00  0.00    +0.000 A 
ATOM     22  C   UNL     1       6.751   4.683  15.566  0.00  0.00    +0.000 A 
ATOM     23  C   UNL     1       5.854   3.731  16.062  0.00  0.00    +0.000 A 
ATOM     24  C   UNL     1       4.702   4.156  16.755  0.00  0.00    +0.000 A 
ATOM     25  C   UNL     1       3.637   3.481  17.437  0.00  0.00    +0.000 A 
ATOM     26  C   UNL     1       3.401   2.172  17.894  0.00  0.00    +0.000 A 
ATOM     27  C   UNL     1       2.180   1.879  18.519  0.00  0.00    +0.000 A 
ATOM     28  C   UNL     1       1.159   2.824  18.578  0.00  0.00    +0.000 A 
ATOM     29  C   UNL     1       1.376   4.134  18.150  0.00  0.00    +0.000 A 
ATOM     30  C   UNL     1       2.663   4.440  17.691  0.00  0.00    +0.000 A 
ENDBRANCH  17  18
ENDBRANCH  16  17
ENDBRANCH   1  16
TORSDOF 9
ENDMDL
MODEL 3
REMARK VINA RESULT:      -7.6      1.221      1.260
REMARK  Name = 
REMARK  12 active torsions:
REMARK  status: ('A' for Active; 'I' for Inactive)
REMARK    1  A    between atoms: C_1  and  O_2
REMARK    2  A    between atoms: O_2  and  C_3
REMARK    3  A    between atoms: C_6  and  C_7
REMARK    4  A    between atoms: C_7  and  C_8
REMARK    5  A    between atoms: C_8  and  N_9
REMARK    6  A    between atoms: N_9  and  C_10
REMARK    7  A    between atoms: N_9  and  C_11
REMARK    8  A    between atoms: C_11  and  C_12
REMARK    9  A    between atoms: C_12  and  C_13
REMARK   10  A    between atoms: C_13  and  N_14
REMARK   11  A    between atoms: C_28  and  O_29
REMARK   12  A    between atoms: O_29  and  C_30
REMARK                            x       y       z     vdW  Elec       q    Type
REMARK                         _______ _______ _______ _____ _____    ______ ____
ROOT
ATOM      1  C   UNL     1       1.561   7.692  20.354  0.00  0.00    +0.000 C 
ENDROOT
BRANCH   1   2
ATOM      2  N   UNL     1       1.018   9.063  20.457  0.00  0.00    +0.000 NA
ATOM      3  C   UNL     1      -0.150   9.023  21.347  0.00  0.00    +0.000 C 
BRANCH   2   4
ATOM      4  C   UNL     1       0.648   9.600  19.124  0.00  0.00    +0.000 C 
BRANCH   4   5
ATOM      5  C   UNL     1       0.113  11.050  19.135  0.00  0.00    +0.000 C 
BRANCH   5   9
ATOM      6  C   UNL     1      -4.014  11.350  17.830  0.00  0.00    +0.000 A 
ATOM      7  C   UNL     1      -3.573  12.002  18.991  0.00  0.00    +0.000 A 
ATOM      8  C   UNL     1      -2.250  11.904  19.423  0.00  0.00    +0.000 A 
ATOM      9  C   UNL     1      -1.337  11.129  18.710  0.00  0.00    +0.000 A 
ATOM     10  C   UNL     1      -1.799  10.396  17.611  0.00  0.00    +0.000 A 
ATOM     11  C   UNL     1      -3.137  10.492  17.154  0.00  0.00    +0.000 A 
BRANCH   6  13
ATOM     12  C   UNL     1      -6.323  11.056  18.212  0.00  0.00    +0.000 C 
ATOM     13  O   UNL     1      -5.283  11.527  17.359  0.00  0.00    +0.000 OA
ENDBRANCH   6  13
BRANCH  11  14
ATOM     14  O   UNL     1      -3.356   9.707  16.059  0.00  0.00    +0.000 OA
ATOM     15  C   UNL     1      -2.844  10.121  14.806  0.00  0.00    +0.000 C 
ENDBRANCH  11  14
ENDBRANCH   5   9
ENDBRANCH   4   5
ENDBRANCH   2   4
ENDBRANCH   1   2
BRANCH   1  16
ATOM     16  C   UNL     1       2.645   7.500  19.300  0.00  0.00    +0.000 C 
BRANCH  16  17
ATOM     17  C   UNL     1       2.158   6.830  18.002  0.00  0.00    +0.000 C 
BRANCH  17  18
ATOM     18  N   UNL     1       3.048   5.700  17.691  0.00  0.00    +0.000 N 
ATOM     19  C   UNL     1       4.425   5.819  17.668  0.00  0.00    +0.000 A 
ATOM     20  C   UNL     1       5.264   6.815  17.141  0.00  0.00    +0.000 A 
ATOM     21  C   UNL     1       6.638   6.705  17.379  0.00  0.00    +0.000 A 
ATOM     22  C   UNL     1       7.149   5.660  18.145  0.00  0.00    +0.000 A 
ATOM     23  C   UNL     1       6.297   4.708  18.716  0.00  0.00    +0.000 A 
ATOM     24  C   UNL     1       4.909   4.784  18.475  0.00  0.00    +0.000 A 
ATOM     25  C   UNL     1       3.771   4.046  18.938  0.00  0.00    +0.000 A 
ATOM     26  C   UNL     1       3.519   3.115  19.962  0.00  0.00    +0.000 A 
ATOM     27  C   UNL     1       2.231   2.575  20.089  0.00  0.00    +0.000 A 
ATOM     28  C   UNL     1       1.243   2.847  19.147  0.00  0.00    +0.000 A 
ATOM     29  C   UNL     1       1.461   3.782  18.135  0.00  0.00    +0.000 A 
ATOM     30  C   UNL     1       2.700   4.434  18.140  0.00  0.00    +0.000 A 
ENDBRANCH  17  18
ENDBRANCH  16  17
ENDBRANCH   1  16
TORSDOF 9
ENDMDL
MODEL 4
REMARK VINA RESULT:      -7.6      1.016      3.097
REMARK  Name = 
REMARK  12 active torsions:
REMARK  status: ('A' for Active; 'I' for Inactive)
REMARK    1  A    between atoms: C_1  and  O_2
REMARK    2  A    between atoms: O_2  and  C_3
REMARK    3  A    between atoms: C_6  and  C_7
REMARK    4  A    between atoms: C_7  and  C_8
REMARK    5  A    between atoms: C_8  and  N_9
REMARK    6  A    between atoms: N_9  and  C_10
REMARK    7  A    between atoms: N_9  and  C_11
REMARK    8  A    between atoms: C_11  and  C_12
REMARK    9  A    between atoms: C_12  and  C_13
REMARK   10  A    between atoms: C_13  and  N_14
REMARK   11  A    between atoms: C_28  and  O_29
REMARK   12  A    between atoms: O_29  and  C_30
REMARK                            x       y       z     vdW  Elec       q    Type
REMARK                         _______ _______ _______ _____ _____    ______ ____
ROOT
ATOM      1  C   UNL     1       2.045   8.398  17.794  0.00  0.00    +0.000 C 
ENDROOT
BRANCH   1   2
ATOM      2  N   UNL     1       1.816   9.354  18.896  0.00  0.00    +0.000 NA
ATOM      3  C   UNL     1       1.131   8.641  19.982  0.00  0.00    +0.000 C 
BRANCH   2   4
ATOM      4  C   UNL     1       1.017  10.521  18.445  0.00  0.00    +0.000 C 
BRANCH   4   5
ATOM      5  C   UNL     1       0.017  11.066  19.489  0.00  0.00    +0.000 C 
BRANCH   5   9
ATOM      6  C   UNL     1      -3.987  11.368  17.847  0.00  0.00    +0.000 A 
ATOM      7  C   UNL     1      -3.637  12.038  19.028  0.00  0.00    +0.000 A 
ATOM      8  C   UNL     1      -2.354  11.940  19.568  0.00  0.00    +0.000 A 
ATOM      9  C   UNL     1      -1.392  11.147  18.946  0.00  0.00    +0.000 A 
ATOM     10  C   UNL     1      -1.769  10.396  17.826  0.00  0.00    +0.000 A 
ATOM     11  C   UNL     1      -3.064  10.492  17.259  0.00  0.00    +0.000 A 
BRANCH   6  13
ATOM     12  C   UNL     1      -6.326  11.164  18.074  0.00  0.00    +0.000 C 
ATOM     13  O   UNL     1      -5.212  11.544  17.270  0.00  0.00    +0.000 OA
ENDBRANCH   6  13
BRANCH  11  14
ATOM     14  O   UNL     1      -3.199   9.688  16.165  0.00  0.00    +0.000 OA
ATOM     15  C   UNL     1      -2.960  10.235  14.881  0.00  0.00    +0.000 C 
ENDBRANCH  11  14
ENDBRANCH   5   9
ENDBRANCH   4   5
ENDBRANCH   2   4
ENDBRANCH   1   2
BRANCH   1  16
ATOM     16  C   UNL     1       2.327   6.964  18.226  0.00  0.00    +0.000 C 
BRANCH  16  17
ATOM     17  C   UNL     1       3.705   6.758  18.883  0.00  0.00    +0.000 C 
BRANCH  17  18
ATOM     18  N   UNL     1       3.977   5.315  18.967  0.00  0.00    +0.000 N 
ATOM     19  C   UNL     1       2.973   4.372  19.093  0.00  0.00    +0.000 A 
ATOM     20  C   UNL     1       1.814   4.348  19.885  0.00  0.00    +0.000 A 
ATOM     21  C   UNL     1       0.920   3.286  19.703  0.00  0.00    +0.000 A 
ATOM     22  C   UNL     1       1.160   2.307  18.742  0.00  0.00    +0.000 A 
ATOM     23  C   UNL     1       2.288   2.376  17.916  0.00  0.00    +0.000 A 
ATOM     24  C   UNL     1       3.215   3.424  18.092  0.00  0.00    +0.000 A 
ATOM     25  C   UNL     1       4.405   3.833  17.407  0.00  0.00    +0.000 A 
ATOM     26  C   UNL     1       5.021   3.525  16.180  0.00  0.00    +0.000 A 
ATOM     27  C   UNL     1       6.242   4.135  15.858  0.00  0.00    +0.000 A 
ATOM     28  C   UNL     1       6.910   4.935  16.782  0.00  0.00    +0.000 A 
ATOM     29  C   UNL     1       6.311   5.272  17.997  0.00  0.00    +0.000 A 
ATOM     30  C   UNL     1       5.016   4.787  18.214  0.00  0.00    +0.000 A 
ENDBRANCH  17  18
ENDBRANCH  16  17
ENDBRANCH   1  16
TORSDOF 9
ENDMDL
MODEL 5
REMARK VINA RESULT:      -7.5      3.234      4.008
REMARK  Name = 
REMARK  12 active torsions:
REMARK  status: ('A' for Active; 'I' for Inactive)
REMARK    1  A    between atoms: C_1  and  O_2
REMARK    2  A    between atoms: O_2  and  C_3
REMARK    3  A    between atoms: C_6  and  C_7
REMARK    4  A    between atoms: C_7  and  C_8
REMARK    5  A    between atoms: C_8  and  N_9
REMARK    6  A    between atoms: N_9  and  C_10
REMARK    7  A    between atoms: N_9  and  C_11
REMARK    8  A    between atoms: C_11  and  C_12
REMARK    9  A    between atoms: C_12  and  C_13
REMARK   10  A    between atoms: C_13  and  N_14
REMARK   11  A    between atoms: C_28  and  O_29
REMARK   12  A    between atoms: O_29  and  C_30
REMARK                            x       y       z     vdW  Elec       q    Type
REMARK                         _______ _______ _______ _____ _____    ______ ____
ROOT
ATOM      1  C   UNL     1       1.013   7.589  20.914  0.00  0.00    +0.000 C 
ENDROOT
BRANCH   1   2
ATOM      2  N   UNL     1       0.280   8.871  20.970  0.00  0.00    +0.000 NA
ATOM      3  C   UNL     1       0.665   9.666  19.796  0.00  0.00    +0.000 C 
BRANCH   2   4
ATOM      4  C   UNL     1       0.573   9.608  22.225  0.00  0.00    +0.000 C 
BRANCH   4   5
ATOM      5  C   UNL     1      -0.668   9.953  23.079  0.00  0.00    +0.000 C 
BRANCH   5   9
ATOM      6  C   UNL     1      -2.170  13.941  22.265  0.00  0.00    +0.000 A 
ATOM      7  C   UNL     1      -0.895  13.547  21.835  0.00  0.00    +0.000 A 
ATOM      8  C   UNL     1      -0.400  12.269  22.099  0.00  0.00    +0.000 A 
ATOM      9  C   UNL     1      -1.166  11.358  22.824  0.00  0.00    +0.000 A 
ATOM     10  C   UNL     1      -2.395  11.784  23.343  0.00  0.00    +0.000 A 
ATOM     11  C   UNL     1      -2.916  13.074  23.074  0.00  0.00    +0.000 A 
BRANCH   6  13
ATOM     12  C   UNL     1      -2.132  15.748  20.749  0.00  0.00    +0.000 C 
ATOM     13  O   UNL     1      -2.688  15.156  21.921  0.00  0.00    +0.000 OA
ENDBRANCH   6  13
BRANCH  11  14
ATOM     14  O   UNL     1      -4.133  13.261  23.663  0.00  0.00    +0.000 OA
ATOM     15  C   UNL     1      -4.523  12.399  24.717  0.00  0.00    +0.000 C 
ENDBRANCH  11  14
ENDBRANCH   5   9
ENDBRANCH   4   5
ENDBRANCH   2   4
ENDBRANCH   1   2
BRANCH   1  16
ATOM     16  C   UNL     1       2.091   7.504  19.841  0.00  0.00    +0.000 C 
BRANCH  16  17
ATOM     17  C   UNL     1       2.858   6.168  19.816  0.00  0.00    +0.000 C 
BRANCH  17  18
ATOM     18  N   UNL     1       2.730   5.575  18.476  0.00  0.00    +0.000 N 
ATOM     19  C   UNL     1       3.707   5.706  17.505  0.00  0.00    +0.000 A 
ATOM     20  C   UNL     1       4.477   6.810  17.104  0.00  0.00    +0.000 A 
ATOM     21  C   UNL     1       5.482   6.594  16.154  0.00  0.00    +0.000 A 
ATOM     22  C   UNL     1       5.729   5.318  15.652  0.00  0.00    +0.000 A 
ATOM     23  C   UNL     1       4.996   4.217  16.106  0.00  0.00    +0.000 A 
ATOM     24  C   UNL     1       3.964   4.408  17.049  0.00  0.00    +0.000 A 
ATOM     25  C   UNL     1       3.084   3.531  17.762  0.00  0.00    +0.000 A 
ATOM     26  C   UNL     1       3.013   2.146  18.002  0.00  0.00    +0.000 A 
ATOM     27  C   UNL     1       1.946   1.639  18.757  0.00  0.00    +0.000 A 
ATOM     28  C   UNL     1       0.897   2.462  19.160  0.00  0.00    +0.000 A 
ATOM     29  C   UNL     1       0.953   3.841  18.952  0.00  0.00    +0.000 A 
ATOM     30  C   UNL     1       2.115   4.338  18.349  0.00  0.00    +0.000 A 
ENDBRANCH  17  18
ENDBRANCH  16  17
ENDBRANCH   1  16
TORSDOF 9
ENDMDL
MODEL 6
REMARK VINA RESULT:      -7.4      1.272      2.196
REMARK  Name = 
REMARK  12 active torsions:
REMARK  status: ('A' for Active; 'I' for Inactive)
REMARK    1  A    between atoms: C_1  and  O_2
REMARK    2  A    between atoms: O_2  and  C_3
REMARK    3  A    between atoms: C_6  and  C_7
REMARK    4  A    between atoms: C_7  and  C_8
REMARK    5  A    between atoms: C_8  and  N_9
REMARK    6  A    between atoms: N_9  and  C_10
REMARK    7  A    between atoms: N_9  and  C_11
REMARK    8  A    between atoms: C_11  and  C_12
REMARK    9  A    between atoms: C_12  and  C_13
REMARK   10  A    between atoms: C_13  and  N_14
REMARK   11  A    between atoms: C_28  and  O_29
REMARK   12  A    between atoms: O_29  and  C_30
REMARK                            x       y       z     vdW  Elec       q    Type
REMARK                         _______ _______ _______ _____ _____    ______ ____
ROOT
ATOM      1  C   UNL     1       1.805   8.364  20.134  0.00  0.00    +0.000 C 
ENDROOT
BRANCH   1   2
ATOM      2  N   UNL     1       0.960   8.939  19.068  0.00  0.00    +0.000 NA
ATOM      3  C   UNL     1       1.845   9.518  18.048  0.00  0.00    +0.000 C 
BRANCH   2   4
ATOM      4  C   UNL     1       0.033   9.966  19.607  0.00  0.00    +0.000 C 
BRANCH   4   5
ATOM      5  C   UNL     1      -0.398  11.048  18.591  0.00  0.00    +0.000 C 
BRANCH   5   9
ATOM      6  C   UNL     1      -4.723  11.270  18.320  0.00  0.00    +0.000 A 
ATOM      7  C   UNL     1      -3.986  10.435  17.468  0.00  0.00    +0.000 A 
ATOM      8  C   UNL     1      -2.595  10.363  17.542  0.00  0.00    +0.000 A 
ATOM      9  C   UNL     1      -1.902  11.147  18.462  0.00  0.00    +0.000 A 
ATOM     10  C   UNL     1      -2.625  12.056  19.243  0.00  0.00    +0.000 A 
ATOM     11  C   UNL     1      -4.040  12.134  19.187  0.00  0.00    +0.000 A 
BRANCH   6  13
ATOM     12  C   UNL     1      -6.697  12.264  17.497  0.00  0.00    +0.000 C 
ATOM     13  O   UNL     1      -6.088  11.264  18.311  0.00  0.00    +0.000 OA
ENDBRANCH   6  13
BRANCH  11  14
ATOM     14  O   UNL     1      -4.530  13.074  20.047  0.00  0.00    +0.000 OA
ATOM     15  C   UNL     1      -4.997  12.660  21.319  0.00  0.00    +0.000 C 
ENDBRANCH  11  14
ENDBRANCH   5   9
ENDBRANCH   4   5
ENDBRANCH   2   4
ENDBRANCH   1   2
BRANCH   1  16
ATOM     16  C   UNL     1       1.662   6.860  20.336  0.00  0.00    +0.000 C 
BRANCH  16  17
ATOM     17  C   UNL     1       2.916   6.047  19.967  0.00  0.00    +0.000 C 
BRANCH  17  18
ATOM     18  N   UNL     1       2.753   5.519  18.603  0.00  0.00    +0.000 N 
ATOM     19  C   UNL     1       3.693   5.716  17.608  0.00  0.00    +0.000 A 
ATOM     20  C   UNL     1       4.431   6.851  17.237  0.00  0.00    +0.000 A 
ATOM     21  C   UNL     1       5.405   6.701  16.244  0.00  0.00    +0.000 A 
ATOM     22  C   UNL     1       5.656   5.457  15.671  0.00  0.00    +0.000 A 
ATOM     23  C   UNL     1       4.957   4.321  16.093  0.00  0.00    +0.000 A 
ATOM     24  C   UNL     1       3.955   4.447  17.079  0.00  0.00    +0.000 A 
ATOM     25  C   UNL     1       3.114   3.520  17.776  0.00  0.00    +0.000 A 
ATOM     26  C   UNL     1       3.074   2.124  17.948  0.00  0.00    +0.000 A 
ATOM     27  C   UNL     1       2.042   1.561  18.712  0.00  0.00    +0.000 A 
ATOM     28  C   UNL     1       0.995   2.343  19.190  0.00  0.00    +0.000 A 
ATOM     29  C   UNL     1       1.021   3.732  19.051  0.00  0.00    +0.000 A 
ATOM     30  C   UNL     1       2.154   4.279  18.435  0.00  0.00    +0.000 A 
ENDBRANCH  17  18
ENDBRANCH  16  17
ENDBRANCH   1  16
TORSDOF 9
ENDMDL
MODEL 7
REMARK VINA RESULT:      -7.4      1.386      1.916
REMARK  Name = 
REMARK  12 active torsions:
REMARK  status: ('A' for Active; 'I' for Inactive)
REMARK    1  A    between atoms: C_1  and  O_2
REMARK    2  A    between atoms: O_2  and  C_3
REMARK    3  A    between atoms: C_6  and  C_7
REMARK    4  A    between atoms: C_7  and  C_8
REMARK    5  A    between atoms: C_8  and  N_9
REMARK    6  A    between atoms: N_9  and  C_10
REMARK    7  A    between atoms: N_9  and  C_11
REMARK    8  A    between atoms: C_11  and  C_12
REMARK    9  A    between atoms: C_12  and  C_13
REMARK   10  A    between atoms: C_13  and  N_14
REMARK   11  A    between atoms: C_28  and  O_29
REMARK   12  A    between atoms: O_29  and  C_30
REMARK                            x       y       z     vdW  Elec       q    Type
REMARK                         _______ _______ _______ _____ _____    ______ ____
ROOT
ATOM      1  C   UNL     1       2.729   8.637  17.878  0.00  0.00    +0.000 C 
ENDROOT
BRANCH   1   2
ATOM      2  N   UNL     1       1.736   9.709  17.660  0.00  0.00    +0.000 NA
ATOM      3  C   UNL     1       2.394  10.998  17.917  0.00  0.00    +0.000 C 
BRANCH   2   4
ATOM      4  C   UNL     1       0.552   9.537  18.539  0.00  0.00    +0.000 C 
BRANCH   4   5
ATOM      5  C   UNL     1       0.503  10.490  19.755  0.00  0.00    +0.000 C 
BRANCH   5   9
ATOM      6  C   UNL     1      -3.289  12.576  20.058  0.00  0.00    +0.000 A 
ATOM      7  C   UNL     1      -2.402  12.527  21.142  0.00  0.00    +0.000 A 
ATOM      8  C   UNL     1      -1.183  11.851  21.057  0.00  0.00    +0.000 A 
ATOM      9  C   UNL     1      -0.833  11.187  19.884  0.00  0.00    +0.000 A 
ATOM     10  C   UNL     1      -1.761  11.147  18.837  0.00  0.00    +0.000 A 
ATOM     11  C   UNL     1      -2.997  11.837  18.904  0.00  0.00    +0.000 A 
BRANCH   6  13
ATOM     12  C   UNL     1      -4.416  14.399  21.043  0.00  0.00    +0.000 C 
ATOM     13  O   UNL     1      -4.433  13.319  20.113  0.00  0.00    +0.000 OA
ENDBRANCH   6  13
BRANCH  11  14
ATOM     14  O   UNL     1      -3.730  11.675  17.764  0.00  0.00    +0.000 OA
ATOM     15  C   UNL     1      -3.181  10.920  16.699  0.00  0.00    +0.000 C 
ENDBRANCH  11  14
ENDBRANCH   5   9
ENDBRANCH   4   5
ENDBRANCH   2   4
ENDBRANCH   1   2
BRANCH   1  16
ATOM     16  C   UNL     1       2.247   7.467  18.726  0.00  0.00    +0.000 C 
BRANCH  16  17
ATOM     17  C   UNL     1       3.289   6.349  18.918  0.00  0.00    +0.000 C 
BRANCH  17  18
ATOM     18  N   UNL     1       3.297   5.499  17.717  0.00  0.00    +0.000 N 
ATOM     19  C   UNL     1       4.402   5.378  16.895  0.00  0.00    +0.000 A 
ATOM     20  C   UNL     1       5.304   6.335  16.402  0.00  0.00    +0.000 A 
ATOM     21  C   UNL     1       6.406   5.878  15.672  0.00  0.00    +0.000 A 
ATOM     22  C   UNL     1       6.618   4.515  15.474  0.00  0.00    +0.000 A 
ATOM     23  C   UNL     1       5.746   3.569  16.024  0.00  0.00    +0.000 A 
ATOM     24  C   UNL     1       4.615   4.002  16.747  0.00  0.00    +0.000 A 
ATOM     25  C   UNL     1       3.581   3.336  17.482  0.00  0.00    +0.000 A 
ATOM     26  C   UNL     1       3.370   2.036  17.978  0.00  0.00    +0.000 A 
ATOM     27  C   UNL     1       2.175   1.750  18.652  0.00  0.00    +0.000 A 
ATOM     28  C   UNL     1       1.149   2.689  18.725  0.00  0.00    +0.000 A 
ATOM     29  C   UNL     1       1.341   3.991  18.260  0.00  0.00    +0.000 A 
ATOM     30  C   UNL     1       2.609   4.295  17.749  0.00  0.00    +0.000 A 
ENDBRANCH  17  18
ENDBRANCH  16  17
ENDBRANCH   1  16
TORSDOF 9
ENDMDL
MODEL 8
REMARK VINA RESULT:      -7.4      1.961      3.991
REMARK  Name = 
REMARK  12 active torsions:
REMARK  status: ('A' for Active; 'I' for Inactive)
REMARK    1  A    between atoms: C_1  and  O_2
REMARK    2  A    between atoms: O_2  and  C_3
REMARK    3  A    between atoms: C_6  and  C_7
REMARK    4  A    between atoms: C_7  and  C_8
REMARK    5  A    between atoms: C_8  and  N_9
REMARK    6  A    between atoms: N_9  and  C_10
REMARK    7  A    between atoms: N_9  and  C_11
REMARK    8  A    between atoms: C_11  and  C_12
REMARK    9  A    between atoms: C_12  and  C_13
REMARK   10  A    between atoms: C_13  and  N_14
REMARK   11  A    between atoms: C_28  and  O_29
REMARK   12  A    between atoms: O_29  and  C_30
REMARK                            x       y       z     vdW  Elec       q    Type
REMARK                         _______ _______ _______ _____ _____    ______ ____
ROOT
ATOM      1  C   UNL     1       1.276   9.264  19.130  0.00  0.00    +0.000 C 
ENDROOT
BRANCH   1   2
ATOM      2  N   UNL     1       0.532  10.437  18.626  0.00  0.00    +0.000 NA
ATOM      3  C   UNL     1       0.747  11.549  19.562  0.00  0.00    +0.000 C 
BRANCH   2   4
ATOM      4  C   UNL     1      -0.915  10.140  18.483  0.00  0.00    +0.000 C 
BRANCH   4   5
ATOM      5  C   UNL     1      -1.713  11.182  17.667  0.00  0.00    +0.000 C 
BRANCH   5   9
ATOM      6  C   UNL     1      -5.569  11.945  19.506  0.00  0.00    +0.000 A 
ATOM      7  C   UNL     1      -5.467  11.203  18.320  0.00  0.00    +0.000 A 
ATOM      8  C   UNL     1      -4.232  10.960  17.717  0.00  0.00    +0.000 A 
ATOM      9  C   UNL     1      -3.066  11.475  18.279  0.00  0.00    +0.000 A 
ATOM     10  C   UNL     1      -3.175  12.301  19.404  0.00  0.00    +0.000 A 
ATOM     11  C   UNL     1      -4.420  12.549  20.034  0.00  0.00    +0.000 A 
BRANCH   6  13
ATOM     12  C   UNL     1      -7.462  10.887  20.434  0.00  0.00    +0.000 C 
ATOM     13  O   UNL     1      -6.766  12.097  20.144  0.00  0.00    +0.000 OA
ENDBRANCH   6  13
BRANCH  11  14
ATOM     14  O   UNL     1      -4.284  13.363  21.121  0.00  0.00    +0.000 OA
ATOM     15  C   UNL     1      -4.145  12.776  22.403  0.00  0.00    +0.000 C 
ENDBRANCH  11  14
ENDBRANCH   5   9
ENDBRANCH   4   5
ENDBRANCH   2   4
ENDBRANCH   1   2
BRANCH   1  16
ATOM     16  C   UNL     1       2.272   8.656  18.150  0.00  0.00    +0.000 C 
BRANCH  16  17
ATOM     17  C   UNL     1       2.021   7.171  17.829  0.00  0.00    +0.000 C 
BRANCH  17  18
ATOM     18  N   UNL     1       3.096   6.369  18.432  0.00  0.00    +0.000 N 
ATOM     19  C   UNL     1       2.858   5.397  19.386  0.00  0.00    +0.000 A 
ATOM     20  C   UNL     1       2.018   5.385  20.512  0.00  0.00    +0.000 A 
ATOM     21  C   UNL     1       1.907   4.191  21.232  0.00  0.00    +0.000 A 
ATOM     22  C   UNL     1       2.581   3.043  20.820  0.00  0.00    +0.000 A 
ATOM     23  C   UNL     1       3.365   3.051  19.661  0.00  0.00    +0.000 A 
ATOM     24  C   UNL     1       3.511   4.247  18.928  0.00  0.00    +0.000 A 
ATOM     25  C   UNL     1       4.159   4.595  17.699  0.00  0.00    +0.000 A 
ATOM     26  C   UNL     1       4.715   3.890  16.615  0.00  0.00    +0.000 A 
ATOM     27  C   UNL     1       5.305   4.610  15.566  0.00  0.00    +0.000 A 
ATOM     28  C   UNL     1       5.462   5.991  15.642  0.00  0.00    +0.000 A 
ATOM     29  C   UNL     1       4.902   6.715  16.696  0.00  0.00    +0.000 A 
ATOM     30  C   UNL     1       4.167   5.984  17.638  0.00  0.00    +0.000 A 
ENDBRANCH  17  18
ENDBRANCH  16  17
ENDBRANCH   1  16
TORSDOF 9
ENDMDL
MODEL 9
REMARK VINA RESULT:      -7.4      1.013      1.094
REMARK  Name = 
REMARK  12 active torsions:
REMARK  status: ('A' for Active; 'I' for Inactive)
REMARK    1  A    between atoms: C_1  and  O_2
REMARK    2  A    between atoms: O_2  and  C_3
REMARK    3  A    between atoms: C_6  and  C_7
REMARK    4  A    between atoms: C_7  and  C_8
REMARK    5  A    between atoms: C_8  and  N_9
REMARK    6  A    between atoms: N_9  and  C_10
REMARK    7  A    between atoms: N_9  and  C_11
REMARK    8  A    between atoms: C_11  and  C_12
REMARK    9  A    between atoms: C_12  and  C_13
REMARK   10  A    between atoms: C_13  and  N_14
REMARK   11  A    between atoms: C_28  and  O_29
REMARK   12  A    between atoms: O_29  and  C_30
REMARK                            x       y       z     vdW  Elec       q    Type
REMARK                         _______ _______ _______ _____ _____    ______ ____
ROOT
ATOM      1  C   UNL     1       1.042   8.881  19.161  0.00  0.00    +0.000 C 
ENDROOT
BRANCH   1   2
ATOM      2  N   UNL     1       1.231  10.315  19.462  0.00  0.00    +0.000 NA
ATOM      3  C   UNL     1       0.854  10.539  20.864  0.00  0.00    +0.000 C 
BRANCH   2   4
ATOM      4  C   UNL     1       0.425  11.170  18.555  0.00  0.00    +0.000 C 
BRANCH   4   5
ATOM      5  C   UNL     1      -0.571  12.113  19.268  0.00  0.00    +0.000 C 
BRANCH   5   9
ATOM      6  C   UNL     1      -4.673  11.418  18.035  0.00  0.00    +0.000 A 
ATOM      7  C   UNL     1      -4.380  12.104  19.223  0.00  0.00    +0.000 A 
ATOM      8  C   UNL     1      -3.065  12.325  19.632  0.00  0.00    +0.000 A 
ATOM      9  C   UNL     1      -2.004  11.842  18.868  0.00  0.00    +0.000 A 
ATOM     10  C   UNL     1      -2.294  11.069  17.737  0.00  0.00    +0.000 A 
ATOM     11  C   UNL     1      -3.625  10.844  17.303  0.00  0.00    +0.000 A 
BRANCH   6  13
ATOM     12  C   UNL     1      -6.789  12.430  17.789  0.00  0.00    +0.000 C 
ATOM     13  O   UNL     1      -5.957  11.289  17.590  0.00  0.00    +0.000 OA
ENDBRANCH   6  13
BRANCH  11  14
ATOM     14  O   UNL     1      -3.666  10.082  16.171  0.00  0.00    +0.000 OA
ATOM     15  C   UNL     1      -2.850  10.445  15.072  0.00  0.00    +0.000 C 
ENDBRANCH  11  14
ENDBRANCH   5   9
ENDBRANCH   4   5
ENDBRANCH   2   4
ENDBRANCH   1   2
BRANCH   1  16
ATOM     16  C   UNL     1       2.178   8.224  18.386  0.00  0.00    +0.000 C 
BRANCH  16  17
ATOM     17  C   UNL     1       2.714   6.928  19.022  0.00  0.00    +0.000 C 
BRANCH  17  18
ATOM     18  N   UNL     1       3.252   6.068  17.957  0.00  0.00    +0.000 N 
ATOM     19  C   UNL     1       4.585   6.081  17.587  0.00  0.00    +0.000 A 
ATOM     20  C   UNL     1       5.483   7.142  17.385  0.00  0.00    +0.000 A 
ATOM     21  C   UNL     1       6.820   6.825  17.122  0.00  0.00    +0.000 A 
ATOM     22  C   UNL     1       7.248   5.499  17.097  0.00  0.00    +0.000 A 
ATOM     23  C   UNL     1       6.357   4.454  17.362  0.00  0.00    +0.000 A 
ATOM     24  C   UNL     1       4.999   4.745  17.611  0.00  0.00    +0.000 A 
ATOM     25  C   UNL     1       3.857   3.959  17.973  0.00  0.00    +0.000 A 
ATOM     26  C   UNL     1       3.639   2.650  18.442  0.00  0.00    +0.000 A 
ATOM     27  C   UNL     1       2.324   2.218  18.668  0.00  0.00    +0.000 A 
ATOM     28  C   UNL     1       1.237   3.013  18.315  0.00  0.00    +0.000 A 
ATOM     29  C   UNL     1       1.426   4.321  17.867  0.00  0.00    +0.000 A 
ATOM     30  C   UNL     1       2.747   4.783  17.819  0.00  0.00    +0.000 A 
ENDBRANCH  17  18
ENDBRANCH  16  17
ENDBRANCH   1  16
TORSDOF 9
ENDMDL
