MODEL 1
REMARK VINA RESULT:      -7.0      0.000      0.000
REMARK  Name = 
REMARK  9 active torsions:
REMARK  status: ('A' for Active; 'I' for Inactive)
REMARK    1  A    between atoms: C_1  and  O_2
REMARK    2  A    between atoms: O_2  and  C_3
REMARK    3  A    between atoms: C_3  and  C_4
REMARK    4  A    between atoms: C_4  and  N_5
REMARK    5  A    between atoms: N_5  and  C_6
REMARK    6  A    between atoms: C_6  and  S_19
REMARK    7  A    between atoms: C_7  and  C_8
REMARK    8  A    between atoms: N_17  and  C_18
REMARK    9  A    between atoms: S_19  and  C_20
REMARK                            x       y       z     vdW  Elec       q    Type
REMARK                         _______ _______ _______ _____ _____    ______ ____
ROOT
ATOM      1  C   UNL     1       4.205   4.279  16.949  0.00  0.00    +0.000 A 
ATOM      2  C   UNL     1       3.987   2.892  17.035  0.00  0.00    +0.000 A 
ATOM      3  C   UNL     1       3.168   2.364  18.003  0.00  0.00    +0.000 A 
ATOM      4  C   UNL     1       2.566   3.192  18.934  0.00  0.00    +0.000 A 
ATOM      5  C   UNL     1       1.785   2.619  19.949  0.00  0.00    +0.000 A 
ATOM      6  C   UNL     1       1.199   3.417  20.918  0.00  0.00    +0.000 A 
ATOM      7  C   UNL     1       1.380   4.795  20.883  0.00  0.00    +0.000 A 
ATOM      8  C   UNL     1       2.146   5.386  19.872  0.00  0.00    +0.000 A 
ATOM      9  C   UNL     1       2.769   4.598  18.863  0.00  0.00    +0.000 A 
ATOM     10  N   UNL     1       3.573   5.129  17.852  0.00  0.00    +0.000 N 
ATOM     11  C   UNL     1       3.769   6.588  17.678  0.00  0.00    +0.000 C 
ENDROOT
BRANCH   1  13
ATOM     12  C   UNL     1       6.532   5.054  16.121  0.00  0.00    +0.000 C 
ATOM     13  C   UNL     1       5.207   4.787  15.943  0.00  0.00    +0.000 C 
BRANCH  12  14
ATOM     14  N   UNL     1       7.246   5.641  15.041  0.00  0.00    +0.000 N 
ATOM     15  H   UNL     1       7.745   6.527  15.217  0.00  0.00    +0.000 HD
BRANCH  14  16
ATOM     16  C   UNL     1       7.461   4.948  13.797  0.00  0.00    +0.000 C 
BRANCH  16  17
ATOM     17  C   UNL     1       6.361   3.901  13.566  0.00  0.00    +0.000 C 
BRANCH  17  19
ATOM     18  C   UNL     1       5.007   3.109  11.836  0.00  0.00    +0.000 C 
ATOM     19  O   UNL     1       6.325   3.426  12.230  0.00  0.00    +0.000 OA
ENDBRANCH  17  19
ENDBRANCH  16  17
ENDBRANCH  14  16
ENDBRANCH  12  14
BRANCH  12  20
ATOM     20  S   UNL     1       7.476   4.601  17.598  0.00  0.00    +0.000 S 
ATOM     21  C   UNL     1       7.554   6.250  18.373  0.00  0.00    +0.000 C 
ENDBRANCH  12  20
ENDBRANCH   1  13
TORSDOF 6
ENDMDL
MODEL 2
REMARK VINA RESULT:      -7.0      0.667      1.912
REMARK  Name = 
REMARK  9 active torsions:
REMARK  status: ('A' for Active; 'I' for Inactive)
REMARK    1  A    between atoms: C_1  and  O_2
REMARK    2  A    between atoms: O_2  and  C_3
REMARK    3  A    between atoms: C_3  and  C_4
REMARK    4  A    between atoms: C_4  and  N_5
REMARK    5  A    between atoms: N_5  and  C_6
REMARK    6  A    between atoms: C_6  and  S_19
REMARK    7  A    between atoms: C_7  and  C_8
REMARK    8  A    between atoms: N_17  and  C_18
REMARK    9  A    between atoms: S_19  and  C_20
REMARK                            x       y       z     vdW  Elec       q    Type
REMARK                         _______ _______ _______ _____ _____    ______ ____
ROOT
ATOM      1  C   UNL     1       4.147   5.133  17.514  0.00  0.00    +0.000 A 
ATOM      2  C   UNL     1       3.742   6.259  18.251  0.00  0.00    +0.000 A 
ATOM      3  C   UNL     1       2.929   6.130  19.351  0.00  0.00    +0.000 A 
ATOM      4  C   UNL     1       2.466   4.883  19.732  0.00  0.00    +0.000 A 
ATOM      5  C   UNL     1       1.587   4.788  20.821  0.00  0.00    +0.000 A 
ATOM      6  C   UNL     1       1.077   3.559  21.205  0.00  0.00    +0.000 A 
ATOM      7  C   UNL     1       1.442   2.410  20.512  0.00  0.00    +0.000 A 
ATOM      8  C   UNL     1       2.327   2.483  19.431  0.00  0.00    +0.000 A 
ATOM      9  C   UNL     1       2.866   3.729  19.003  0.00  0.00    +0.000 A 
ATOM     10  N   UNL     1       3.724   3.867  17.909  0.00  0.00    +0.000 N 
ATOM     11  C   UNL     1       4.235   2.701  17.150  0.00  0.00    +0.000 C 
ENDROOT
BRANCH   1  13
ATOM     12  C   UNL     1       6.290   5.295  16.070  0.00  0.00    +0.000 C 
ATOM     13  C   UNL     1       4.940   5.349  16.249  0.00  0.00    +0.000 C 
BRANCH  12  14
ATOM     14  N   UNL     1       6.810   5.654  14.797  0.00  0.00    +0.000 N 
ATOM     15  H   UNL     1       7.061   6.642  14.639  0.00  0.00    +0.000 HD
BRANCH  14  16
ATOM     16  C   UNL     1       7.183   4.668  13.815  0.00  0.00    +0.000 C 
BRANCH  16  17
ATOM     17  C   UNL     1       5.980   3.783  13.456  0.00  0.00    +0.000 C 
BRANCH  17  19
ATOM     18  C   UNL     1       4.735   3.057  11.619  0.00  0.00    +0.000 C 
ATOM     19  O   UNL     1       6.030   3.301  12.123  0.00  0.00    +0.000 OA
ENDBRANCH  17  19
ENDBRANCH  16  17
ENDBRANCH  14  16
ENDBRANCH  12  14
BRANCH  12  20
ATOM     20  S   UNL     1       7.461   4.681  17.307  0.00  0.00    +0.000 S 
ATOM     21  C   UNL     1       7.605   6.199  18.306  0.00  0.00    +0.000 C 
ENDBRANCH  12  20
ENDBRANCH   1  13
TORSDOF 6
ENDMDL
MODEL 3
REMARK VINA RESULT:      -6.9      3.052      4.285
REMARK  Name = 
REMARK  9 active torsions:
REMARK  status: ('A' for Active; 'I' for Inactive)
REMARK    1  A    between atoms: C_1  and  O_2
REMARK    2  A    between atoms: O_2  and  C_3
REMARK    3  A    between atoms: C_3  and  C_4
REMARK    4  A    between atoms: C_4  and  N_5
REMARK    5  A    between atoms: N_5  and  C_6
REMARK    6  A    between atoms: C_6  and  S_19
REMARK    7  A    between atoms: C_7  and  C_8
REMARK    8  A    between atoms: N_17  and  C_18
REMARK    9  A    between atoms: S_19  and  C_20
REMARK                            x       y       z     vdW  Elec       q    Type
REMARK                         _______ _______ _______ _____ _____    ______ ____
ROOT
ATOM      1  C   UNL     1       4.141   5.607  17.413  0.00  0.00    +0.000 A 
ATOM      2  C   UNL     1       4.239   4.398  16.702  0.00  0.00    +0.000 A 
ATOM      3  C   UNL     1       3.431   3.330  17.009  0.00  0.00    +0.000 A 
ATOM      4  C   UNL     1       2.525   3.419  18.051  0.00  0.00    +0.000 A 
ATOM      5  C   UNL     1       1.757   2.292  18.381  0.00  0.00    +0.000 A 
ATOM      6  C   UNL     1       0.867   2.338  19.443  0.00  0.00    +0.000 A 
ATOM      7  C   UNL     1       0.729   3.507  20.181  0.00  0.00    +0.000 A 
ATOM      8  C   UNL     1       1.477   4.645  19.859  0.00  0.00    +0.000 A 
ATOM      9  C   UNL     1       2.405   4.634  18.780  0.00  0.00    +0.000 A 
ATOM     10  N   UNL     1       3.205   5.726  18.436  0.00  0.00    +0.000 N 
ATOM     11  C   UNL     1       3.083   7.042  19.108  0.00  0.00    +0.000 C 
ENDROOT
BRANCH   1  13
ATOM     12  C   UNL     1       6.479   6.716  17.338  0.00  0.00    +0.000 C 
ATOM     13  C   UNL     1       5.135   6.701  17.110  0.00  0.00    +0.000 C 
BRANCH  12  14
ATOM     14  N   UNL     1       7.188   7.918  17.070  0.00  0.00    +0.000 N 
ATOM     15  H   UNL     1       6.831   8.533  16.322  0.00  0.00    +0.000 HD
BRANCH  14  16
ATOM     16  C   UNL     1       8.242   8.395  17.929  0.00  0.00    +0.000 C 
BRANCH  16  17
ATOM     17  C   UNL     1       8.232   9.929  17.994  0.00  0.00    +0.000 C 
BRANCH  17  19
ATOM     18  C   UNL     1      10.089  11.325  18.226  0.00  0.00    +0.000 C 
ATOM     19  O   UNL     1       9.203  10.449  18.887  0.00  0.00    +0.000 OA
ENDBRANCH  17  19
ENDBRANCH  16  17
ENDBRANCH  14  16
ENDBRANCH  12  14
BRANCH  12  20
ATOM     20  S   UNL     1       7.447   5.272  17.845  0.00  0.00    +0.000 S 
ATOM     21  C   UNL     1       7.215   5.422  19.647  0.00  0.00    +0.000 C 
ENDBRANCH  12  20
ENDBRANCH   1  13
TORSDOF 6
ENDMDL
MODEL 4
REMARK VINA RESULT:      -6.8      1.484      1.761
REMARK  Name = 
REMARK  9 active torsions:
REMARK  status: ('A' for Active; 'I' for Inactive)
REMARK    1  A    between atoms: C_1  and  O_2
REMARK    2  A    between atoms: O_2  and  C_3
REMARK    3  A    between atoms: C_3  and  C_4
REMARK    4  A    between atoms: C_4  and  N_5
REMARK    5  A    between atoms: N_5  and  C_6
REMARK    6  A    between atoms: C_6  and  S_19
REMARK    7  A    between atoms: C_7  and  C_8
REMARK    8  A    between atoms: N_17  and  C_18
REMARK    9  A    between atoms: S_19  and  C_20
REMARK                            x       y       z     vdW  Elec       q    Type
REMARK                         _______ _______ _______ _____ _____    ______ ____
ROOT
ATOM      1  C   UNL     1       3.765   4.141  17.388  0.00  0.00    +0.000 A 
ATOM      2  C   UNL     1       2.406   4.170  17.026  0.00  0.00    +0.000 A 
ATOM      3  C   UNL     1       1.424   3.881  17.943  0.00  0.00    +0.000 A 
ATOM      4  C   UNL     1       1.762   3.522  19.235  0.00  0.00    +0.000 A 
ATOM      5  C   UNL     1       0.741   3.172  20.132  0.00  0.00    +0.000 A 
ATOM      6  C   UNL     1       1.049   2.773  21.422  0.00  0.00    +0.000 A 
ATOM      7  C   UNL     1       2.375   2.724  21.835  0.00  0.00    +0.000 A 
ATOM      8  C   UNL     1       3.406   3.082  20.960  0.00  0.00    +0.000 A 
ATOM      9  C   UNL     1       3.130   3.491  19.625  0.00  0.00    +0.000 A 
ATOM     10  N   UNL     1       4.118   3.823  18.696  0.00  0.00    +0.000 N 
ATOM     11  C   UNL     1       5.557   3.878  19.054  0.00  0.00    +0.000 C 
ENDROOT
BRANCH   1  13
ATOM     12  C   UNL     1       5.481   5.487  15.993  0.00  0.00    +0.000 C 
ATOM     13  C   UNL     1       4.800   4.350  16.310  0.00  0.00    +0.000 C 
BRANCH  12  14
ATOM     14  N   UNL     1       6.326   5.462  14.851  0.00  0.00    +0.000 N 
ATOM     15  H   UNL     1       6.822   6.330  14.597  0.00  0.00    +0.000 HD
BRANCH  14  16
ATOM     16  C   UNL     1       6.667   4.235  14.175  0.00  0.00    +0.000 C 
BRANCH  16  17
ATOM     17  C   UNL     1       7.097   4.518  12.729  0.00  0.00    +0.000 C 
BRANCH  17  19
ATOM     18  C   UNL     1       5.511   2.992  11.951  0.00  0.00    +0.000 C 
ATOM     19  O   UNL     1       6.849   3.428  11.857  0.00  0.00    +0.000 OA
ENDBRANCH  17  19
ENDBRANCH  16  17
ENDBRANCH  14  16
ENDBRANCH  12  14
BRANCH  12  20
ATOM     20  S   UNL     1       5.479   6.994  16.997  0.00  0.00    +0.000 S 
ATOM     21  C   UNL     1       7.236   6.988  17.480  0.00  0.00    +0.000 C 
ENDBRANCH  12  20
ENDBRANCH   1  13
TORSDOF 6
ENDMDL
MODEL 5
REMARK VINA RESULT:      -6.7      1.223      2.182
REMARK  Name = 
REMARK  9 active torsions:
REMARK  status: ('A' for Active; 'I' for Inactive)
REMARK    1  A    between atoms: C_1  and  O_2
REMARK    2  A    between atoms: O_2  and  C_3
REMARK    3  A    between atoms: C_3  and  C_4
REMARK    4  A    between atoms: C_4  and  N_5
REMARK    5  A    between atoms: N_5  and  C_6
REMARK    6  A    between atoms: C_6  and  S_19
REMARK    7  A    between atoms: C_7  and  C_8
REMARK    8  A    between atoms: N_17  and  C_18
REMARK    9  A    between atoms: S_19  and  C_20
REMARK                            x       y       z     vdW  Elec       q    Type
REMARK                         _______ _______ _______ _____ _____    ______ ____
ROOT
ATOM      1  C   UNL     1       4.090   4.218  17.200  0.00  0.00    +0.000 A 
ATOM      2  C   UNL     1       3.761   5.544  17.536  0.00  0.00    +0.000 A 
ATOM      3  C   UNL     1       2.967   5.822  18.622  0.00  0.00    +0.000 A 
ATOM      4  C   UNL     1       2.449   4.793  19.388  0.00  0.00    +0.000 A 
ATOM      5  C   UNL     1       1.592   5.104  20.454  0.00  0.00    +0.000 A 
ATOM      6  C   UNL     1       1.028   4.095  21.217  0.00  0.00    +0.000 A 
ATOM      7  C   UNL     1       1.317   2.766  20.931  0.00  0.00    +0.000 A 
ATOM      8  C   UNL     1       2.179   2.436  19.880  0.00  0.00    +0.000 A 
ATOM      9  C   UNL     1       2.773   3.444  19.070  0.00  0.00    +0.000 A 
ATOM     10  N   UNL     1       3.611   3.174  17.986  0.00  0.00    +0.000 N 
ATOM     11  C   UNL     1       4.043   1.798  17.641  0.00  0.00    +0.000 C 
ENDROOT
BRANCH   1  13
ATOM     12  C   UNL     1       6.190   4.168  15.687  0.00  0.00    +0.000 C 
ATOM     13  C   UNL     1       4.863   3.970  15.929  0.00  0.00    +0.000 C 
BRANCH  12  14
ATOM     14  N   UNL     1       6.664   3.968  14.363  0.00  0.00    +0.000 N 
ATOM     15  H   UNL     1       7.658   3.722  14.238  0.00  0.00    +0.000 HD
BRANCH  14  16
ATOM     16  C   UNL     1       5.775   3.897  13.232  0.00  0.00    +0.000 C 
BRANCH  16  17
ATOM     17  C   UNL     1       6.432   3.129  12.076  0.00  0.00    +0.000 C 
BRANCH  17  19
ATOM     18  C   UNL     1       6.373   1.017  11.082  0.00  0.00    +0.000 C 
ATOM     19  O   UNL     1       5.605   2.100  11.558  0.00  0.00    +0.000 OA
ENDBRANCH  17  19
ENDBRANCH  16  17
ENDBRANCH  14  16
ENDBRANCH  12  14
BRANCH  12  20
ATOM     20  S   UNL     1       7.415   4.552  16.964  0.00  0.00    +0.000 S 
ATOM     21  C   UNL     1       7.206   6.363  16.990  0.00  0.00    +0.000 C 
ENDBRANCH  12  20
ENDBRANCH   1  13
TORSDOF 6
ENDMDL
MODEL 6
REMARK VINA RESULT:      -6.7      2.987      4.595
REMARK  Name = 
REMARK  9 active torsions:
REMARK  status: ('A' for Active; 'I' for Inactive)
REMARK    1  A    between atoms: C_1  and  O_2
REMARK    2  A    between atoms: O_2  and  C_3
REMARK    3  A    between atoms: C_3  and  C_4
REMARK    4  A    between atoms: C_4  and  N_5
REMARK    5  A    between atoms: N_5  and  C_6
REMARK    6  A    between atoms: C_6  and  S_19
REMARK    7  A    between atoms: C_7  and  C_8
REMARK    8  A    between atoms: N_17  and  C_18
REMARK    9  A    between atoms: S_19  and  C_20
REMARK                            x       y       z     vdW  Elec       q    Type
REMARK                         _______ _______ _______ _____ _____    ______ ____
ROOT
ATOM      1  C   UNL     1       4.026   5.866  18.249  0.00  0.00    +0.000 A 
ATOM      2  C   UNL     1       3.370   6.420  19.363  0.00  0.00    +0.000 A 
ATOM      3  C   UNL     1       2.358   5.741  19.998  0.00  0.00    +0.000 A 
ATOM      4  C   UNL     1       1.944   4.508  19.527  0.00  0.00    +0.000 A 
ATOM      5  C   UNL     1       0.868   3.867  20.157  0.00  0.00    +0.000 A 
ATOM      6  C   UNL     1       0.405   2.649  19.687  0.00  0.00    +0.000 A 
ATOM      7  C   UNL     1       1.015   2.053  18.589  0.00  0.00    +0.000 A 
ATOM      8  C   UNL     1       2.098   2.671  17.955  0.00  0.00    +0.000 A 
ATOM      9  C   UNL     1       2.596   3.926  18.404  0.00  0.00    +0.000 A 
ATOM     10  N   UNL     1       3.649   4.607  17.790  0.00  0.00    +0.000 N 
ATOM     11  C   UNL     1       4.417   4.028  16.661  0.00  0.00    +0.000 C 
ENDROOT
BRANCH   1  13
ATOM     12  C   UNL     1       6.382   6.824  17.763  0.00  0.00    +0.000 C 
ATOM     13  C   UNL     1       5.045   6.708  17.523  0.00  0.00    +0.000 C 
BRANCH  12  14
ATOM     14  N   UNL     1       7.115   7.779  17.009  0.00  0.00    +0.000 N 
ATOM     15  H   UNL     1       6.685   8.148  16.148  0.00  0.00    +0.000 HD
BRANCH  14  16
ATOM     16  C   UNL     1       8.322   8.387  17.508  0.00  0.00    +0.000 C 
BRANCH  16  17
ATOM     17  C   UNL     1       8.046   9.818  17.989  0.00  0.00    +0.000 C 
BRANCH  17  19
ATOM     18  C   UNL     1       9.573  10.671  19.537  0.00  0.00    +0.000 C 
ATOM     19  O   UNL     1       9.230  10.577  18.171  0.00  0.00    +0.000 OA
ENDBRANCH  17  19
ENDBRANCH  16  17
ENDBRANCH  14  16
ENDBRANCH  12  14
BRANCH  12  20
ATOM     20  S   UNL     1       7.313   5.758  18.894  0.00  0.00    +0.000 S 
ATOM     21  C   UNL     1       7.806   4.476  17.696  0.00  0.00    +0.000 C 
ENDBRANCH  12  20
ENDBRANCH   1  13
TORSDOF 6
ENDMDL
MODEL 7
REMARK VINA RESULT:      -6.7      3.322      5.264
REMARK  Name = 
REMARK  9 active torsions:
REMARK  status: ('A' for Active; 'I' for Inactive)
REMARK    1  A    between atoms: C_1  and  O_2
REMARK    2  A    between atoms: O_2  and  C_3
REMARK    3  A    between atoms: C_3  and  C_4
REMARK    4  A    between atoms: C_4  and  N_5
REMARK    5  A    between atoms: N_5  and  C_6
REMARK    6  A    between atoms: C_6  and  S_19
REMARK    7  A    between atoms: C_7  and  C_8
REMARK    8  A    between atoms: N_17  and  C_18
REMARK    9  A    between atoms: S_19  and  C_20
REMARK                            x       y       z     vdW  Elec       q    Type
REMARK                         _______ _______ _______ _____ _____    ______ ____
ROOT
ATOM      1  C   UNL     1       2.661   6.555  18.400  0.00  0.00    +0.000 A 
ATOM      2  C   UNL     1       2.723   7.611  17.474  0.00  0.00    +0.000 A 
ATOM      3  C   UNL     1       2.247   8.860  17.792  0.00  0.00    +0.000 A 
ATOM      4  C   UNL     1       1.665   9.089  19.026  0.00  0.00    +0.000 A 
ATOM      5  C   UNL     1       1.131  10.357  19.300  0.00  0.00    +0.000 A 
ATOM      6  C   UNL     1       0.509  10.609  20.512  0.00  0.00    +0.000 A 
ATOM      7  C   UNL     1       0.418   9.602  21.466  0.00  0.00    +0.000 A 
ATOM      8  C   UNL     1       0.955   8.335  21.217  0.00  0.00    +0.000 A 
ATOM      9  C   UNL     1       1.595   8.037  19.981  0.00  0.00    +0.000 A 
ATOM     10  N   UNL     1       2.117   6.781  19.661  0.00  0.00    +0.000 N 
ATOM     11  C   UNL     1       2.140   5.661  20.633  0.00  0.00    +0.000 C 
ENDROOT
BRANCH   1  13
ATOM     12  C   UNL     1       4.328   4.613  18.007  0.00  0.00    +0.000 C 
ATOM     13  C   UNL     1       3.089   5.180  17.952  0.00  0.00    +0.000 C 
BRANCH  12  14
ATOM     14  N   UNL     1       4.505   3.336  17.410  0.00  0.00    +0.000 N 
ATOM     15  H   UNL     1       5.425   3.119  16.997  0.00  0.00    +0.000 HD
BRANCH  14  16
ATOM     16  C   UNL     1       3.529   2.284  17.544  0.00  0.00    +0.000 C 
BRANCH  16  17
ATOM     17  C   UNL     1       3.509   1.747  18.982  0.00  0.00    +0.000 C 
BRANCH  17  19
ATOM     18  C   UNL     1       1.242   2.237  18.717  0.00  0.00    +0.000 C 
ATOM     19  O   UNL     1       2.277   1.985  19.642  0.00  0.00    +0.000 OA
ENDBRANCH  17  19
ENDBRANCH  16  17
ENDBRANCH  14  16
ENDBRANCH  12  14
BRANCH  12  20
ATOM     20  S   UNL     1       5.737   5.321  18.896  0.00  0.00    +0.000 S 
ATOM     21  C   UNL     1       6.342   6.432  17.583  0.00  0.00    +0.000 C 
ENDBRANCH  12  20
ENDBRANCH   1  13
TORSDOF 6
ENDMDL
MODEL 8
REMARK VINA RESULT:      -6.6      3.210      5.257
REMARK  Name = 
REMARK  9 active torsions:
REMARK  status: ('A' for Active; 'I' for Inactive)
REMARK    1  A    between atoms: C_1  and  O_2
REMARK    2  A    between atoms: O_2  and  C_3
REMARK    3  A    between atoms: C_3  and  C_4
REMARK    4  A    between atoms: C_4  and  N_5
REMARK    5  A    between atoms: N_5  and  C_6
REMARK    6  A    between atoms: C_6  and  S_19
REMARK    7  A    between atoms: C_7  and  C_8
REMARK    8  A    between atoms: N_17  and  C_18
REMARK    9  A    between atoms: S_19  and  C_20
REMARK                            x       y       z     vdW  Elec       q    Type
REMARK                         _______ _______ _______ _____ _____    ______ ____
ROOT
ATOM      1  C   UNL     1       3.181   6.332  18.906  0.00  0.00    +0.000 A 
ATOM      2  C   UNL     1       3.567   7.035  17.751  0.00  0.00    +0.000 A 
ATOM      3  C   UNL     1       3.069   8.287  17.485  0.00  0.00    +0.000 A 
ATOM      4  C   UNL     1       2.148   8.866  18.339  0.00  0.00    +0.000 A 
ATOM      5  C   UNL     1       1.609  10.119  18.010  0.00  0.00    +0.000 A 
ATOM      6  C   UNL     1       0.657  10.708  18.826  0.00  0.00    +0.000 A 
ATOM      7  C   UNL     1       0.237  10.060  19.981  0.00  0.00    +0.000 A 
ATOM      8  C   UNL     1       0.772   8.816  20.333  0.00  0.00    +0.000 A 
ATOM      9  C   UNL     1       1.746   8.175  19.517  0.00  0.00    +0.000 A 
ATOM     10  N   UNL     1       2.287   6.919  19.797  0.00  0.00    +0.000 N 
ATOM     11  C   UNL     1       1.966   6.176  21.040  0.00  0.00    +0.000 C 
ENDROOT
BRANCH   1  13
ATOM     12  C   UNL     1       4.948   4.446  19.059  0.00  0.00    +0.000 C 
ATOM     13  C   UNL     1       3.668   4.915  19.082  0.00  0.00    +0.000 C 
BRANCH  12  14
ATOM     14  N   UNL     1       5.144   3.040  19.133  0.00  0.00    +0.000 N 
ATOM     15  H   UNL     1       6.106   2.681  19.035  0.00  0.00    +0.000 HD
BRANCH  14  16
ATOM     16  C   UNL     1       4.096   2.139  19.539  0.00  0.00    +0.000 C 
BRANCH  16  17
ATOM     17  C   UNL     1       3.522   1.397  18.324  0.00  0.00    +0.000 C 
BRANCH  17  19
ATOM     18  C   UNL     1       1.359   2.162  18.757  0.00  0.00    +0.000 C 
ATOM     19  O   UNL     1       2.373   2.029  17.785  0.00  0.00    +0.000 OA
ENDBRANCH  17  19
ENDBRANCH  16  17
ENDBRANCH  14  16
ENDBRANCH  12  14
BRANCH  12  20
ATOM     20  S   UNL     1       6.422   5.496  19.063  0.00  0.00    +0.000 S 
ATOM     21  C   UNL     1       7.335   4.670  17.719  0.00  0.00    +0.000 C 
ENDBRANCH  12  20
ENDBRANCH   1  13
TORSDOF 6
ENDMDL
MODEL 9
REMARK VINA RESULT:      -6.6      2.682      4.050
REMARK  Name = 
REMARK  9 active torsions:
REMARK  status: ('A' for Active; 'I' for Inactive)
REMARK    1  A    between atoms: C_1  and  O_2
REMARK    2  A    between atoms: O_2  and  C_3
REMARK    3  A    between atoms: C_3  and  C_4
REMARK    4  A    between atoms: C_4  and  N_5
REMARK    5  A    between atoms: N_5  and  C_6
REMARK    6  A    between atoms: C_6  and  S_19
REMARK    7  A    between atoms: C_7  and  C_8
REMARK    8  A    between atoms: N_17  and  C_18
REMARK    9  A    between atoms: S_19  and  C_20
REMARK                            x       y       z     vdW  Elec       q    Type
REMARK                         _______ _______ _______ _____ _____    ______ ____
ROOT
ATOM      1  C   UNL     1       2.753   6.709  18.258  0.00  0.00    +0.000 A 
ATOM      2  C   UNL     1       2.675   7.883  17.488  0.00  0.00    +0.000 A 
ATOM      3  C   UNL     1       2.104   9.025  17.995  0.00  0.00    +0.000 A 
ATOM      4  C   UNL     1       1.563   9.027  19.268  0.00  0.00    +0.000 A 
ATOM      5  C   UNL     1       0.931  10.188  19.736  0.00  0.00    +0.000 A 
ATOM      6  C   UNL     1       0.346  10.210  20.993  0.00  0.00    +0.000 A 
ATOM      7  C   UNL     1       0.392   9.078  21.798  0.00  0.00    +0.000 A 
ATOM      8  C   UNL     1       1.029   7.914  21.354  0.00  0.00    +0.000 A 
ATOM      9  C   UNL     1       1.634   7.851  20.067  0.00  0.00    +0.000 A 
ATOM     10  N   UNL     1       2.251   6.707  19.556  0.00  0.00    +0.000 N 
ATOM     11  C   UNL     1       2.421   5.472  20.359  0.00  0.00    +0.000 C 
ENDROOT
BRANCH   1  13
ATOM     12  C   UNL     1       4.571   5.023  17.513  0.00  0.00    +0.000 C 
ATOM     13  C   UNL     1       3.281   5.456  17.606  0.00  0.00    +0.000 C 
BRANCH  12  14
ATOM     14  N   UNL     1       4.830   3.859  16.741  0.00  0.00    +0.000 N 
ATOM     15  H   UNL     1       4.108   3.122  16.719  0.00  0.00    +0.000 HD
BRANCH  14  16
ATOM     16  C   UNL     1       5.953   3.768  15.843  0.00  0.00    +0.000 C 
BRANCH  16  17
ATOM     17  C   UNL     1       5.588   4.335  14.463  0.00  0.00    +0.000 C 
BRANCH  17  19
ATOM     18  C   UNL     1       6.018   3.369  12.381  0.00  0.00    +0.000 C 
ATOM     19  O   UNL     1       6.571   4.063  13.478  0.00  0.00    +0.000 OA
ENDBRANCH  17  19
ENDBRANCH  16  17
ENDBRANCH  14  16
ENDBRANCH  12  14
BRANCH  12  20
ATOM     20  S   UNL     1       5.963   5.760  18.406  0.00  0.00    +0.000 S 
ATOM     21  C   UNL     1       6.367   7.080  17.214  0.00  0.00    +0.000 C 
ENDBRANCH  12  20
ENDBRANCH   1  13
TORSDOF 6
ENDMDL
