MODEL 1
REMARK VINA RESULT:      -7.5      0.000      0.000
REMARK  Name = 
REMARK  12 active torsions:
REMARK  status: ('A' for Active; 'I' for Inactive)
REMARK    1  A    between atoms: C_1  and  O_2
REMARK    2  A    between atoms: O_2  and  C_3
REMARK    3  A    between atoms: C_6  and  C_7
REMARK    4  A    between atoms: C_7  and  C_8
REMARK    5  A    between atoms: C_8  and  N_9
REMARK    6  A    between atoms: C_10  and  C_12
REMARK    7  A    between atoms: C_12  and  O_13
REMARK    8  A    between atoms: O_13  and  C_14
REMARK    9  A    between atoms: C_17  and  C_18
REMARK   10  A    between atoms: C_20  and  N_21
REMARK   11  A    between atoms: C_25  and  O_26
REMARK   12  A    between atoms: O_26  and  C_27
REMARK                            x       y       z     vdW  Elec       q    Type
REMARK                         _______ _______ _______ _____ _____    ______ ____
ROOT
ATOM      1  N   UNL     1       2.617   3.025  19.812  0.00  0.00    +0.000 N 
ATOM      2  C   UNL     1       3.553   2.686  18.882  0.00  0.00    +0.000 C 
ATOM      3  O   UNL     1       4.248   1.683  19.061  0.00  0.00    +0.000 OA
ATOM      4  H   UNL     1       2.567   2.376  20.592  0.00  0.00    +0.000 HD
ENDROOT
BRANCH   1   5
ATOM      5  C   UNL     1       1.723   4.171  19.825  0.00  0.00    +0.000 C 
BRANCH   5   6
ATOM      6  C   UNL     1       2.201   5.285  20.754  0.00  0.00    +0.000 C 
BRANCH   6  10
ATOM      7  C   UNL     1       1.427   9.198  19.094  0.00  0.00    +0.000 A 
ATOM      8  C   UNL     1       2.092   8.218  18.338  0.00  0.00    +0.000 A 
ATOM      9  C   UNL     1       2.364   6.959  18.870  0.00  0.00    +0.000 A 
ATOM     10  C   UNL     1       1.998   6.665  20.185  0.00  0.00    +0.000 A 
ATOM     11  C   UNL     1       1.425   7.672  20.967  0.00  0.00    +0.000 A 
ATOM     12  C   UNL     1       1.140   8.942  20.443  0.00  0.00    +0.000 A 
BRANCH   7  14
ATOM     13  C   UNL     1      -0.325  10.537  18.255  0.00  0.00    +0.000 C 
ATOM     14  O   UNL     1       1.068  10.398  18.535  0.00  0.00    +0.000 OA
ENDBRANCH   7  14
BRANCH  12  15
ATOM     15  O   UNL     1       0.565   9.758  21.379  0.00  0.00    +0.000 OA
ATOM     16  C   UNL     1      -0.325   9.202  22.331  0.00  0.00    +0.000 C 
ENDBRANCH  12  15
ENDBRANCH   6  10
ENDBRANCH   5   6
ENDBRANCH   1   5
BRANCH   2  17
ATOM     17  C   UNL     1       3.738   3.560  17.647  0.00  0.00    +0.000 C 
BRANCH  17  18
ATOM     18  O   UNL     1       5.018   4.183  17.676  0.00  0.00    +0.000 OA
BRANCH  18  19
ATOM     19  C   UNL     1       5.645   4.381  16.475  0.00  0.00    +0.000 A 
ATOM     20  C   UNL     1       5.090   4.034  15.242  0.00  0.00    +0.000 A 
ATOM     21  C   UNL     1       5.792   4.280  14.060  0.00  0.00    +0.000 A 
ATOM     22  C   UNL     1       7.042   4.878  14.120  0.00  0.00    +0.000 A 
ATOM     23  C   UNL     1       7.826   5.148  12.873  0.00  0.00    +0.000 C 
ATOM     24  N   UNL     1       7.607   5.243  15.292  0.00  0.00    +0.000 NA
ATOM     25  C   UNL     1       6.907   4.994  16.447  0.00  0.00    +0.000 A 
BRANCH  25  26
ATOM     26  N   UNL     1       7.492   5.356  17.745  0.00  0.00    +0.000 N 
ATOM     27  O   UNL     1       7.318   6.516  18.140  0.00  0.00    +0.000 OA
ATOM     28  O   UNL     1       8.076   4.459  18.370  0.00  0.00    +0.000 OA
ENDBRANCH  25  26
ENDBRANCH  18  19
ENDBRANCH  17  18
ENDBRANCH   2  17
TORSDOF 9
ENDMDL
MODEL 2
REMARK VINA RESULT:      -7.5      0.944      1.094
REMARK  Name = 
REMARK  12 active torsions:
REMARK  status: ('A' for Active; 'I' for Inactive)
REMARK    1  A    between atoms: C_1  and  O_2
REMARK    2  A    between atoms: O_2  and  C_3
REMARK    3  A    between atoms: C_6  and  C_7
REMARK    4  A    between atoms: C_7  and  C_8
REMARK    5  A    between atoms: C_8  and  N_9
REMARK    6  A    between atoms: C_10  and  C_12
REMARK    7  A    between atoms: C_12  and  O_13
REMARK    8  A    between atoms: O_13  and  C_14
REMARK    9  A    between atoms: C_17  and  C_18
REMARK   10  A    between atoms: C_20  and  N_21
REMARK   11  A    between atoms: C_25  and  O_26
REMARK   12  A    between atoms: O_26  and  C_27
REMARK                            x       y       z     vdW  Elec       q    Type
REMARK                         _______ _______ _______ _____ _____    ______ ____
ROOT
ATOM      1  N   UNL     1       2.719   4.167  19.651  0.00  0.00    +0.000 N 
ATOM      2  C   UNL     1       3.630   3.180  19.424  0.00  0.00    +0.000 C 
ATOM      3  O   UNL     1       3.901   2.388  20.329  0.00  0.00    +0.000 OA
ATOM      4  H   UNL     1       2.317   4.142  20.583  0.00  0.00    +0.000 HD
ENDROOT
BRANCH   1   5
ATOM      5  C   UNL     1       2.279   5.222  18.751  0.00  0.00    +0.000 C 
BRANCH   5   6
ATOM      6  C   UNL     1       3.129   6.486  18.860  0.00  0.00    +0.000 C 
BRANCH   6  10
ATOM      7  C   UNL     1       0.621   9.997  19.080  0.00  0.00    +0.000 A 
ATOM      8  C   UNL     1       1.379   9.729  17.927  0.00  0.00    +0.000 A 
ATOM      9  C   UNL     1       2.206   8.610  17.852  0.00  0.00    +0.000 A 
ATOM     10  C   UNL     1       2.312   7.749  18.946  0.00  0.00    +0.000 A 
ATOM     11  C   UNL     1       1.635   8.070  20.126  0.00  0.00    +0.000 A 
ATOM     12  C   UNL     1       0.794   9.189  20.214  0.00  0.00    +0.000 A 
BRANCH   7  14
ATOM     13  C   UNL     1      -1.583  10.721  18.653  0.00  0.00    +0.000 C 
ATOM     14  O   UNL     1      -0.269  11.039  19.113  0.00  0.00    +0.000 OA
ENDBRANCH   7  14
BRANCH  12  15
ATOM     15  O   UNL     1       0.222   9.296  21.452  0.00  0.00    +0.000 OA
ATOM     16  C   UNL     1       1.050   9.285  22.602  0.00  0.00    +0.000 C 
ENDBRANCH  12  15
ENDBRANCH   6  10
ENDBRANCH   5   6
ENDBRANCH   1   5
BRANCH   2  17
ATOM     17  C   UNL     1       4.312   3.084  18.064  0.00  0.00    +0.000 C 
BRANCH  17  18
ATOM     18  O   UNL     1       5.229   4.161  17.899  0.00  0.00    +0.000 OA
BRANCH  18  19
ATOM     19  C   UNL     1       5.761   4.345  16.651  0.00  0.00    +0.000 A 
ATOM     20  C   UNL     1       5.122   3.964  15.470  0.00  0.00    +0.000 A 
ATOM     21  C   UNL     1       5.729   4.197  14.235  0.00  0.00    +0.000 A 
ATOM     22  C   UNL     1       6.969   4.816  14.190  0.00  0.00    +0.000 A 
ATOM     23  C   UNL     1       7.654   5.073  12.882  0.00  0.00    +0.000 C 
ATOM     24  N   UNL     1       7.614   5.214  15.309  0.00  0.00    +0.000 NA
ATOM     25  C   UNL     1       7.007   4.977  16.518  0.00  0.00    +0.000 A 
BRANCH  25  26
ATOM     26  N   UNL     1       7.681   5.374  17.761  0.00  0.00    +0.000 N 
ATOM     27  O   UNL     1       7.546   6.549  18.127  0.00  0.00    +0.000 OA
ATOM     28  O   UNL     1       8.296   4.491  18.376  0.00  0.00    +0.000 OA
ENDBRANCH  25  26
ENDBRANCH  18  19
ENDBRANCH  17  18
ENDBRANCH   2  17
TORSDOF 9
ENDMDL
MODEL 3
REMARK VINA RESULT:      -7.4      0.947      2.018
REMARK  Name = 
REMARK  12 active torsions:
REMARK  status: ('A' for Active; 'I' for Inactive)
REMARK    1  A    between atoms: C_1  and  O_2
REMARK    2  A    between atoms: O_2  and  C_3
REMARK    3  A    between atoms: C_6  and  C_7
REMARK    4  A    between atoms: C_7  and  C_8
REMARK    5  A    between atoms: C_8  and  N_9
REMARK    6  A    between atoms: C_10  and  C_12
REMARK    7  A    between atoms: C_12  and  O_13
REMARK    8  A    between atoms: O_13  and  C_14
REMARK    9  A    between atoms: C_17  and  C_18
REMARK   10  A    between atoms: C_20  and  N_21
REMARK   11  A    between atoms: C_25  and  O_26
REMARK   12  A    between atoms: O_26  and  C_27
REMARK                            x       y       z     vdW  Elec       q    Type
REMARK                         _______ _______ _______ _____ _____    ______ ____
ROOT
ATOM      1  N   UNL     1       2.374   4.335  18.966  0.00  0.00    +0.000 N 
ATOM      2  C   UNL     1       3.165   3.245  18.761  0.00  0.00    +0.000 C 
ATOM      3  O   UNL     1       3.260   2.392  19.646  0.00  0.00    +0.000 OA
ATOM      4  H   UNL     1       1.901   4.329  19.865  0.00  0.00    +0.000 HD
ENDROOT
BRANCH   1   5
ATOM      5  C   UNL     1       2.145   5.469  18.087  0.00  0.00    +0.000 C 
BRANCH   5   6
ATOM      6  C   UNL     1       2.915   6.716  18.516  0.00  0.00    +0.000 C 
BRANCH   6  10
ATOM      7  C   UNL     1       0.682   9.630  20.794  0.00  0.00    +0.000 A 
ATOM      8  C   UNL     1       1.035   8.394  21.362  0.00  0.00    +0.000 A 
ATOM      9  C   UNL     1       1.738   7.439  20.631  0.00  0.00    +0.000 A 
ATOM     10  C   UNL     1       2.079   7.694  19.301  0.00  0.00    +0.000 A 
ATOM     11  C   UNL     1       1.642   8.882  18.708  0.00  0.00    +0.000 A 
ATOM     12  C   UNL     1       0.939   9.855  19.434  0.00  0.00    +0.000 A 
BRANCH   7  14
ATOM     13  C   UNL     1      -0.519  10.149  22.758  0.00  0.00    +0.000 C 
ATOM     14  O   UNL     1       0.083  10.607  21.547  0.00  0.00    +0.000 OA
ENDBRANCH   7  14
BRANCH  12  15
ATOM     15  O   UNL     1       0.632  10.940  18.659  0.00  0.00    +0.000 OA
ATOM     16  C   UNL     1       1.434  12.104  18.746  0.00  0.00    +0.000 C 
ENDBRANCH  12  15
ENDBRANCH   6  10
ENDBRANCH   5   6
ENDBRANCH   1   5
BRANCH   2  17
ATOM     17  C   UNL     1       3.933   3.108  17.451  0.00  0.00    +0.000 C 
BRANCH  17  18
ATOM     18  O   UNL     1       5.171   3.805  17.535  0.00  0.00    +0.000 OA
BRANCH  18  19
ATOM     19  C   UNL     1       5.787   4.131  16.356  0.00  0.00    +0.000 A 
ATOM     20  C   UNL     1       5.326   3.731  15.102  0.00  0.00    +0.000 A 
ATOM     21  C   UNL     1       6.008   4.114  13.945  0.00  0.00    +0.000 A 
ATOM     22  C   UNL     1       7.143   4.903  14.053  0.00  0.00    +0.000 A 
ATOM     23  C   UNL     1       7.904   5.326  12.834  0.00  0.00    +0.000 C 
ATOM     24  N   UNL     1       7.614   5.325  15.247  0.00  0.00    +0.000 NA
ATOM     25  C   UNL     1       6.935   4.938  16.377  0.00  0.00    +0.000 A 
BRANCH  25  26
ATOM     26  N   UNL     1       7.423   5.356  17.698  0.00  0.00    +0.000 N 
ATOM     27  O   UNL     1       7.115   6.493  18.081  0.00  0.00    +0.000 OA
ATOM     28  O   UNL     1       8.066   4.522  18.352  0.00  0.00    +0.000 OA
ENDBRANCH  25  26
ENDBRANCH  18  19
ENDBRANCH  17  18
ENDBRANCH   2  17
TORSDOF 9
ENDMDL
MODEL 4
REMARK VINA RESULT:      -7.2      2.475      6.850
REMARK  Name = 
REMARK  12 active torsions:
REMARK  status: ('A' for Active; 'I' for Inactive)
REMARK    1  A    between atoms: C_1  and  O_2
REMARK    2  A    between atoms: O_2  and  C_3
REMARK    3  A    between atoms: C_6  and  C_7
REMARK    4  A    between atoms: C_7  and  C_8
REMARK    5  A    between atoms: C_8  and  N_9
REMARK    6  A    between atoms: C_10  and  C_12
REMARK    7  A    between atoms: C_12  and  O_13
REMARK    8  A    between atoms: O_13  and  C_14
REMARK    9  A    between atoms: C_17  and  C_18
REMARK   10  A    between atoms: C_20  and  N_21
REMARK   11  A    between atoms: C_25  and  O_26
REMARK   12  A    between atoms: O_26  and  C_27
REMARK                            x       y       z     vdW  Elec       q    Type
REMARK                         _______ _______ _______ _____ _____    ______ ____
ROOT
ATOM      1  N   UNL     1       2.499   2.852  19.958  0.00  0.00    +0.000 N 
ATOM      2  C   UNL     1       2.064   3.656  20.968  0.00  0.00    +0.000 C 
ATOM      3  O   UNL     1       2.240   3.306  22.137  0.00  0.00    +0.000 OA
ATOM      4  H   UNL     1       2.966   2.010  20.282  0.00  0.00    +0.000 HD
ENDROOT
BRANCH   1   5
ATOM      5  C   UNL     1       2.368   3.044  18.523  0.00  0.00    +0.000 C 
BRANCH   5   6
ATOM      6  C   UNL     1       3.617   2.624  17.752  0.00  0.00    +0.000 C 
BRANCH   6  10
ATOM      7  C   UNL     1       6.701   5.627  17.375  0.00  0.00    +0.000 A 
ATOM      8  C   UNL     1       6.306   5.161  18.640  0.00  0.00    +0.000 A 
ATOM      9  C   UNL     1       5.299   4.207  18.775  0.00  0.00    +0.000 A 
ATOM     10  C   UNL     1       4.647   3.719  17.642  0.00  0.00    +0.000 A 
ATOM     11  C   UNL     1       4.972   4.255  16.392  0.00  0.00    +0.000 A 
ATOM     12  C   UNL     1       5.988   5.212  16.241  0.00  0.00    +0.000 A 
BRANCH   7  14
ATOM     13  C   UNL     1       7.466   7.854  17.524  0.00  0.00    +0.000 C 
ATOM     14  O   UNL     1       7.761   6.486  17.239  0.00  0.00    +0.000 OA
ENDBRANCH   7  14
BRANCH  12  15
ATOM     15  O   UNL     1       6.147   5.578  14.932  0.00  0.00    +0.000 OA
ATOM     16  C   UNL     1       6.944   4.776  14.079  0.00  0.00    +0.000 C 
ENDBRANCH  12  15
ENDBRANCH   6  10
ENDBRANCH   5   6
ENDBRANCH   1   5
BRANCH   2  17
ATOM     17  C   UNL     1       1.353   4.962  20.636  0.00  0.00    +0.000 C 
BRANCH  17  18
ATOM     18  O   UNL     1       2.305   6.003  20.443  0.00  0.00    +0.000 OA
BRANCH  18  19
ATOM     19  C   UNL     1       1.821   7.273  20.279  0.00  0.00    +0.000 A 
ATOM     20  C   UNL     1       1.150   7.984  21.275  0.00  0.00    +0.000 A 
ATOM     21  C   UNL     1       0.695   9.281  21.030  0.00  0.00    +0.000 A 
ATOM     22  C   UNL     1       0.922   9.860  19.790  0.00  0.00    +0.000 A 
ATOM     23  C   UNL     1       0.440  11.246  19.490  0.00  0.00    +0.000 C 
ATOM     24  N   UNL     1       1.581   9.212  18.805  0.00  0.00    +0.000 NA
ATOM     25  C   UNL     1       2.021   7.936  19.059  0.00  0.00    +0.000 A 
BRANCH  25  26
ATOM     26  N   UNL     1       2.724   7.186  18.009  0.00  0.00    +0.000 N 
ATOM     27  O   UNL     1       3.867   7.561  17.716  0.00  0.00    +0.000 OA
ATOM     28  O   UNL     1       2.138   6.205  17.528  0.00  0.00    +0.000 OA
ENDBRANCH  25  26
ENDBRANCH  18  19
ENDBRANCH  17  18
ENDBRANCH   2  17
TORSDOF 9
ENDMDL
MODEL 5
REMARK VINA RESULT:      -7.2      5.253      7.209
REMARK  Name = 
REMARK  12 active torsions:
REMARK  status: ('A' for Active; 'I' for Inactive)
REMARK    1  A    between atoms: C_1  and  O_2
REMARK    2  A    between atoms: O_2  and  C_3
REMARK    3  A    between atoms: C_6  and  C_7
REMARK    4  A    between atoms: C_7  and  C_8
REMARK    5  A    between atoms: C_8  and  N_9
REMARK    6  A    between atoms: C_10  and  C_12
REMARK    7  A    between atoms: C_12  and  O_13
REMARK    8  A    between atoms: O_13  and  C_14
REMARK    9  A    between atoms: C_17  and  C_18
REMARK   10  A    between atoms: C_20  and  N_21
REMARK   11  A    between atoms: C_25  and  O_26
REMARK   12  A    between atoms: O_26  and  C_27
REMARK                            x       y       z     vdW  Elec       q    Type
REMARK                         _______ _______ _______ _____ _____    ______ ____
ROOT
ATOM      1  N   UNL     1       7.789   6.979  16.935  0.00  0.00    +0.000 N 
ATOM      2  C   UNL     1       6.864   6.104  16.450  0.00  0.00    +0.000 C 
ATOM      3  O   UNL     1       7.241   5.055  15.925  0.00  0.00    +0.000 OA
ATOM      4  H   UNL     1       8.746   6.658  16.828  0.00  0.00    +0.000 HD
ENDROOT
BRANCH   1   5
ATOM      5  C   UNL     1       7.574   8.277  17.553  0.00  0.00    +0.000 C 
BRANCH   5   6
ATOM      6  C   UNL     1       8.612   8.600  18.627  0.00  0.00    +0.000 C 
BRANCH   6  10
ATOM      7  C   UNL     1       9.255  12.847  19.097  0.00  0.00    +0.000 A 
ATOM      8  C   UNL     1       8.867  12.315  17.856  0.00  0.00    +0.000 A 
ATOM      9  C   UNL     1       8.675  10.944  17.687  0.00  0.00    +0.000 A 
ATOM     10  C   UNL     1       8.897  10.075  18.756  0.00  0.00    +0.000 A 
ATOM     11  C   UNL     1       9.378  10.595  19.962  0.00  0.00    +0.000 A 
ATOM     12  C   UNL     1       9.569  11.973  20.147  0.00  0.00    +0.000 A 
BRANCH   7  14
ATOM     13  C   UNL     1      10.381  14.847  18.550  0.00  0.00    +0.000 C 
ATOM     14  O   UNL     1       9.342  14.202  19.287  0.00  0.00    +0.000 OA
ENDBRANCH   7  14
BRANCH  12  15
ATOM     15  O   UNL     1      10.025  12.255  21.406  0.00  0.00    +0.000 OA
ATOM     16  C   UNL     1       9.095  12.586  22.423  0.00  0.00    +0.000 C 
ENDBRANCH  12  15
ENDBRANCH   6  10
ENDBRANCH   5   6
ENDBRANCH   1   5
BRANCH   2  17
ATOM     17  C   UNL     1       5.381   6.445  16.549  0.00  0.00    +0.000 C 
BRANCH  17  18
ATOM     18  O   UNL     1       4.910   6.197  17.870  0.00  0.00    +0.000 OA
BRANCH  18  19
ATOM     19  C   UNL     1       3.977   5.207  18.026  0.00  0.00    +0.000 A 
ATOM     20  C   UNL     1       4.220   3.860  17.750  0.00  0.00    +0.000 A 
ATOM     21  C   UNL     1       3.216   2.910  17.946  0.00  0.00    +0.000 A 
ATOM     22  C   UNL     1       1.978   3.313  18.425  0.00  0.00    +0.000 A 
ATOM     23  C   UNL     1       0.876   2.321  18.638  0.00  0.00    +0.000 C 
ATOM     24  N   UNL     1       1.708   4.603  18.719  0.00  0.00    +0.000 NA
ATOM     25  C   UNL     1       2.704   5.529  18.519  0.00  0.00    +0.000 A 
BRANCH  25  26
ATOM     26  N   UNL     1       2.447   6.947  18.806  0.00  0.00    +0.000 N 
ATOM     27  O   UNL     1       2.443   7.291  19.996  0.00  0.00    +0.000 OA
ATOM     28  O   UNL     1       2.302   7.702  17.834  0.00  0.00    +0.000 OA
ENDBRANCH  25  26
ENDBRANCH  18  19
ENDBRANCH  17  18
ENDBRANCH   2  17
TORSDOF 9
ENDMDL
MODEL 6
REMARK VINA RESULT:      -7.1      1.050      1.343
REMARK  Name = 
REMARK  12 active torsions:
REMARK  status: ('A' for Active; 'I' for Inactive)
REMARK    1  A    between atoms: C_1  and  O_2
REMARK    2  A    between atoms: O_2  and  C_3
REMARK    3  A    between atoms: C_6  and  C_7
REMARK    4  A    between atoms: C_7  and  C_8
REMARK    5  A    between atoms: C_8  and  N_9
REMARK    6  A    between atoms: C_10  and  C_12
REMARK    7  A    between atoms: C_12  and  O_13
REMARK    8  A    between atoms: O_13  and  C_14
REMARK    9  A    between atoms: C_17  and  C_18
REMARK   10  A    between atoms: C_20  and  N_21
REMARK   11  A    between atoms: C_25  and  O_26
REMARK   12  A    between atoms: O_26  and  C_27
REMARK                            x       y       z     vdW  Elec       q    Type
REMARK                         _______ _______ _______ _____ _____    ______ ____
ROOT
ATOM      1  N   UNL     1       2.628   4.317  19.361  0.00  0.00    +0.000 N 
ATOM      2  C   UNL     1       3.332   3.484  18.545  0.00  0.00    +0.000 C 
ATOM      3  O   UNL     1       3.531   2.319  18.897  0.00  0.00    +0.000 OA
ATOM      4  H   UNL     1       2.303   3.871  20.214  0.00  0.00    +0.000 HD
ENDROOT
BRANCH   1   5
ATOM      5  C   UNL     1       2.309   5.722  19.167  0.00  0.00    +0.000 C 
BRANCH   5   6
ATOM      6  C   UNL     1       2.014   6.449  20.477  0.00  0.00    +0.000 C 
BRANCH   6  10
ATOM      7  C   UNL     1       0.770  10.552  19.937  0.00  0.00    +0.000 A 
ATOM      8  C   UNL     1       1.264   9.805  18.854  0.00  0.00    +0.000 A 
ATOM      9  C   UNL     1       1.686   8.487  19.021  0.00  0.00    +0.000 A 
ATOM     10  C   UNL     1       1.648   7.899  20.286  0.00  0.00    +0.000 A 
ATOM     11  C   UNL     1       1.249   8.674  21.379  0.00  0.00    +0.000 A 
ATOM     12  C   UNL     1       0.816  10.000  21.226  0.00  0.00    +0.000 A 
BRANCH   7  14
ATOM     13  C   UNL     1      -1.165  11.877  19.679  0.00  0.00    +0.000 C 
ATOM     14  O   UNL     1       0.260  11.811  19.751  0.00  0.00    +0.000 OA
ENDBRANCH   7  14
BRANCH  12  15
ATOM     15  O   UNL     1       0.457  10.556  22.423  0.00  0.00    +0.000 OA
ATOM     16  C   UNL     1      -0.722  10.111  23.069  0.00  0.00    +0.000 C 
ENDBRANCH  12  15
ENDBRANCH   6  10
ENDBRANCH   5   6
ENDBRANCH   1   5
BRANCH   2  17
ATOM     17  C   UNL     1       3.876   4.009  17.221  0.00  0.00    +0.000 C 
BRANCH  17  18
ATOM     18  O   UNL     1       5.143   3.422  16.946  0.00  0.00    +0.000 OA
BRANCH  18  19
ATOM     19  C   UNL     1       5.841   3.912  15.875  0.00  0.00    +0.000 A 
ATOM     20  C   UNL     1       5.545   3.603  14.546  0.00  0.00    +0.000 A 
ATOM     21  C   UNL     1       6.301   4.154  13.510  0.00  0.00    +0.000 A 
ATOM     22  C   UNL     1       7.343   5.018  13.810  0.00  0.00    +0.000 A 
ATOM     23  C   UNL     1       8.180   5.620  12.723  0.00  0.00    +0.000 C 
ATOM     24  N   UNL     1       7.652   5.355  15.081  0.00  0.00    +0.000 NA
ATOM     25  C   UNL     1       6.902   4.804  16.092  0.00  0.00    +0.000 A 
BRANCH  25  26
ATOM     26  N   UNL     1       7.217   5.126  17.490  0.00  0.00    +0.000 N 
ATOM     27  O   UNL     1       7.997   4.370  18.083  0.00  0.00    +0.000 OA
ATOM     28  O   UNL     1       6.716   6.159  17.958  0.00  0.00    +0.000 OA
ENDBRANCH  25  26
ENDBRANCH  18  19
ENDBRANCH  17  18
ENDBRANCH   2  17
TORSDOF 9
ENDMDL
MODEL 7
REMARK VINA RESULT:      -7.1      1.035      1.331
REMARK  Name = 
REMARK  12 active torsions:
REMARK  status: ('A' for Active; 'I' for Inactive)
REMARK    1  A    between atoms: C_1  and  O_2
REMARK    2  A    between atoms: O_2  and  C_3
REMARK    3  A    between atoms: C_6  and  C_7
REMARK    4  A    between atoms: C_7  and  C_8
REMARK    5  A    between atoms: C_8  and  N_9
REMARK    6  A    between atoms: C_10  and  C_12
REMARK    7  A    between atoms: C_12  and  O_13
REMARK    8  A    between atoms: O_13  and  C_14
REMARK    9  A    between atoms: C_17  and  C_18
REMARK   10  A    between atoms: C_20  and  N_21
REMARK   11  A    between atoms: C_25  and  O_26
REMARK   12  A    between atoms: O_26  and  C_27
REMARK                            x       y       z     vdW  Elec       q    Type
REMARK                         _______ _______ _______ _____ _____    ______ ____
ROOT
ATOM      1  N   UNL     1       1.799   4.246  18.854  0.00  0.00    +0.000 N 
ATOM      2  C   UNL     1       2.640   4.030  17.804  0.00  0.00    +0.000 C 
ATOM      3  O   UNL     1       2.338   3.195  16.949  0.00  0.00    +0.000 OA
ATOM      4  H   UNL     1       0.955   3.683  18.819  0.00  0.00    +0.000 HD
ENDROOT
BRANCH   1   5
ATOM      5  C   UNL     1       1.969   5.145  19.984  0.00  0.00    +0.000 C 
BRANCH   5   6
ATOM      6  C   UNL     1       2.892   6.321  19.672  0.00  0.00    +0.000 C 
BRANCH   6  10
ATOM      7  C   UNL     1       0.599   9.906  18.925  0.00  0.00    +0.000 A 
ATOM      8  C   UNL     1       1.354   9.312  17.899  0.00  0.00    +0.000 A 
ATOM      9  C   UNL     1       2.113   8.167  18.133  0.00  0.00    +0.000 A 
ATOM     10  C   UNL     1       2.152   7.608  19.412  0.00  0.00    +0.000 A 
ATOM     11  C   UNL     1       1.480   8.256  20.453  0.00  0.00    +0.000 A 
ATOM     12  C   UNL     1       0.708   9.406  20.230  0.00  0.00    +0.000 A 
BRANCH   7  14
ATOM     13  C   UNL     1       0.388  12.253  18.795  0.00  0.00    +0.000 C 
ATOM     14  O   UNL     1      -0.226  10.970  18.667  0.00  0.00    +0.000 OA
ENDBRANCH   7  14
BRANCH  12  15
ATOM     15  O   UNL     1       0.127   9.856  21.385  0.00  0.00    +0.000 OA
ATOM     16  C   UNL     1       0.571   9.346  22.629  0.00  0.00    +0.000 C 
ENDBRANCH  12  15
ENDBRANCH   6  10
ENDBRANCH   5   6
ENDBRANCH   1   5
BRANCH   2  17
ATOM     17  C   UNL     1       3.946   4.811  17.713  0.00  0.00    +0.000 C 
BRANCH  17  18
ATOM     18  O   UNL     1       5.011   3.942  17.343  0.00  0.00    +0.000 OA
BRANCH  18  19
ATOM     19  C   UNL     1       5.676   4.227  16.180  0.00  0.00    +0.000 A 
ATOM     20  C   UNL     1       5.200   3.897  14.911  0.00  0.00    +0.000 A 
ATOM     21  C   UNL     1       5.936   4.233  13.773  0.00  0.00    +0.000 A 
ATOM     22  C   UNL     1       7.141   4.905  13.914  0.00  0.00    +0.000 A 
ATOM     23  C   UNL     1       7.961   5.273  12.715  0.00  0.00    +0.000 C 
ATOM     24  N   UNL     1       7.629   5.257  15.123  0.00  0.00    +0.000 NA
ATOM     25  C   UNL     1       6.896   4.918  16.235  0.00  0.00    +0.000 A 
BRANCH  25  26
ATOM     26  N   UNL     1       7.400   5.263  17.571  0.00  0.00    +0.000 N 
ATOM     27  O   UNL     1       7.931   4.356  18.226  0.00  0.00    +0.000 OA
ATOM     28  O   UNL     1       7.299   6.446  17.925  0.00  0.00    +0.000 OA
ENDBRANCH  25  26
ENDBRANCH  18  19
ENDBRANCH  17  18
ENDBRANCH   2  17
TORSDOF 9
ENDMDL
MODEL 8
REMARK VINA RESULT:      -7.1      2.303      3.041
REMARK  Name = 
REMARK  12 active torsions:
REMARK  status: ('A' for Active; 'I' for Inactive)
REMARK    1  A    between atoms: C_1  and  O_2
REMARK    2  A    between atoms: O_2  and  C_3
REMARK    3  A    between atoms: C_6  and  C_7
REMARK    4  A    between atoms: C_7  and  C_8
REMARK    5  A    between atoms: C_8  and  N_9
REMARK    6  A    between atoms: C_10  and  C_12
REMARK    7  A    between atoms: C_12  and  O_13
REMARK    8  A    between atoms: O_13  and  C_14
REMARK    9  A    between atoms: C_17  and  C_18
REMARK   10  A    between atoms: C_20  and  N_21
REMARK   11  A    between atoms: C_25  and  O_26
REMARK   12  A    between atoms: O_26  and  C_27
REMARK                            x       y       z     vdW  Elec       q    Type
REMARK                         _______ _______ _______ _____ _____    ______ ____
ROOT
ATOM      1  N   UNL     1       1.549   4.954  18.478  0.00  0.00    +0.000 N 
ATOM      2  C   UNL     1       1.589   3.719  17.905  0.00  0.00    +0.000 C 
ATOM      3  O   UNL     1       0.821   2.842  18.305  0.00  0.00    +0.000 OA
ATOM      4  H   UNL     1       0.843   5.042  19.203  0.00  0.00    +0.000 HD
ENDROOT
BRANCH   1   5
ATOM      5  C   UNL     1       2.377   6.115  18.194  0.00  0.00    +0.000 C 
BRANCH   5   6
ATOM      6  C   UNL     1       2.601   6.998  19.420  0.00  0.00    +0.000 C 
BRANCH   6  10
ATOM      7  C   UNL     1       0.031  10.471  19.432  0.00  0.00    +0.000 A 
ATOM      8  C   UNL     1       0.584   9.993  18.231  0.00  0.00    +0.000 A 
ATOM      9  C   UNL     1       1.429   8.885  18.218  0.00  0.00    +0.000 A 
ATOM     10  C   UNL     1       1.762   8.249  19.415  0.00  0.00    +0.000 A 
ATOM     11  C   UNL     1       1.291   8.785  20.618  0.00  0.00    +0.000 A 
ATOM     12  C   UNL     1       0.434   9.896  20.646  0.00  0.00    +0.000 A 
BRANCH   7  14
ATOM     13  C   UNL     1      -0.987  12.203  18.195  0.00  0.00    +0.000 C 
ATOM     14  O   UNL     1      -0.881  11.495  19.430  0.00  0.00    +0.000 OA
ENDBRANCH   7  14
BRANCH  12  15
ATOM     15  O   UNL     1       0.086  10.233  21.925  0.00  0.00    +0.000 OA
ATOM     16  C   UNL     1      -0.304   9.215  22.830  0.00  0.00    +0.000 C 
ENDBRANCH  12  15
ENDBRANCH   6  10
ENDBRANCH   5   6
ENDBRANCH   1   5
BRANCH   2  17
ATOM     17  C   UNL     1       2.593   3.438  16.793  0.00  0.00    +0.000 C 
BRANCH  17  18
ATOM     18  O   UNL     1       3.781   2.873  17.338  0.00  0.00    +0.000 OA
BRANCH  18  19
ATOM     19  C   UNL     1       4.805   3.733  17.631  0.00  0.00    +0.000 A 
ATOM     20  C   UNL     1       5.480   4.493  16.675  0.00  0.00    +0.000 A 
ATOM     21  C   UNL     1       6.509   5.356  17.059  0.00  0.00    +0.000 A 
ATOM     22  C   UNL     1       6.849   5.457  18.399  0.00  0.00    +0.000 A 
ATOM     23  C   UNL     1       7.954   6.366  18.845  0.00  0.00    +0.000 C 
ATOM     24  N   UNL     1       6.211   4.751  19.357  0.00  0.00    +0.000 NA
ATOM     25  C   UNL     1       5.202   3.904  18.966  0.00  0.00    +0.000 A 
BRANCH  25  26
ATOM     26  N   UNL     1       4.495   3.101  19.973  0.00  0.00    +0.000 N 
ATOM     27  O   UNL     1       5.004   2.019  20.293  0.00  0.00    +0.000 OA
ATOM     28  O   UNL     1       3.465   3.589  20.462  0.00  0.00    +0.000 OA
ENDBRANCH  25  26
ENDBRANCH  18  19
ENDBRANCH  17  18
ENDBRANCH   2  17
TORSDOF 9
ENDMDL
MODEL 9
REMARK VINA RESULT:      -7.1      2.108      2.896
REMARK  Name = 
REMARK  12 active torsions:
REMARK  status: ('A' for Active; 'I' for Inactive)
REMARK    1  A    between atoms: C_1  and  O_2
REMARK    2  A    between atoms: O_2  and  C_3
REMARK    3  A    between atoms: C_6  and  C_7
REMARK    4  A    between atoms: C_7  and  C_8
REMARK    5  A    between atoms: C_8  and  N_9
REMARK    6  A    between atoms: C_10  and  C_12
REMARK    7  A    between atoms: C_12  and  O_13
REMARK    8  A    between atoms: O_13  and  C_14
REMARK    9  A    between atoms: C_17  and  C_18
REMARK   10  A    between atoms: C_20  and  N_21
REMARK   11  A    between atoms: C_25  and  O_26
REMARK   12  A    between atoms: O_26  and  C_27
REMARK                            x       y       z     vdW  Elec       q    Type
REMARK                         _______ _______ _______ _____ _____    ______ ____
ROOT
ATOM      1  N   UNL     1       2.637   5.085  18.197  0.00  0.00    +0.000 N 
ATOM      2  C   UNL     1       3.266   3.944  17.796  0.00  0.00    +0.000 C 
ATOM      3  O   UNL     1       2.678   3.162  17.047  0.00  0.00    +0.000 OA
ATOM      4  H   UNL     1       1.707   5.194  17.805  0.00  0.00    +0.000 HD
ENDROOT
BRANCH   1   5
ATOM      5  C   UNL     1       3.119   6.120  19.097  0.00  0.00    +0.000 C 
BRANCH   5   6
ATOM      6  C   UNL     1       2.094   6.504  20.161  0.00  0.00    +0.000 C 
BRANCH   6  10
ATOM      7  C   UNL     1       0.763  10.613  20.023  0.00  0.00    +0.000 A 
ATOM      8  C   UNL     1       1.238   9.974  18.865  0.00  0.00    +0.000 A 
ATOM      9  C   UNL     1       1.687   8.655  18.902  0.00  0.00    +0.000 A 
ATOM     10  C   UNL     1       1.697   7.957  20.110  0.00  0.00    +0.000 A 
ATOM     11  C   UNL     1       1.317   8.624  21.279  0.00  0.00    +0.000 A 
ATOM     12  C   UNL     1       0.856   9.949  21.256  0.00  0.00    +0.000 A 
BRANCH   7  14
ATOM     13  C   UNL     1      -1.043  11.954  19.312  0.00  0.00    +0.000 C 
ATOM     14  O   UNL     1       0.225  11.872  19.964  0.00  0.00    +0.000 OA
ENDBRANCH   7  14
BRANCH  12  15
ATOM     15  O   UNL     1       0.523  10.390  22.507  0.00  0.00    +0.000 OA
ATOM     16  C   UNL     1      -0.709   9.988  23.080  0.00  0.00    +0.000 C 
ENDBRANCH  12  15
ENDBRANCH   6  10
ENDBRANCH   5   6
ENDBRANCH   1   5
BRANCH   2  17
ATOM     17  C   UNL     1       4.675   3.647  18.295  0.00  0.00    +0.000 C 
BRANCH  17  18
ATOM     18  O   UNL     1       5.634   4.049  17.322  0.00  0.00    +0.000 OA
BRANCH  18  19
ATOM     19  C   UNL     1       6.359   5.179  17.586  0.00  0.00    +0.000 A 
ATOM     20  C   UNL     1       7.188   5.328  18.699  0.00  0.00    +0.000 A 
ATOM     21  C   UNL     1       7.902   6.513  18.891  0.00  0.00    +0.000 A 
ATOM     22  C   UNL     1       7.788   7.536  17.963  0.00  0.00    +0.000 A 
ATOM     23  C   UNL     1       8.534   8.823  18.142  0.00  0.00    +0.000 C 
ATOM     24  N   UNL     1       7.010   7.426  16.865  0.00  0.00    +0.000 NA
ATOM     25  C   UNL     1       6.310   6.257  16.689  0.00  0.00    +0.000 A 
BRANCH  25  26
ATOM     26  N   UNL     1       5.434   6.102  15.519  0.00  0.00    +0.000 N 
ATOM     27  O   UNL     1       4.718   7.065  15.217  0.00  0.00    +0.000 OA
ATOM     28  O   UNL     1       5.513   5.035  14.893  0.00  0.00    +0.000 OA
ENDBRANCH  25  26
ENDBRANCH  18  19
ENDBRANCH  17  18
ENDBRANCH   2  17
TORSDOF 9
ENDMDL
