MODEL 1
REMARK VINA RESULT:      -8.1      0.000      0.000
REMARK  Name = 
REMARK  10 active torsions:
REMARK  status: ('A' for Active; 'I' for Inactive)
REMARK    1  A    between atoms: C_1  and  C_2
REMARK    2  A    between atoms: C_2  and  C_3
REMARK    3  A    between atoms: C_2  and  N_4
REMARK    4  A    between atoms: N_4  and  C_5
REMARK    5  A    between atoms: C_11  and  O_12
REMARK    6  A    between atoms: O_12  and  C_13
REMARK    7  A    between atoms: C_13  and  C_15
REMARK    8  A    between atoms: C_15  and  C_16
REMARK    9  A    between atoms: C_15  and  C_18
REMARK   10  A    between atoms: C_16  and  O_17
REMARK                            x       y       z     vdW  Elec       q    Type
REMARK                         _______ _______ _______ _____ _____    ______ ____
ROOT
ATOM      1  O   UNL     1       6.160   4.204  18.810  0.00  0.00    +0.000 OA
ENDROOT
BRANCH   1   9
ATOM      2  N   UNL     1       2.088   3.203  19.348  0.00  0.00    +0.000 N 
ATOM      3  C   UNL     1       0.691   2.609  19.028  0.00  0.00    +0.000 C 
ATOM      4  C   UNL     1       3.171   2.115  19.118  0.00  0.00    +0.000 C 
ATOM      5  C   UNL     1       3.208   1.962  17.586  0.00  0.00    +0.000 C 
ATOM      6  C   UNL     1       2.784   3.315  17.031  0.00  0.00    +0.000 C 
ATOM      7  C   UNL     1       2.527   4.198  18.262  0.00  0.00    +0.000 C 
ATOM      8  C   UNL     1       3.825   4.910  18.652  0.00  0.00    +0.000 C 
ATOM      9  C   UNL     1       4.861   4.066  19.419  0.00  0.00    +0.000 C 
ATOM     10  C   UNL     1       4.551   2.575  19.602  0.00  0.00    +0.000 C 
BRANCH   2  12
ATOM     11  C   UNL     1       1.284   5.140  20.844  0.00  0.00    +0.000 C 
ATOM     12  C   UNL     1       2.029   3.802  20.804  0.00  0.00    +0.000 C 
ATOM     13  C   UNL     1       1.428   2.823  21.795  0.00  0.00    +0.000 C 
ENDBRANCH   2  12
ENDBRANCH   1   9
BRANCH   1  14
ATOM     14  C   UNL     1       6.823   5.353  19.153  0.00  0.00    +0.000 C 
ATOM     15  O   UNL     1       7.402   5.522  20.220  0.00  0.00    +0.000 OA
BRANCH  14  16
ATOM     16  C   UNL     1       6.746   6.385  18.047  0.00  0.00    +0.000 C 
BRANCH  16  17
ATOM     17  C   UNL     1       6.479   5.736  16.701  0.00  0.00    +0.000 A 
ATOM     18  C   UNL     1       5.408   6.184  15.911  0.00  0.00    +0.000 A 
ATOM     19  C   UNL     1       5.089   5.540  14.714  0.00  0.00    +0.000 A 
ATOM     20  C   UNL     1       5.833   4.442  14.289  0.00  0.00    +0.000 A 
ATOM     21  C   UNL     1       6.911   4.001  15.049  0.00  0.00    +0.000 A 
ATOM     22  C   UNL     1       7.234   4.642  16.247  0.00  0.00    +0.000 A 
ENDBRANCH  16  17
BRANCH  16  23
ATOM     23  C   UNL     1       7.992   7.286  18.104  0.00  0.00    +0.000 C 
BRANCH  23  24
ATOM     24  O   UNL     1       7.875   8.489  17.348  0.00  0.00    +0.000 OA
ATOM     25  H   UNL     1       7.703   8.234  16.418  0.00  0.00    +0.000 HD
ENDBRANCH  23  24
ENDBRANCH  16  23
ENDBRANCH  14  16
ENDBRANCH   1  14
TORSDOF 7
ENDMDL
MODEL 2
REMARK VINA RESULT:      -7.4      1.595      2.816
REMARK  Name = 
REMARK  10 active torsions:
REMARK  status: ('A' for Active; 'I' for Inactive)
REMARK    1  A    between atoms: C_1  and  C_2
REMARK    2  A    between atoms: C_2  and  C_3
REMARK    3  A    between atoms: C_2  and  N_4
REMARK    4  A    between atoms: N_4  and  C_5
REMARK    5  A    between atoms: C_11  and  O_12
REMARK    6  A    between atoms: O_12  and  C_13
REMARK    7  A    between atoms: C_13  and  C_15
REMARK    8  A    between atoms: C_15  and  C_16
REMARK    9  A    between atoms: C_15  and  C_18
REMARK   10  A    between atoms: C_16  and  O_17
REMARK                            x       y       z     vdW  Elec       q    Type
REMARK                         _______ _______ _______ _____ _____    ______ ____
ROOT
ATOM      1  O   UNL     1       5.041   3.082  16.851  0.00  0.00    +0.000 OA
ENDROOT
BRANCH   1   9
ATOM      2  N   UNL     1       2.163   4.277  19.707  0.00  0.00    +0.000 N 
ATOM      3  C   UNL     1       1.272   5.225  20.553  0.00  0.00    +0.000 C 
ATOM      4  C   UNL     1       2.023   4.646  18.206  0.00  0.00    +0.000 C 
ATOM      5  C   UNL     1       2.759   5.994  18.097  0.00  0.00    +0.000 C 
ATOM      6  C   UNL     1       3.815   5.972  19.195  0.00  0.00    +0.000 C 
ATOM      7  C   UNL     1       3.652   4.611  19.890  0.00  0.00    +0.000 C 
ATOM      8  C   UNL     1       4.543   3.579  19.192  0.00  0.00    +0.000 C 
ATOM      9  C   UNL     1       4.014   3.013  17.860  0.00  0.00    +0.000 C 
ATOM     10  C   UNL     1       2.723   3.626  17.302  0.00  0.00    +0.000 C 
BRANCH   2  12
ATOM     11  C   UNL     1       1.571   2.619  21.589  0.00  0.00    +0.000 C 
ATOM     12  C   UNL     1       1.771   2.797  20.081  0.00  0.00    +0.000 C 
ATOM     13  C   UNL     1       0.547   2.326  19.318  0.00  0.00    +0.000 C 
ENDBRANCH   2  12
ENDBRANCH   1   9
BRANCH   1  14
ATOM     14  C   UNL     1       5.697   4.283  16.796  0.00  0.00    +0.000 C 
ATOM     15  O   UNL     1       6.538   4.647  17.610  0.00  0.00    +0.000 OA
BRANCH  14  16
ATOM     16  C   UNL     1       5.247   5.103  15.604  0.00  0.00    +0.000 C 
BRANCH  16  17
ATOM     17  C   UNL     1       5.915   4.633  14.324  0.00  0.00    +0.000 A 
ATOM     18  C   UNL     1       7.160   5.164  13.952  0.00  0.00    +0.000 A 
ATOM     19  C   UNL     1       7.747   4.815  12.734  0.00  0.00    +0.000 A 
ATOM     20  C   UNL     1       7.101   3.933  11.872  0.00  0.00    +0.000 A 
ATOM     21  C   UNL     1       5.878   3.380  12.237  0.00  0.00    +0.000 A 
ATOM     22  C   UNL     1       5.286   3.727  13.455  0.00  0.00    +0.000 A 
ENDBRANCH  16  17
BRANCH  16  23
ATOM     23  C   UNL     1       5.418   6.598  15.921  0.00  0.00    +0.000 C 
BRANCH  23  24
ATOM     24  O   UNL     1       6.647   6.919  16.568  0.00  0.00    +0.000 OA
ATOM     25  H   UNL     1       7.334   6.989  15.872  0.00  0.00    +0.000 HD
ENDBRANCH  23  24
ENDBRANCH  16  23
ENDBRANCH  14  16
ENDBRANCH   1  14
TORSDOF 7
ENDMDL
MODEL 3
REMARK VINA RESULT:      -7.3      1.954      3.597
REMARK  Name = 
REMARK  10 active torsions:
REMARK  status: ('A' for Active; 'I' for Inactive)
REMARK    1  A    between atoms: C_1  and  C_2
REMARK    2  A    between atoms: C_2  and  C_3
REMARK    3  A    between atoms: C_2  and  N_4
REMARK    4  A    between atoms: N_4  and  C_5
REMARK    5  A    between atoms: C_11  and  O_12
REMARK    6  A    between atoms: O_12  and  C_13
REMARK    7  A    between atoms: C_13  and  C_15
REMARK    8  A    between atoms: C_15  and  C_16
REMARK    9  A    between atoms: C_15  and  C_18
REMARK   10  A    between atoms: C_16  and  O_17
REMARK                            x       y       z     vdW  Elec       q    Type
REMARK                         _______ _______ _______ _____ _____    ______ ____
ROOT
ATOM      1  O   UNL     1       4.989   2.726  16.790  0.00  0.00    +0.000 OA
ENDROOT
BRANCH   1   9
ATOM      2  N   UNL     1       2.459   4.480  19.688  0.00  0.00    +0.000 N 
ATOM      3  C   UNL     1       1.759   5.592  20.514  0.00  0.00    +0.000 C 
ATOM      4  C   UNL     1       2.304   4.792  18.175  0.00  0.00    +0.000 C 
ATOM      5  C   UNL     1       3.225   6.006  17.962  0.00  0.00    +0.000 C 
ATOM      6  C   UNL     1       4.317   5.880  19.016  0.00  0.00    +0.000 C 
ATOM      7  C   UNL     1       3.988   4.595  19.792  0.00  0.00    +0.000 C 
ATOM      8  C   UNL     1       4.682   3.408  19.118  0.00  0.00    +0.000 C 
ATOM      9  C   UNL     1       4.012   2.863  17.842  0.00  0.00    +0.000 C 
ATOM     10  C   UNL     1       2.801   3.634  17.303  0.00  0.00    +0.000 C 
BRANCH   2  12
ATOM     11  C   UNL     1       1.824   2.981  21.686  0.00  0.00    +0.000 C 
ATOM     12  C   UNL     1       1.871   3.096  20.159  0.00  0.00    +0.000 C 
ATOM     13  C   UNL     1       0.503   2.829  19.558  0.00  0.00    +0.000 C 
ENDBRANCH   2  12
ENDBRANCH   1   9
BRANCH   1  14
ATOM     14  C   UNL     1       5.180   3.862  16.049  0.00  0.00    +0.000 C 
ATOM     15  O   UNL     1       4.271   4.565  15.620  0.00  0.00    +0.000 OA
BRANCH  14  16
ATOM     16  C   UNL     1       6.653   4.134  15.825  0.00  0.00    +0.000 C 
BRANCH  16  17
ATOM     17  C   UNL     1       7.187   5.146  16.823  0.00  0.00    +0.000 A 
ATOM     18  C   UNL     1       7.707   4.708  18.050  0.00  0.00    +0.000 A 
ATOM     19  C   UNL     1       8.117   5.626  19.019  0.00  0.00    +0.000 A 
ATOM     20  C   UNL     1       8.014   6.993  18.776  0.00  0.00    +0.000 A 
ATOM     21  C   UNL     1       7.521   7.444  17.555  0.00  0.00    +0.000 A 
ATOM     22  C   UNL     1       7.110   6.528  16.583  0.00  0.00    +0.000 A 
ENDBRANCH  16  17
BRANCH  16  23
ATOM     23  C   UNL     1       6.886   4.487  14.346  0.00  0.00    +0.000 C 
BRANCH  23  24
ATOM     24  O   UNL     1       6.369   3.524  13.429  0.00  0.00    +0.000 OA
ATOM     25  H   UNL     1       6.678   3.778  12.535  0.00  0.00    +0.000 HD
ENDBRANCH  23  24
ENDBRANCH  16  23
ENDBRANCH  14  16
ENDBRANCH   1  14
TORSDOF 7
ENDMDL
MODEL 4
REMARK VINA RESULT:      -7.0      1.572      2.254
REMARK  Name = 
REMARK  10 active torsions:
REMARK  status: ('A' for Active; 'I' for Inactive)
REMARK    1  A    between atoms: C_1  and  C_2
REMARK    2  A    between atoms: C_2  and  C_3
REMARK    3  A    between atoms: C_2  and  N_4
REMARK    4  A    between atoms: N_4  and  C_5
REMARK    5  A    between atoms: C_11  and  O_12
REMARK    6  A    between atoms: O_12  and  C_13
REMARK    7  A    between atoms: C_13  and  C_15
REMARK    8  A    between atoms: C_15  and  C_16
REMARK    9  A    between atoms: C_15  and  C_18
REMARK   10  A    between atoms: C_16  and  O_17
REMARK                            x       y       z     vdW  Elec       q    Type
REMARK                         _______ _______ _______ _____ _____    ______ ____
ROOT
ATOM      1  O   UNL     1       5.932   3.556  17.317  0.00  0.00    +0.000 OA
ENDROOT
BRANCH   1   9
ATOM      2  N   UNL     1       2.263   4.298  19.280  0.00  0.00    +0.000 N 
ATOM      3  C   UNL     1       0.885   4.003  19.930  0.00  0.00    +0.000 C 
ATOM      4  C   UNL     1       3.326   3.338  19.877  0.00  0.00    +0.000 C 
ATOM      5  C   UNL     1       2.952   1.970  19.278  0.00  0.00    +0.000 C 
ATOM      6  C   UNL     1       2.282   2.278  17.945  0.00  0.00    +0.000 C 
ATOM      7  C   UNL     1       2.302   3.809  17.824  0.00  0.00    +0.000 C 
ATOM      8  C   UNL     1       3.594   4.244  17.126  0.00  0.00    +0.000 C 
ATOM      9  C   UNL     1       4.867   4.251  17.995  0.00  0.00    +0.000 C 
ATOM     10  C   UNL     1       4.743   3.706  19.423  0.00  0.00    +0.000 C 
BRANCH   2  12
ATOM     11  C   UNL     1       2.163   6.649  18.230  0.00  0.00    +0.000 C 
ATOM     12  C   UNL     1       2.557   5.835  19.467  0.00  0.00    +0.000 C 
ATOM     13  C   UNL     1       1.891   6.392  20.711  0.00  0.00    +0.000 C 
ENDBRANCH   2  12
ENDBRANCH   1   9
BRANCH   1  14
ATOM     14  C   UNL     1       7.001   4.347  16.990  0.00  0.00    +0.000 C 
ATOM     15  O   UNL     1       8.140   4.175  17.410  0.00  0.00    +0.000 OA
BRANCH  14  16
ATOM     16  C   UNL     1       6.596   5.459  16.045  0.00  0.00    +0.000 C 
BRANCH  16  17
ATOM     17  C   UNL     1       6.697   5.020  14.595  0.00  0.00    +0.000 A 
ATOM     18  C   UNL     1       5.836   4.025  14.106  0.00  0.00    +0.000 A 
ATOM     19  C   UNL     1       5.974   3.542  12.804  0.00  0.00    +0.000 A 
ATOM     20  C   UNL     1       6.973   4.044  11.972  0.00  0.00    +0.000 A 
ATOM     21  C   UNL     1       7.819   5.046  12.435  0.00  0.00    +0.000 A 
ATOM     22  C   UNL     1       7.684   5.533  13.738  0.00  0.00    +0.000 A 
ENDBRANCH  16  17
BRANCH  16  23
ATOM     23  C   UNL     1       7.377   6.737  16.399  0.00  0.00    +0.000 C 
BRANCH  23  24
ATOM     24  O   UNL     1       6.595   7.736  17.050  0.00  0.00    +0.000 OA
ATOM     25  H   UNL     1       6.734   8.577  16.566  0.00  0.00    +0.000 HD
ENDBRANCH  23  24
ENDBRANCH  16  23
ENDBRANCH  14  16
ENDBRANCH   1  14
TORSDOF 7
ENDMDL
MODEL 5
REMARK VINA RESULT:      -7.0      3.684      6.864
REMARK  Name = 
REMARK  10 active torsions:
REMARK  status: ('A' for Active; 'I' for Inactive)
REMARK    1  A    between atoms: C_1  and  C_2
REMARK    2  A    between atoms: C_2  and  C_3
REMARK    3  A    between atoms: C_2  and  N_4
REMARK    4  A    between atoms: N_4  and  C_5
REMARK    5  A    between atoms: C_11  and  O_12
REMARK    6  A    between atoms: O_12  and  C_13
REMARK    7  A    between atoms: C_13  and  C_15
REMARK    8  A    between atoms: C_15  and  C_16
REMARK    9  A    between atoms: C_15  and  C_18
REMARK   10  A    between atoms: C_16  and  O_17
REMARK                            x       y       z     vdW  Elec       q    Type
REMARK                         _______ _______ _______ _____ _____    ______ ____
ROOT
ATOM      1  O   UNL     1       2.410   6.690  18.494  0.00  0.00    +0.000 OA
ENDROOT
BRANCH   1   9
ATOM      2  N   UNL     1       6.289   5.302  17.543  0.00  0.00    +0.000 N 
ATOM      3  C   UNL     1       7.393   4.443  16.870  0.00  0.00    +0.000 C 
ATOM      4  C   UNL     1       5.327   5.845  16.451  0.00  0.00    +0.000 C 
ATOM      5  C   UNL     1       4.556   4.593  15.996  0.00  0.00    +0.000 C 
ATOM      6  C   UNL     1       4.538   3.664  17.203  0.00  0.00    +0.000 C 
ATOM      7  C   UNL     1       5.292   4.418  18.309  0.00  0.00    +0.000 C 
ATOM      8  C   UNL     1       4.299   5.265  19.110  0.00  0.00    +0.000 C 
ATOM      9  C   UNL     1       3.848   6.585  18.455  0.00  0.00    +0.000 C 
ATOM     10  C   UNL     1       4.331   6.858  17.025  0.00  0.00    +0.000 C 
BRANCH   2  12
ATOM     11  C   UNL     1       7.989   5.780  19.419  0.00  0.00    +0.000 C 
ATOM     12  C   UNL     1       7.006   6.397  18.420  0.00  0.00    +0.000 C 
ATOM     13  C   UNL     1       7.695   7.445  17.566  0.00  0.00    +0.000 C 
ENDBRANCH   2  12
ENDBRANCH   1   9
BRANCH   1  14
ATOM     14  C   UNL     1       1.916   7.218  19.657  0.00  0.00    +0.000 C 
ATOM     15  O   UNL     1       1.659   6.560  20.658  0.00  0.00    +0.000 OA
BRANCH  14  16
ATOM     16  C   UNL     1       1.726   8.717  19.545  0.00  0.00    +0.000 C 
BRANCH  16  17
ATOM     17  C   UNL     1       0.879   9.255  20.684  0.00  0.00    +0.000 A 
ATOM     18  C   UNL     1      -0.128  10.196  20.420  0.00  0.00    +0.000 A 
ATOM     19  C   UNL     1      -0.855  10.773  21.463  0.00  0.00    +0.000 A 
ATOM     20  C   UNL     1      -0.587  10.417  22.783  0.00  0.00    +0.000 A 
ATOM     21  C   UNL     1       0.392   9.469  23.060  0.00  0.00    +0.000 A 
ATOM     22  C   UNL     1       1.122   8.890  22.018  0.00  0.00    +0.000 A 
ENDBRANCH  16  17
BRANCH  16  23
ATOM     23  C   UNL     1       1.220   9.062  18.133  0.00  0.00    +0.000 C 
BRANCH  23  24
ATOM     24  O   UNL     1       2.185   9.718  17.313  0.00  0.00    +0.000 OA
ATOM     25  H   UNL     1       1.743  10.490  16.902  0.00  0.00    +0.000 HD
ENDBRANCH  23  24
ENDBRANCH  16  23
ENDBRANCH  14  16
ENDBRANCH   1  14
TORSDOF 7
ENDMDL
MODEL 6
REMARK VINA RESULT:      -6.9      1.790      3.391
REMARK  Name = 
REMARK  10 active torsions:
REMARK  status: ('A' for Active; 'I' for Inactive)
REMARK    1  A    between atoms: C_1  and  C_2
REMARK    2  A    between atoms: C_2  and  C_3
REMARK    3  A    between atoms: C_2  and  N_4
REMARK    4  A    between atoms: N_4  and  C_5
REMARK    5  A    between atoms: C_11  and  O_12
REMARK    6  A    between atoms: O_12  and  C_13
REMARK    7  A    between atoms: C_13  and  C_15
REMARK    8  A    between atoms: C_15  and  C_16
REMARK    9  A    between atoms: C_15  and  C_18
REMARK   10  A    between atoms: C_16  and  O_17
REMARK                            x       y       z     vdW  Elec       q    Type
REMARK                         _______ _______ _______ _____ _____    ______ ____
ROOT
ATOM      1  O   UNL     1       5.253   2.847  16.908  0.00  0.00    +0.000 OA
ENDROOT
BRANCH   1   9
ATOM      2  N   UNL     1       2.424   4.363  19.659  0.00  0.00    +0.000 N 
ATOM      3  C   UNL     1       1.644   5.404  20.506  0.00  0.00    +0.000 C 
ATOM      4  C   UNL     1       2.447   4.824  18.177  0.00  0.00    +0.000 C 
ATOM      5  C   UNL     1       3.399   6.033  18.191  0.00  0.00    +0.000 C 
ATOM      6  C   UNL     1       4.360   5.782  19.345  0.00  0.00    +0.000 C 
ATOM      7  C   UNL     1       3.932   4.435  19.947  0.00  0.00    +0.000 C 
ATOM      8  C   UNL     1       4.687   3.304  19.242  0.00  0.00    +0.000 C 
ATOM      9  C   UNL     1       4.163   2.901  17.850  0.00  0.00    +0.000 C 
ATOM     10  C   UNL     1       3.030   3.747  17.256  0.00  0.00    +0.000 C 
BRANCH   2  12
ATOM     11  C   UNL     1       1.577   2.677  21.414  0.00  0.00    +0.000 C 
ATOM     12  C   UNL     1       1.771   2.952  19.920  0.00  0.00    +0.000 C 
ATOM     13  C   UNL     1       0.463   2.786  19.169  0.00  0.00    +0.000 C 
ENDBRANCH   2  12
ENDBRANCH   1   9
BRANCH   1  14
ATOM     14  C   UNL     1       5.260   3.868  15.996  0.00  0.00    +0.000 C 
ATOM     15  O   UNL     1       4.256   4.306  15.445  0.00  0.00    +0.000 OA
BRANCH  14  16
ATOM     16  C   UNL     1       6.663   4.383  15.754  0.00  0.00    +0.000 C 
BRANCH  16  17
ATOM     17  C   UNL     1       7.107   5.322  16.862  0.00  0.00    +0.000 A 
ATOM     18  C   UNL     1       7.050   6.711  16.664  0.00  0.00    +0.000 A 
ATOM     19  C   UNL     1       7.540   7.589  17.632  0.00  0.00    +0.000 A 
ATOM     20  C   UNL     1       8.093   7.094  18.811  0.00  0.00    +0.000 A 
ATOM     21  C   UNL     1       8.136   5.721  19.032  0.00  0.00    +0.000 A 
ATOM     22  C   UNL     1       7.647   4.839  18.065  0.00  0.00    +0.000 A 
ENDBRANCH  16  17
BRANCH  16  23
ATOM     23  C   UNL     1       6.756   4.960  14.331  0.00  0.00    +0.000 C 
BRANCH  23  24
ATOM     24  O   UNL     1       8.065   5.387  13.960  0.00  0.00    +0.000 OA
ATOM     25  H   UNL     1       8.520   5.679  14.778  0.00  0.00    +0.000 HD
ENDBRANCH  23  24
ENDBRANCH  16  23
ENDBRANCH  14  16
ENDBRANCH   1  14
TORSDOF 7
ENDMDL
MODEL 7
REMARK VINA RESULT:      -6.9      4.416      6.190
REMARK  Name = 
REMARK  10 active torsions:
REMARK  status: ('A' for Active; 'I' for Inactive)
REMARK    1  A    between atoms: C_1  and  C_2
REMARK    2  A    between atoms: C_2  and  C_3
REMARK    3  A    between atoms: C_2  and  N_4
REMARK    4  A    between atoms: N_4  and  C_5
REMARK    5  A    between atoms: C_11  and  O_12
REMARK    6  A    between atoms: O_12  and  C_13
REMARK    7  A    between atoms: C_13  and  C_15
REMARK    8  A    between atoms: C_15  and  C_16
REMARK    9  A    between atoms: C_15  and  C_18
REMARK   10  A    between atoms: C_16  and  O_17
REMARK                            x       y       z     vdW  Elec       q    Type
REMARK                         _______ _______ _______ _____ _____    ______ ____
ROOT
ATOM      1  O   UNL     1       2.338   7.740  18.923  0.00  0.00    +0.000 OA
ENDROOT
BRANCH   1   9
ATOM      2  N   UNL     1       2.961   3.559  18.918  0.00  0.00    +0.000 N 
ATOM      3  C   UNL     1       3.665   2.201  18.649  0.00  0.00    +0.000 C 
ATOM      4  C   UNL     1       3.966   4.531  19.593  0.00  0.00    +0.000 C 
ATOM      5  C   UNL     1       4.950   4.875  18.460  0.00  0.00    +0.000 C 
ATOM      6  C   UNL     1       4.150   4.741  17.171  0.00  0.00    +0.000 C 
ATOM      7  C   UNL     1       2.736   4.332  17.609  0.00  0.00    +0.000 C 
ATOM      8  C   UNL     1       1.897   5.591  17.845  0.00  0.00    +0.000 C 
ATOM      9  C   UNL     1       2.142   6.333  19.172  0.00  0.00    +0.000 C 
ATOM     10  C   UNL     1       3.281   5.819  20.062  0.00  0.00    +0.000 C 
BRANCH   2  12
ATOM     11  C   UNL     1       0.681   2.360  18.968  0.00  0.00    +0.000 C 
ATOM     12  C   UNL     1       1.650   3.260  19.740  0.00  0.00    +0.000 C 
ATOM     13  C   UNL     1       1.959   2.672  21.104  0.00  0.00    +0.000 C 
ENDBRANCH   2  12
ENDBRANCH   1   9
BRANCH   1  14
ATOM     14  C   UNL     1       1.540   8.561  19.674  0.00  0.00    +0.000 C 
ATOM     15  O   UNL     1       1.005   8.228  20.726  0.00  0.00    +0.000 OA
BRANCH  14  16
ATOM     16  C   UNL     1       1.401   9.928  19.038  0.00  0.00    +0.000 C 
BRANCH  16  17
ATOM     17  C   UNL     1      -0.057  10.291  18.817  0.00  0.00    +0.000 A 
ATOM     18  C   UNL     1      -0.755   9.745  17.729  0.00  0.00    +0.000 A 
ATOM     19  C   UNL     1      -2.067  10.137  17.455  0.00  0.00    +0.000 A 
ATOM     20  C   UNL     1      -2.699  11.079  18.262  0.00  0.00    +0.000 A 
ATOM     21  C   UNL     1      -2.029  11.613  19.358  0.00  0.00    +0.000 A 
ATOM     22  C   UNL     1      -0.716  11.223  19.636  0.00  0.00    +0.000 A 
ENDBRANCH  16  17
BRANCH  16  23
ATOM     23  C   UNL     1       2.290   9.999  17.784  0.00  0.00    +0.000 C 
BRANCH  23  24
ATOM     24  O   UNL     1       2.486  11.320  17.283  0.00  0.00    +0.000 OA
ATOM     25  H   UNL     1       2.801  11.238  16.359  0.00  0.00    +0.000 HD
ENDBRANCH  23  24
ENDBRANCH  16  23
ENDBRANCH  14  16
ENDBRANCH   1  14
TORSDOF 7
ENDMDL
MODEL 8
REMARK VINA RESULT:      -6.9      2.700      6.170
REMARK  Name = 
REMARK  10 active torsions:
REMARK  status: ('A' for Active; 'I' for Inactive)
REMARK    1  A    between atoms: C_1  and  C_2
REMARK    2  A    between atoms: C_2  and  C_3
REMARK    3  A    between atoms: C_2  and  N_4
REMARK    4  A    between atoms: N_4  and  C_5
REMARK    5  A    between atoms: C_11  and  O_12
REMARK    6  A    between atoms: O_12  and  C_13
REMARK    7  A    between atoms: C_13  and  C_15
REMARK    8  A    between atoms: C_15  and  C_16
REMARK    9  A    between atoms: C_15  and  C_18
REMARK   10  A    between atoms: C_16  and  O_17
REMARK                            x       y       z     vdW  Elec       q    Type
REMARK                         _______ _______ _______ _____ _____    ______ ____
ROOT
ATOM      1  O   UNL     1       2.571   6.304  18.378  0.00  0.00    +0.000 OA
ENDROOT
BRANCH   1   9
ATOM      2  N   UNL     1       6.528   5.380  17.213  0.00  0.00    +0.000 N 
ATOM      3  C   UNL     1       7.684   4.723  16.413  0.00  0.00    +0.000 C 
ATOM      4  C   UNL     1       5.513   6.010  16.221  0.00  0.00    +0.000 C 
ATOM      5  C   UNL     1       4.832   4.787  15.580  0.00  0.00    +0.000 C 
ATOM      6  C   UNL     1       4.901   3.685  16.629  0.00  0.00    +0.000 C 
ATOM      7  C   UNL     1       5.613   4.315  17.836  0.00  0.00    +0.000 C 
ATOM      8  C   UNL     1       4.570   4.950  18.761  0.00  0.00    +0.000 C 
ATOM      9  C   UNL     1       4.012   6.316  18.320  0.00  0.00    +0.000 C 
ATOM     10  C   UNL     1       4.451   6.843  16.948  0.00  0.00    +0.000 C 
BRANCH   2  12
ATOM     11  C   UNL     1       8.155   5.676  19.189  0.00  0.00    +0.000 C 
ATOM     12  C   UNL     1       7.173   6.379  18.247  0.00  0.00    +0.000 C 
ATOM     13  C   UNL     1       7.840   7.555  17.558  0.00  0.00    +0.000 C 
ENDBRANCH   2  12
ENDBRANCH   1   9
BRANCH   1  14
ATOM     14  C   UNL     1       2.033   7.252  19.207  0.00  0.00    +0.000 C 
ATOM     15  O   UNL     1       1.686   8.370  18.842  0.00  0.00    +0.000 OA
BRANCH  14  16
ATOM     16  C   UNL     1       1.925   6.744  20.630  0.00  0.00    +0.000 C 
BRANCH  16  17
ATOM     17  C   UNL     1       1.702   5.243  20.667  0.00  0.00    +0.000 A 
ATOM     18  C   UNL     1       2.427   4.452  21.572  0.00  0.00    +0.000 A 
ATOM     19  C   UNL     1       2.305   3.061  21.558  0.00  0.00    +0.000 A 
ATOM     20  C   UNL     1       1.459   2.441  20.642  0.00  0.00    +0.000 A 
ATOM     21  C   UNL     1       0.716   3.212  19.754  0.00  0.00    +0.000 A 
ATOM     22  C   UNL     1       0.835   4.605  19.764  0.00  0.00    +0.000 A 
ENDBRANCH  16  17
BRANCH  16  23
ATOM     23  C   UNL     1       0.882   7.580  21.391  0.00  0.00    +0.000 C 
BRANCH  23  24
ATOM     24  O   UNL     1       1.345   8.870  21.786  0.00  0.00    +0.000 OA
ATOM     25  H   UNL     1       0.800   9.155  22.549  0.00  0.00    +0.000 HD
ENDBRANCH  23  24
ENDBRANCH  16  23
ENDBRANCH  14  16
ENDBRANCH   1  14
TORSDOF 7
ENDMDL
MODEL 9
REMARK VINA RESULT:      -6.9      0.873      2.356
REMARK  Name = 
REMARK  10 active torsions:
REMARK  status: ('A' for Active; 'I' for Inactive)
REMARK    1  A    between atoms: C_1  and  C_2
REMARK    2  A    between atoms: C_2  and  C_3
REMARK    3  A    between atoms: C_2  and  N_4
REMARK    4  A    between atoms: N_4  and  C_5
REMARK    5  A    between atoms: C_11  and  O_12
REMARK    6  A    between atoms: O_12  and  C_13
REMARK    7  A    between atoms: C_13  and  C_15
REMARK    8  A    between atoms: C_15  and  C_16
REMARK    9  A    between atoms: C_15  and  C_18
REMARK   10  A    between atoms: C_16  and  O_17
REMARK                            x       y       z     vdW  Elec       q    Type
REMARK                         _______ _______ _______ _____ _____    ______ ____
ROOT
ATOM      1  O   UNL     1       5.944   5.340  20.037  0.00  0.00    +0.000 OA
ENDROOT
BRANCH   1   9
ATOM      2  N   UNL     1       2.235   3.516  19.148  0.00  0.00    +0.000 N 
ATOM      3  C   UNL     1       0.880   2.799  19.393  0.00  0.00    +0.000 C 
ATOM      4  C   UNL     1       2.331   4.759  20.074  0.00  0.00    +0.000 C 
ATOM      5  C   UNL     1       2.516   4.149  21.476  0.00  0.00    +0.000 C 
ATOM      6  C   UNL     1       3.208   2.811  21.250  0.00  0.00    +0.000 C 
ATOM      7  C   UNL     1       3.402   2.704  19.730  0.00  0.00    +0.000 C 
ATOM      8  C   UNL     1       4.752   3.319  19.349  0.00  0.00    +0.000 C 
ATOM      9  C   UNL     1       4.807   4.858  19.293  0.00  0.00    +0.000 C 
ATOM     10  C   UNL     1       3.555   5.620  19.745  0.00  0.00    +0.000 C 
BRANCH   2  12
ATOM     11  C   UNL     1       2.687   2.554  16.801  0.00  0.00    +0.000 C 
ATOM     12  C   UNL     1       2.344   3.812  17.604  0.00  0.00    +0.000 C 
ATOM     13  C   UNL     1       1.088   4.469  17.063  0.00  0.00    +0.000 C 
ENDBRANCH   2  12
ENDBRANCH   1   9
BRANCH   1  14
ATOM     14  C   UNL     1       7.070   5.532  19.281  0.00  0.00    +0.000 C 
ATOM     15  O   UNL     1       8.149   4.993  19.502  0.00  0.00    +0.000 OA
BRANCH  14  16
ATOM     16  C   UNL     1       6.812   6.496  18.142  0.00  0.00    +0.000 C 
BRANCH  16  17
ATOM     17  C   UNL     1       6.473   5.759  16.858  0.00  0.00    +0.000 A 
ATOM     18  C   UNL     1       5.451   6.241  16.026  0.00  0.00    +0.000 A 
ATOM     19  C   UNL     1       5.061   5.528  14.891  0.00  0.00    +0.000 A 
ATOM     20  C   UNL     1       5.687   4.326  14.570  0.00  0.00    +0.000 A 
ATOM     21  C   UNL     1       6.718   3.847  15.372  0.00  0.00    +0.000 A 
ATOM     22  C   UNL     1       7.110   4.557  16.509  0.00  0.00    +0.000 A 
ENDBRANCH  16  17
BRANCH  16  23
ATOM     23  C   UNL     1       7.984   7.487  18.038  0.00  0.00    +0.000 C 
BRANCH  23  24
ATOM     24  O   UNL     1       7.606   8.791  17.601  0.00  0.00    +0.000 OA
ATOM     25  H   UNL     1       6.890   8.682  16.941  0.00  0.00    +0.000 HD
ENDBRANCH  23  24
ENDBRANCH  16  23
ENDBRANCH  14  16
ENDBRANCH   1  14
TORSDOF 7
ENDMDL
