MODEL 1
REMARK VINA RESULT:      -9.1      0.000      0.000
REMARK  Name = 
REMARK  4 active torsions:
REMARK  status: ('A' for Active; 'I' for Inactive)
REMARK    1  A    between atoms: N_1  and  C_2
REMARK    2  A    between atoms: C_7  and  C_8
REMARK    3  A    between atoms: C_13  and  N_14
REMARK    4  A    between atoms: C_17  and  C_18
REMARK                            x       y       z     vdW  Elec       q    Type
REMARK                         _______ _______ _______ _____ _____    ______ ____
ROOT
ATOM      1  C   UNL     1       2.612   6.567  19.431  0.00  0.00    +0.000 A 
ATOM      2  C   UNL     1       2.201   5.560  20.319  0.00  0.00    +0.000 A 
ATOM      3  C   UNL     1       2.858   4.331  20.383  0.00  0.00    +0.000 A 
ATOM      4  F   UNL     1       2.474   3.433  21.301  0.00  0.00    +0.000 F 
ATOM      5  C   UNL     1       3.902   4.019  19.527  0.00  0.00    +0.000 A 
ATOM      6  C   UNL     1       4.317   4.983  18.612  0.00  0.00    +0.000 A 
ATOM      7  C   UNL     1       3.693   6.248  18.585  0.00  0.00    +0.000 A 
ENDROOT
BRANCH   1  13
ATOM      8  C   UNL     1       1.486   8.648  20.459  0.00  0.00    +0.000 A 
ATOM      9  C   UNL     1       0.800   9.851  20.235  0.00  0.00    +0.000 A 
ATOM     10  C   UNL     1       0.697  10.351  18.951  0.00  0.00    +0.000 A 
ATOM     11  N   UNL     1       1.179   9.716  17.871  0.00  0.00    +0.000 NA
ATOM     12  C   UNL     1       1.764   8.514  18.098  0.00  0.00    +0.000 A 
ATOM     13  C   UNL     1       1.949   7.901  19.351  0.00  0.00    +0.000 A 
BRANCH   8  14
ATOM     14  N   UNL     1       1.509   8.157  21.781  0.00  0.00    +0.000 N 
ATOM     15  H   UNL     1       0.646   7.712  22.077  0.00  0.00    +0.000 HD
ATOM     16  H   UNL     1       1.822   8.844  22.461  0.00  0.00    +0.000 HD
ENDBRANCH   8  14
ENDBRANCH   1  13
BRANCH   6  17
ATOM     17  N   UNL     1       5.377   4.716  17.718  0.00  0.00    +0.000 N 
ATOM     18  N   UNL     1       6.666   4.593  18.095  0.00  0.00    +0.000 NA
ATOM     19  N   UNL     1       7.351   4.475  16.965  0.00  0.00    +0.000 NA
ATOM     20  C   UNL     1       6.437   4.516  15.939  0.00  0.00    +0.000 A 
ATOM     21  N   UNL     1       5.172   4.613  16.385  0.00  0.00    +0.000 NA
BRANCH  20  22
ATOM     22  C   UNL     1       6.797   4.510  14.524  0.00  0.00    +0.000 A 
ATOM     23  C   UNL     1       6.139   3.657  13.635  0.00  0.00    +0.000 A 
ATOM     24  C   UNL     1       6.476   3.700  12.287  0.00  0.00    +0.000 A 
ATOM     25  C   UNL     1       7.454   4.591  11.862  0.00  0.00    +0.000 A 
ATOM     26  C   UNL     1       8.059   5.406  12.809  0.00  0.00    +0.000 A 
ATOM     27  N   UNL     1       7.754   5.385  14.121  0.00  0.00    +0.000 NA
ENDBRANCH  20  22
ENDBRANCH   6  17
TORSDOF 4
ENDMDL
MODEL 2
REMARK VINA RESULT:      -9.0      0.618      1.396
REMARK  Name = 
REMARK  4 active torsions:
REMARK  status: ('A' for Active; 'I' for Inactive)
REMARK    1  A    between atoms: N_1  and  C_2
REMARK    2  A    between atoms: C_7  and  C_8
REMARK    3  A    between atoms: C_13  and  N_14
REMARK    4  A    between atoms: C_17  and  C_18
REMARK                            x       y       z     vdW  Elec       q    Type
REMARK                         _______ _______ _______ _____ _____    ______ ____
ROOT
ATOM      1  C   UNL     1       2.602   6.237  19.763  0.00  0.00    +0.000 A 
ATOM      2  C   UNL     1       2.169   5.130  20.510  0.00  0.00    +0.000 A 
ATOM      3  C   UNL     1       2.816   3.896  20.429  0.00  0.00    +0.000 A 
ATOM      4  F   UNL     1       2.410   2.894  21.220  0.00  0.00    +0.000 F 
ATOM      5  C   UNL     1       3.872   3.686  19.557  0.00  0.00    +0.000 A 
ATOM      6  C   UNL     1       4.309   4.753  18.777  0.00  0.00    +0.000 A 
ATOM      7  C   UNL     1       3.696   6.017  18.900  0.00  0.00    +0.000 A 
ENDROOT
BRANCH   1  13
ATOM      8  C   UNL     1       1.837   8.490  18.767  0.00  0.00    +0.000 A 
ATOM      9  C   UNL     1       1.277   9.755  19.001  0.00  0.00    +0.000 A 
ATOM     10  C   UNL     1       0.733  10.044  20.238  0.00  0.00    +0.000 A 
ATOM     11  N   UNL     1       0.752   9.188  21.270  0.00  0.00    +0.000 NA
ATOM     12  C   UNL     1       1.373   8.002  21.051  0.00  0.00    +0.000 A 
ATOM     13  C   UNL     1       1.950   7.577  19.841  0.00  0.00    +0.000 A 
BRANCH   8  14
ATOM     14  N   UNL     1       2.430   8.273  17.506  0.00  0.00    +0.000 N 
ATOM     15  H   UNL     1       3.109   7.519  17.487  0.00  0.00    +0.000 HD
ATOM     16  H   UNL     1       2.805   9.118  17.085  0.00  0.00    +0.000 HD
ENDBRANCH   8  14
ENDBRANCH   1  13
BRANCH   6  17
ATOM     17  N   UNL     1       5.383   4.592  17.874  0.00  0.00    +0.000 N 
ATOM     18  N   UNL     1       6.682   4.611  18.238  0.00  0.00    +0.000 NA
ATOM     19  N   UNL     1       7.364   4.554  17.101  0.00  0.00    +0.000 NA
ATOM     20  C   UNL     1       6.440   4.487  16.086  0.00  0.00    +0.000 A 
ATOM     21  N   UNL     1       5.177   4.454  16.545  0.00  0.00    +0.000 NA
BRANCH  20  22
ATOM     22  C   UNL     1       6.785   4.505  14.667  0.00  0.00    +0.000 A 
ATOM     23  C   UNL     1       6.110   3.674  13.770  0.00  0.00    +0.000 A 
ATOM     24  C   UNL     1       6.432   3.740  12.419  0.00  0.00    +0.000 A 
ATOM     25  C   UNL     1       7.412   4.631  12.000  0.00  0.00    +0.000 A 
ATOM     26  C   UNL     1       8.034   5.424  12.955  0.00  0.00    +0.000 A 
ATOM     27  N   UNL     1       7.744   5.380  14.270  0.00  0.00    +0.000 NA
ENDBRANCH  20  22
ENDBRANCH   6  17
TORSDOF 4
ENDMDL
MODEL 3
REMARK VINA RESULT:      -8.8      4.615      6.452
REMARK  Name = 
REMARK  4 active torsions:
REMARK  status: ('A' for Active; 'I' for Inactive)
REMARK    1  A    between atoms: N_1  and  C_2
REMARK    2  A    between atoms: C_7  and  C_8
REMARK    3  A    between atoms: C_13  and  N_14
REMARK    4  A    between atoms: C_17  and  C_18
REMARK                            x       y       z     vdW  Elec       q    Type
REMARK                         _______ _______ _______ _____ _____    ______ ____
ROOT
ATOM      1  C   UNL     1       4.783   4.254  17.058  0.00  0.00    +0.000 A 
ATOM      2  C   UNL     1       5.101   3.891  15.739  0.00  0.00    +0.000 A 
ATOM      3  C   UNL     1       6.207   4.429  15.080  0.00  0.00    +0.000 A 
ATOM      4  F   UNL     1       6.509   3.992  13.851  0.00  0.00    +0.000 F 
ATOM      5  C   UNL     1       7.005   5.396  15.670  0.00  0.00    +0.000 A 
ATOM      6  C   UNL     1       6.701   5.803  16.967  0.00  0.00    +0.000 A 
ATOM      7  C   UNL     1       5.619   5.219  17.657  0.00  0.00    +0.000 A 
ENDROOT
BRANCH   1  13
ATOM      8  C   UNL     1       3.715   2.884  18.964  0.00  0.00    +0.000 A 
ATOM      9  C   UNL     1       2.546   2.338  19.515  0.00  0.00    +0.000 A 
ATOM     10  C   UNL     1       1.315   2.688  18.991  0.00  0.00    +0.000 A 
ATOM     11  N   UNL     1       1.168   3.498  17.932  0.00  0.00    +0.000 NA
ATOM     12  C   UNL     1       2.313   3.948  17.361  0.00  0.00    +0.000 A 
ATOM     13  C   UNL     1       3.623   3.684  17.802  0.00  0.00    +0.000 A 
BRANCH   8  14
ATOM     14  N   UNL     1       4.943   2.446  19.501  0.00  0.00    +0.000 N 
ATOM     15  H   UNL     1       5.710   3.100  19.382  0.00  0.00    +0.000 HD
ATOM     16  H   UNL     1       5.205   1.512  19.199  0.00  0.00    +0.000 HD
ENDBRANCH   8  14
ENDBRANCH   1  13
BRANCH   6  17
ATOM     17  N   UNL     1       7.483   6.785  17.614  0.00  0.00    +0.000 N 
ATOM     18  N   UNL     1       8.114   6.589  18.790  0.00  0.00    +0.000 NA
ATOM     19  N   UNL     1       8.624   7.771  19.114  0.00  0.00    +0.000 NA
ATOM     20  C   UNL     1       8.290   8.639  18.101  0.00  0.00    +0.000 A 
ATOM     21  N   UNL     1       7.615   8.033  17.110  0.00  0.00    +0.000 NA
BRANCH  20  22
ATOM     22  C   UNL     1       8.586  10.069  18.122  0.00  0.00    +0.000 A 
ATOM     23  C   UNL     1       9.701  10.545  18.816  0.00  0.00    +0.000 A 
ATOM     24  C   UNL     1       9.980  11.907  18.787  0.00  0.00    +0.000 A 
ATOM     25  C   UNL     1       9.147  12.753  18.065  0.00  0.00    +0.000 A 
ATOM     26  C   UNL     1       8.061  12.200  17.401  0.00  0.00    +0.000 A 
ATOM     27  N   UNL     1       7.765  10.886  17.414  0.00  0.00    +0.000 NA
ENDBRANCH  20  22
ENDBRANCH   6  17
TORSDOF 4
ENDMDL
MODEL 4
REMARK VINA RESULT:      -8.6      1.010      1.705
REMARK  Name = 
REMARK  4 active torsions:
REMARK  status: ('A' for Active; 'I' for Inactive)
REMARK    1  A    between atoms: N_1  and  C_2
REMARK    2  A    between atoms: C_7  and  C_8
REMARK    3  A    between atoms: C_13  and  N_14
REMARK    4  A    between atoms: C_17  and  C_18
REMARK                            x       y       z     vdW  Elec       q    Type
REMARK                         _______ _______ _______ _____ _____    ______ ____
ROOT
ATOM      1  C   UNL     1       2.211   6.994  19.863  0.00  0.00    +0.000 A 
ATOM      2  C   UNL     1       1.762   5.757  20.353  0.00  0.00    +0.000 A 
ATOM      3  C   UNL     1       2.378   4.560  19.986  0.00  0.00    +0.000 A 
ATOM      4  F   UNL     1       1.960   3.414  20.540  0.00  0.00    +0.000 F 
ATOM      5  C   UNL     1       3.417   4.529  19.069  0.00  0.00    +0.000 A 
ATOM      6  C   UNL     1       3.868   5.735  18.539  0.00  0.00    +0.000 A 
ATOM      7  C   UNL     1       3.286   6.951  18.953  0.00  0.00    +0.000 A 
ENDROOT
BRANCH   1  13
ATOM      8  C   UNL     1       1.135   9.281  19.346  0.00  0.00    +0.000 A 
ATOM      9  C   UNL     1       0.653  10.500  19.846  0.00  0.00    +0.000 A 
ATOM     10  C   UNL     1       0.515  10.672  21.211  0.00  0.00    +0.000 A 
ATOM     11  N   UNL     1       0.869   9.742  22.111  0.00  0.00    +0.000 NA
ATOM     12  C   UNL     1       1.411   8.604  21.612  0.00  0.00    +0.000 A 
ATOM     13  C   UNL     1       1.592   8.295  20.251  0.00  0.00    +0.000 A 
BRANCH   8  14
ATOM     14  N   UNL     1       1.310   9.184  17.949  0.00  0.00    +0.000 N 
ATOM     15  H   UNL     1       2.216   9.502  17.618  0.00  0.00    +0.000 HD
ATOM     16  H   UNL     1       0.554   9.606  17.418  0.00  0.00    +0.000 HD
ENDBRANCH   8  14
ENDBRANCH   1  13
BRANCH   6  17
ATOM     17  N   UNL     1       4.925   5.758  17.602  0.00  0.00    +0.000 N 
ATOM     18  N   UNL     1       5.952   6.631  17.649  0.00  0.00    +0.000 NA
ATOM     19  N   UNL     1       6.649   6.410  16.541  0.00  0.00    +0.000 NA
ATOM     20  C   UNL     1       6.016   5.391  15.870  0.00  0.00    +0.000 A 
ATOM     21  N   UNL     1       4.952   4.919  16.543  0.00  0.00    +0.000 NA
BRANCH  20  22
ATOM     22  C   UNL     1       6.418   4.909  14.551  0.00  0.00    +0.000 A 
ATOM     23  C   UNL     1       5.643   3.957  13.885  0.00  0.00    +0.000 A 
ATOM     24  C   UNL     1       6.030   3.545  12.615  0.00  0.00    +0.000 A 
ATOM     25  C   UNL     1       7.170   4.095  12.043  0.00  0.00    +0.000 A 
ATOM     26  C   UNL     1       7.883   5.037  12.770  0.00  0.00    +0.000 A 
ATOM     27  N   UNL     1       7.534   5.453  14.003  0.00  0.00    +0.000 NA
ENDBRANCH  20  22
ENDBRANCH   6  17
TORSDOF 4
ENDMDL
MODEL 5
REMARK VINA RESULT:      -8.6      1.939      8.436
REMARK  Name = 
REMARK  4 active torsions:
REMARK  status: ('A' for Active; 'I' for Inactive)
REMARK    1  A    between atoms: N_1  and  C_2
REMARK    2  A    between atoms: C_7  and  C_8
REMARK    3  A    between atoms: C_13  and  N_14
REMARK    4  A    between atoms: C_17  and  C_18
REMARK                            x       y       z     vdW  Elec       q    Type
REMARK                         _______ _______ _______ _____ _____    ______ ____
ROOT
ATOM      1  C   UNL     1       3.965   5.147  18.827  0.00  0.00    +0.000 A 
ATOM      2  C   UNL     1       3.514   4.227  19.787  0.00  0.00    +0.000 A 
ATOM      3  C   UNL     1       2.458   4.530  20.648  0.00  0.00    +0.000 A 
ATOM      4  F   UNL     1       2.017   3.590  21.494  0.00  0.00    +0.000 F 
ATOM      5  C   UNL     1       1.849   5.775  20.642  0.00  0.00    +0.000 A 
ATOM      6  C   UNL     1       2.292   6.723  19.723  0.00  0.00    +0.000 A 
ATOM      7  C   UNL     1       3.319   6.400  18.813  0.00  0.00    +0.000 A 
ENDROOT
BRANCH   1  13
ATOM      8  C   UNL     1       6.451   4.853  18.203  0.00  0.00    +0.000 A 
ATOM      9  C   UNL     1       7.397   4.643  17.189  0.00  0.00    +0.000 A 
ATOM     10  C   UNL     1       6.972   4.315  15.915  0.00  0.00    +0.000 A 
ATOM     11  N   UNL     1       5.679   4.231  15.567  0.00  0.00    +0.000 NA
ATOM     12  C   UNL     1       4.779   4.521  16.540  0.00  0.00    +0.000 A 
ATOM     13  C   UNL     1       5.075   4.851  17.875  0.00  0.00    +0.000 A 
BRANCH   8  14
ATOM     14  N   UNL     1       6.940   5.242  19.467  0.00  0.00    +0.000 N 
ATOM     15  H   UNL     1       7.929   5.469  19.482  0.00  0.00    +0.000 HD
ATOM     16  H   UNL     1       6.700   4.591  20.210  0.00  0.00    +0.000 HD
ENDBRANCH   8  14
ENDBRANCH   1  13
BRANCH   6  17
ATOM     17  N   UNL     1       1.704   8.006  19.676  0.00  0.00    +0.000 N 
ATOM     18  N   UNL     1       1.816   8.846  18.626  0.00  0.00    +0.000 NA
ATOM     19  N   UNL     1       1.241   9.976  19.019  0.00  0.00    +0.000 NA
ATOM     20  C   UNL     1       0.787   9.766  20.300  0.00  0.00    +0.000 A 
ATOM     21  N   UNL     1       1.016   8.511  20.724  0.00  0.00    +0.000 NA
BRANCH  20  22
ATOM     22  C   UNL     1       0.174  10.801  21.128  0.00  0.00    +0.000 A 
ATOM     23  C   UNL     1      -0.681  10.448  22.174  0.00  0.00    +0.000 A 
ATOM     24  C   UNL     1      -1.220  11.452  22.970  0.00  0.00    +0.000 A 
ATOM     25  C   UNL     1      -0.891  12.776  22.705  0.00  0.00    +0.000 A 
ATOM     26  C   UNL     1      -0.033  13.042  21.647  0.00  0.00    +0.000 A 
ATOM     27  N   UNL     1       0.502  12.090  20.858  0.00  0.00    +0.000 NA
ENDBRANCH  20  22
ENDBRANCH   6  17
TORSDOF 4
ENDMDL
MODEL 6
REMARK VINA RESULT:      -8.6      1.888      7.665
REMARK  Name = 
REMARK  4 active torsions:
REMARK  status: ('A' for Active; 'I' for Inactive)
REMARK    1  A    between atoms: N_1  and  C_2
REMARK    2  A    between atoms: C_7  and  C_8
REMARK    3  A    between atoms: C_13  and  N_14
REMARK    4  A    between atoms: C_17  and  C_18
REMARK                            x       y       z     vdW  Elec       q    Type
REMARK                         _______ _______ _______ _____ _____    ______ ____
ROOT
ATOM      1  C   UNL     1       3.810   4.912  18.800  0.00  0.00    +0.000 A 
ATOM      2  C   UNL     1       3.217   3.832  19.473  0.00  0.00    +0.000 A 
ATOM      3  C   UNL     1       2.136   4.015  20.336  0.00  0.00    +0.000 A 
ATOM      4  F   UNL     1       1.558   2.942  20.894  0.00  0.00    +0.000 F 
ATOM      5  C   UNL     1       1.640   5.277  20.623  0.00  0.00    +0.000 A 
ATOM      6  C   UNL     1       2.224   6.375  19.996  0.00  0.00    +0.000 A 
ATOM      7  C   UNL     1       3.278   6.187  19.078  0.00  0.00    +0.000 A 
ENDROOT
BRANCH   1  13
ATOM      8  C   UNL     1       6.318   4.805  18.208  0.00  0.00    +0.000 A 
ATOM      9  C   UNL     1       7.292   4.727  17.202  0.00  0.00    +0.000 A 
ATOM     10  C   UNL     1       6.909   4.475  15.898  0.00  0.00    +0.000 A 
ATOM     11  N   UNL     1       5.629   4.348  15.517  0.00  0.00    +0.000 NA
ATOM     12  C   UNL     1       4.698   4.510  16.489  0.00  0.00    +0.000 A 
ATOM     13  C   UNL     1       4.951   4.752  17.852  0.00  0.00    +0.000 A 
BRANCH   8  14
ATOM     14  N   UNL     1       6.763   5.122  19.509  0.00  0.00    +0.000 N 
ATOM     15  H   UNL     1       6.500   6.049  19.827  0.00  0.00    +0.000 HD
ATOM     16  H   UNL     1       7.755   4.951  19.649  0.00  0.00    +0.000 HD
ENDBRANCH   8  14
ENDBRANCH   1  13
BRANCH   6  17
ATOM     17  N   UNL     1       1.756   7.682  20.253  0.00  0.00    +0.000 N 
ATOM     18  N   UNL     1       1.394   8.125  21.474  0.00  0.00    +0.000 NA
ATOM     19  N   UNL     1       0.901   9.341  21.273  0.00  0.00    +0.000 NA
ATOM     20  C   UNL     1       1.001   9.592  19.925  0.00  0.00    +0.000 A 
ATOM     21  N   UNL     1       1.588   8.583  19.259  0.00  0.00    +0.000 NA
BRANCH  20  22
ATOM     22  C   UNL     1       0.480  10.794  19.278  0.00  0.00    +0.000 A 
ATOM     23  C   UNL     1      -0.847  10.840  18.846  0.00  0.00    +0.000 A 
ATOM     24  C   UNL     1      -1.327  12.010  18.269  0.00  0.00    +0.000 A 
ATOM     25  C   UNL     1      -0.474  13.100  18.142  0.00  0.00    +0.000 A 
ATOM     26  C   UNL     1       0.830  12.973  18.599  0.00  0.00    +0.000 A 
ATOM     27  N   UNL     1       1.322  11.851  19.160  0.00  0.00    +0.000 NA
ENDBRANCH  20  22
ENDBRANCH   6  17
TORSDOF 4
ENDMDL
MODEL 7
REMARK VINA RESULT:      -8.5      4.632      6.232
REMARK  Name = 
REMARK  4 active torsions:
REMARK  status: ('A' for Active; 'I' for Inactive)
REMARK    1  A    between atoms: N_1  and  C_2
REMARK    2  A    between atoms: C_7  and  C_8
REMARK    3  A    between atoms: C_13  and  N_14
REMARK    4  A    between atoms: C_17  and  C_18
REMARK                            x       y       z     vdW  Elec       q    Type
REMARK                         _______ _______ _______ _____ _____    ______ ____
ROOT
ATOM      1  C   UNL     1       4.421   4.752  18.041  0.00  0.00    +0.000 A 
ATOM      2  C   UNL     1       4.343   4.391  16.687  0.00  0.00    +0.000 A 
ATOM      3  C   UNL     1       5.243   4.890  15.745  0.00  0.00    +0.000 A 
ATOM      4  F   UNL     1       5.171   4.456  14.480  0.00  0.00    +0.000 F 
ATOM      5  C   UNL     1       6.214   5.818  16.088  0.00  0.00    +0.000 A 
ATOM      6  C   UNL     1       6.302   6.222  17.418  0.00  0.00    +0.000 A 
ATOM      7  C   UNL     1       5.431   5.674  18.383  0.00  0.00    +0.000 A 
ENDROOT
BRANCH   1  13
ATOM      8  C   UNL     1       3.744   3.096  19.900  0.00  0.00    +0.000 A 
ATOM      9  C   UNL     1       2.745   2.650  20.778  0.00  0.00    +0.000 A 
ATOM     10  C   UNL     1       1.582   3.384  20.920  0.00  0.00    +0.000 A 
ATOM     11  N   UNL     1       1.321   4.496  20.216  0.00  0.00    +0.000 NA
ATOM     12  C   UNL     1       2.263   4.864  19.312  0.00  0.00    +0.000 A 
ATOM     13  C   UNL     1       3.492   4.220  19.080  0.00  0.00    +0.000 A 
BRANCH   8  14
ATOM     14  N   UNL     1       4.883   2.277  19.753  0.00  0.00    +0.000 N 
ATOM     15  H   UNL     1       5.733   2.779  19.518  0.00  0.00    +0.000 HD
ATOM     16  H   UNL     1       4.735   1.489  19.128  0.00  0.00    +0.000 HD
ENDBRANCH   8  14
ENDBRANCH   1  13
BRANCH   6  17
ATOM     17  N   UNL     1       7.274   7.163  17.820  0.00  0.00    +0.000 N 
ATOM     18  N   UNL     1       8.193   6.932  18.780  0.00  0.00    +0.000 NA
ATOM     19  N   UNL     1       8.825   8.088  18.944  0.00  0.00    +0.000 NA
ATOM     20  C   UNL     1       8.266   8.976  18.056  0.00  0.00    +0.000 A 
ATOM     21  N   UNL     1       7.319   8.407  17.291  0.00  0.00    +0.000 NA
BRANCH  20  22
ATOM     22  C   UNL     1       8.621  10.391  17.986  0.00  0.00    +0.000 A 
ATOM     23  C   UNL     1       9.865  10.827  18.448  0.00  0.00    +0.000 A 
ATOM     24  C   UNL     1      10.191  12.174  18.333  0.00  0.00    +0.000 A 
ATOM     25  C   UNL     1       9.273  13.046  17.760  0.00  0.00    +0.000 A 
ATOM     26  C   UNL     1       8.059  12.532  17.325  0.00  0.00    +0.000 A 
ATOM     27  N   UNL     1       7.716  11.233  17.425  0.00  0.00    +0.000 NA
ENDBRANCH  20  22
ENDBRANCH   6  17
TORSDOF 4
ENDMDL
MODEL 8
REMARK VINA RESULT:      -8.4      4.518      6.412
REMARK  Name = 
REMARK  4 active torsions:
REMARK  status: ('A' for Active; 'I' for Inactive)
REMARK    1  A    between atoms: N_1  and  C_2
REMARK    2  A    between atoms: C_7  and  C_8
REMARK    3  A    between atoms: C_13  and  N_14
REMARK    4  A    between atoms: C_17  and  C_18
REMARK                            x       y       z     vdW  Elec       q    Type
REMARK                         _______ _______ _______ _____ _____    ______ ____
ROOT
ATOM      1  C   UNL     1       4.460   4.269  17.052  0.00  0.00    +0.000 A 
ATOM      2  C   UNL     1       4.696   3.996  15.696  0.00  0.00    +0.000 A 
ATOM      3  C   UNL     1       5.803   4.522  15.028  0.00  0.00    +0.000 A 
ATOM      4  F   UNL     1       6.024   4.170  13.754  0.00  0.00    +0.000 F 
ATOM      5  C   UNL     1       6.683   5.392  15.652  0.00  0.00    +0.000 A 
ATOM      6  C   UNL     1       6.462   5.709  16.990  0.00  0.00    +0.000 A 
ATOM      7  C   UNL     1       5.378   5.133  17.684  0.00  0.00    +0.000 A 
ENDROOT
BRANCH   1  13
ATOM      8  C   UNL     1       3.196   2.372  18.259  0.00  0.00    +0.000 A 
ATOM      9  C   UNL     1       2.010   1.950  18.880  0.00  0.00    +0.000 A 
ATOM     10  C   UNL     1       1.015   2.871  19.149  0.00  0.00    +0.000 A 
ATOM     11  N   UNL     1       1.093   4.164  18.802  0.00  0.00    +0.000 NA
ATOM     12  C   UNL     1       2.210   4.535  18.128  0.00  0.00    +0.000 A 
ATOM     13  C   UNL     1       3.301   3.707  17.805  0.00  0.00    +0.000 A 
BRANCH   8  14
ATOM     14  N   UNL     1       4.150   1.378  17.956  0.00  0.00    +0.000 N 
ATOM     15  H   UNL     1       4.907   1.694  17.357  0.00  0.00    +0.000 HD
ATOM     16  H   UNL     1       3.739   0.517  17.608  0.00  0.00    +0.000 HD
ENDBRANCH   8  14
ENDBRANCH   1  13
BRANCH   6  17
ATOM     17  N   UNL     1       7.329   6.590  17.673  0.00  0.00    +0.000 N 
ATOM     18  N   UNL     1       8.000   6.263  18.796  0.00  0.00    +0.000 NA
ATOM     19  N   UNL     1       8.593   7.385  19.187  0.00  0.00    +0.000 NA
ATOM     20  C   UNL     1       8.266   8.350  18.265  0.00  0.00    +0.000 A 
ATOM     21  N   UNL     1       7.512   7.865  17.263  0.00  0.00    +0.000 NA
BRANCH  20  22
ATOM     22  C   UNL     1       8.647   9.755  18.384  0.00  0.00    +0.000 A 
ATOM     23  C   UNL     1       8.150  10.696  17.480  0.00  0.00    +0.000 A 
ATOM     24  C   UNL     1       8.499  12.032  17.641  0.00  0.00    +0.000 A 
ATOM     25  C   UNL     1       9.328  12.393  18.696  0.00  0.00    +0.000 A 
ATOM     26  C   UNL     1       9.778  11.396  19.551  0.00  0.00    +0.000 A 
ATOM     27  N   UNL     1       9.458  10.094  19.418  0.00  0.00    +0.000 NA
ENDBRANCH  20  22
ENDBRANCH   6  17
TORSDOF 4
ENDMDL
MODEL 9
REMARK VINA RESULT:      -8.4      4.626      6.367
REMARK  Name = 
REMARK  4 active torsions:
REMARK  status: ('A' for Active; 'I' for Inactive)
REMARK    1  A    between atoms: N_1  and  C_2
REMARK    2  A    between atoms: C_7  and  C_8
REMARK    3  A    between atoms: C_13  and  N_14
REMARK    4  A    between atoms: C_17  and  C_18
REMARK                            x       y       z     vdW  Elec       q    Type
REMARK                         _______ _______ _______ _____ _____    ______ ____
ROOT
ATOM      1  C   UNL     1       4.643   4.370  17.045  0.00  0.00    +0.000 A 
ATOM      2  C   UNL     1       4.936   4.025  15.716  0.00  0.00    +0.000 A 
ATOM      3  C   UNL     1       6.055   4.537  15.059  0.00  0.00    +0.000 A 
ATOM      4  F   UNL     1       6.331   4.117  13.817  0.00  0.00    +0.000 F 
ATOM      5  C   UNL     1       6.893   5.462  15.663  0.00  0.00    +0.000 A 
ATOM      6  C   UNL     1       6.615   5.850  16.971  0.00  0.00    +0.000 A 
ATOM      7  C   UNL     1       5.518   5.290  17.658  0.00  0.00    +0.000 A 
ENDROOT
BRANCH   1  13
ATOM      8  C   UNL     1       2.331   4.572  18.172  0.00  0.00    +0.000 A 
ATOM      9  C   UNL     1       1.336   3.956  18.945  0.00  0.00    +0.000 A 
ATOM     10  C   UNL     1       1.419   2.602  19.213  0.00  0.00    +0.000 A 
ATOM     11  N   UNL     1       2.443   1.832  18.813  0.00  0.00    +0.000 NA
ATOM     12  C   UNL     1       3.437   2.464  18.140  0.00  0.00    +0.000 A 
ATOM     13  C   UNL     1       3.469   3.826  17.788  0.00  0.00    +0.000 A 
BRANCH   8  14
ATOM     14  N   UNL     1       2.225   5.966  17.981  0.00  0.00    +0.000 N 
ATOM     15  H   UNL     1       1.288   6.335  18.109  0.00  0.00    +0.000 HD
ATOM     16  H   UNL     1       2.630   6.285  17.105  0.00  0.00    +0.000 HD
ENDBRANCH   8  14
ENDBRANCH   1  13
BRANCH   6  17
ATOM     17  N   UNL     1       7.438   6.789  17.632  0.00  0.00    +0.000 N 
ATOM     18  N   UNL     1       8.091   6.536  18.785  0.00  0.00    +0.000 NA
ATOM     19  N   UNL     1       8.640   7.692  19.136  0.00  0.00    +0.000 NA
ATOM     20  C   UNL     1       8.305   8.603  18.163  0.00  0.00    +0.000 A 
ATOM     21  N   UNL     1       7.591   8.049  17.168  0.00  0.00    +0.000 NA
BRANCH  20  22
ATOM     22  C   UNL     1       8.639  10.024  18.225  0.00  0.00    +0.000 A 
ATOM     23  C   UNL     1       9.715  10.458  19.002  0.00  0.00    +0.000 A 
ATOM     24  C   UNL     1      10.035  11.811  19.012  0.00  0.00    +0.000 A 
ATOM     25  C   UNL     1       9.278  12.691  18.248  0.00  0.00    +0.000 A 
ATOM     26  C   UNL     1       8.225  12.178  17.503  0.00  0.00    +0.000 A 
ATOM     27  N   UNL     1       7.892  10.873  17.475  0.00  0.00    +0.000 NA
ENDBRANCH  20  22
ENDBRANCH   6  17
TORSDOF 4
ENDMDL
