MODEL 1
REMARK VINA RESULT:      -8.3      0.000      0.000
REMARK  Name = 
REMARK  4 active torsions:
REMARK  status: ('A' for Active; 'I' for Inactive)
REMARK    1  A    between atoms: C_2  and  C_13
REMARK    2  A    between atoms: N_3  and  C_4
REMARK    3  A    between atoms: C_16  and  N_17
REMARK    4  A    between atoms: N_20  and  C_21
REMARK                            x       y       z     vdW  Elec       q    Type
REMARK                         _______ _______ _______ _____ _____    ______ ____
ROOT
ATOM      1  C   UNL     1       0.747   8.901  21.057  0.00  0.00    +0.000 A 
ATOM      2  C   UNL     1       0.792   9.235  22.399  0.00  0.00    +0.000 A 
ATOM      3  N   UNL     1       0.134  10.307  22.942  0.00  0.00    +0.000 NA
ATOM      4  C   UNL     1      -0.612  11.101  22.123  0.00  0.00    +0.000 A 
ATOM      5  C   UNL     1      -0.642  10.840  20.732  0.00  0.00    +0.000 A 
ATOM      6 CL   UNL     1      -1.375  11.872  19.542  0.00  0.00    +0.000 Cl
ATOM      7  C   UNL     1       0.026   9.739  20.217  0.00  0.00    +0.000 A 
ENDROOT
BRANCH   4   8
ATOM      8  N   UNL     1      -1.318  12.151  22.671  0.00  0.00    +0.000 N 
ATOM      9  C   UNL     1      -0.769  13.506  22.849  0.00  0.00    +0.000 C 
ATOM     10  C   UNL     1      -1.863  14.544  22.436  0.00  0.00    +0.000 C 
ATOM     11  N   UNL     1      -3.121  14.263  23.168  0.00  0.00    +0.000 N 
ATOM     12  C   UNL     1      -3.635  12.893  22.999  0.00  0.00    +0.000 C 
ATOM     13  C   UNL     1      -2.546  11.903  23.445  0.00  0.00    +0.000 C 
BRANCH  11  14
ATOM     14  C   UNL     1      -3.919  15.243  23.712  0.00  0.00    +0.000 A 
ATOM     15  C   UNL     1      -5.257  15.382  23.357  0.00  0.00    +0.000 A 
ATOM     16  C   UNL     1      -6.011  16.399  23.918  0.00  0.00    +0.000 A 
ATOM     17  N   UNL     1      -5.526  17.303  24.792  0.00  0.00    +0.000 NA
ATOM     18  C   UNL     1      -4.229  17.170  25.124  0.00  0.00    +0.000 A 
ATOM     19  C   UNL     1      -3.404  16.168  24.629  0.00  0.00    +0.000 A 
ENDBRANCH  11  14
ENDBRANCH   4   8
BRANCH   1  21
ATOM     20  O   UNL     1       1.797   6.860  21.183  0.00  0.00    +0.000 OA
ATOM     21  C   UNL     1       1.488   7.786  20.430  0.00  0.00    +0.000 C 
ATOM     22  N   UNL     1       1.841   7.902  19.096  0.00  0.00    +0.000 N 
ATOM     23  H   UNL     1       1.719   8.796  18.637  0.00  0.00    +0.000 HD
BRANCH  22  24
ATOM     24  C   UNL     1       2.603   6.937  18.376  0.00  0.00    +0.000 A 
ATOM     25  C   UNL     1       2.241   5.578  18.326  0.00  0.00    +0.000 A 
ATOM     26  C   UNL     1       3.025   4.631  17.662  0.00  0.00    +0.000 A 
ATOM     27  C   UNL     1       4.180   5.056  17.037  0.00  0.00    +0.000 A 
ATOM     28  C   UNL     1       4.552   6.403  17.066  0.00  0.00    +0.000 A 
ATOM     29  C   UNL     1       3.767   7.356  17.712  0.00  0.00    +0.000 A 
ATOM     30  C   UNL     1       5.889   6.579  16.406  0.00  0.00    +0.000 C 
ATOM     31  C   UNL     1       5.981   5.297  15.563  0.00  0.00    +0.000 C 
ATOM     32  C   UNL     1       5.197   4.220  16.324  0.00  0.00    +0.000 C 
ENDBRANCH  22  24
ENDBRANCH   1  21
TORSDOF 4
ENDMDL
MODEL 2
REMARK VINA RESULT:      -8.2      1.507      1.708
REMARK  Name = 
REMARK  4 active torsions:
REMARK  status: ('A' for Active; 'I' for Inactive)
REMARK    1  A    between atoms: C_2  and  C_13
REMARK    2  A    between atoms: N_3  and  C_4
REMARK    3  A    between atoms: C_16  and  N_17
REMARK    4  A    between atoms: N_20  and  C_21
REMARK                            x       y       z     vdW  Elec       q    Type
REMARK                         _______ _______ _______ _____ _____    ______ ____
ROOT
ATOM      1  C   UNL     1       0.927   9.982  19.328  0.00  0.00    +0.000 A 
ATOM      2  C   UNL     1       0.327  11.140  18.867  0.00  0.00    +0.000 A 
ATOM      3  N   UNL     1      -0.404  11.988  19.656  0.00  0.00    +0.000 NA
ATOM      4  C   UNL     1      -0.558  11.686  20.976  0.00  0.00    +0.000 A 
ATOM      5  C   UNL     1      -0.016  10.481  21.486  0.00  0.00    +0.000 A 
ATOM      6 CL   UNL     1      -0.298   9.862  23.084  0.00  0.00    +0.000 Cl
ATOM      7  C   UNL     1       0.729   9.650  20.662  0.00  0.00    +0.000 A 
ENDROOT
BRANCH   4   8
ATOM      8  N   UNL     1      -1.247  12.562  21.788  0.00  0.00    +0.000 N 
ATOM      9  C   UNL     1      -0.599  13.500  22.720  0.00  0.00    +0.000 C 
ATOM     10  C   UNL     1      -1.331  14.879  22.627  0.00  0.00    +0.000 C 
ATOM     11  N   UNL     1      -2.788  14.686  22.823  0.00  0.00    +0.000 N 
ATOM     12  C   UNL     1      -3.408  13.722  21.899  0.00  0.00    +0.000 C 
ATOM     13  C   UNL     1      -2.685  12.371  22.042  0.00  0.00    +0.000 C 
BRANCH  11  14
ATOM     14  C   UNL     1      -3.572  15.529  23.577  0.00  0.00    +0.000 A 
ATOM     15  C   UNL     1      -4.958  15.537  23.468  0.00  0.00    +0.000 A 
ATOM     16  C   UNL     1      -5.699  16.421  24.235  0.00  0.00    +0.000 A 
ATOM     17  N   UNL     1      -5.161  17.314  25.088  0.00  0.00    +0.000 NA
ATOM     18  C   UNL     1      -3.819  17.309  25.181  0.00  0.00    +0.000 A 
ATOM     19  C   UNL     1      -2.998  16.445  24.469  0.00  0.00    +0.000 A 
ENDBRANCH  11  14
ENDBRANCH   4   8
BRANCH   1  21
ATOM     20  O   UNL     1       1.820   9.335  17.311  0.00  0.00    +0.000 OA
ATOM     21  C   UNL     1       1.674   9.017  18.493  0.00  0.00    +0.000 C 
ATOM     22  N   UNL     1       2.071   7.822  19.069  0.00  0.00    +0.000 N 
ATOM     23  H   UNL     1       1.712   7.581  19.984  0.00  0.00    +0.000 HD
BRANCH  22  24
ATOM     24  C   UNL     1       2.744   6.776  18.374  0.00  0.00    +0.000 A 
ATOM     25  C   UNL     1       2.306   5.440  18.419  0.00  0.00    +0.000 A 
ATOM     26  C   UNL     1       3.005   4.413  17.778  0.00  0.00    +0.000 A 
ATOM     27  C   UNL     1       4.150   4.736  17.079  0.00  0.00    +0.000 A 
ATOM     28  C   UNL     1       4.597   6.059  17.014  0.00  0.00    +0.000 A 
ATOM     29  C   UNL     1       3.897   7.089  17.637  0.00  0.00    +0.000 A 
ATOM     30  C   UNL     1       5.909   6.120  16.287  0.00  0.00    +0.000 C 
ATOM     31  C   UNL     1       5.891   4.791  15.517  0.00  0.00    +0.000 C 
ATOM     32  C   UNL     1       5.085   3.804  16.373  0.00  0.00    +0.000 C 
ENDBRANCH  22  24
ENDBRANCH   1  21
TORSDOF 4
ENDMDL
MODEL 3
REMARK VINA RESULT:      -8.1      1.327      1.460
REMARK  Name = 
REMARK  4 active torsions:
REMARK  status: ('A' for Active; 'I' for Inactive)
REMARK    1  A    between atoms: C_2  and  C_13
REMARK    2  A    between atoms: N_3  and  C_4
REMARK    3  A    between atoms: C_16  and  N_17
REMARK    4  A    between atoms: N_20  and  C_21
REMARK                            x       y       z     vdW  Elec       q    Type
REMARK                         _______ _______ _______ _____ _____    ______ ____
ROOT
ATOM      1  C   UNL     1       0.958   9.634  19.322  0.00  0.00    +0.000 A 
ATOM      2  C   UNL     1       0.391   9.249  20.524  0.00  0.00    +0.000 A 
ATOM      3  N   UNL     1      -0.353  10.080  21.318  0.00  0.00    +0.000 NA
ATOM      4  C   UNL     1      -0.555  11.366  20.914  0.00  0.00    +0.000 A 
ATOM      5  C   UNL     1       0.054  11.829  19.723  0.00  0.00    +0.000 A 
ATOM      6 CL   UNL     1       0.058  13.481  19.185  0.00  0.00    +0.000 Cl
ATOM      7  C   UNL     1       0.792  10.958  18.935  0.00  0.00    +0.000 A 
ENDROOT
BRANCH   4   8
ATOM      8  N   UNL     1      -1.347  12.193  21.683  0.00  0.00    +0.000 N 
ATOM      9  C   UNL     1      -1.115  12.453  23.114  0.00  0.00    +0.000 C 
ATOM     10  C   UNL     1      -1.327  13.979  23.383  0.00  0.00    +0.000 C 
ATOM     11  N   UNL     1      -2.651  14.399  22.863  0.00  0.00    +0.000 N 
ATOM     12  C   UNL     1      -2.871  14.102  21.437  0.00  0.00    +0.000 C 
ATOM     13  C   UNL     1      -2.686  12.590  21.217  0.00  0.00    +0.000 C 
BRANCH  11  14
ATOM     14  C   UNL     1      -3.494  15.256  23.532  0.00  0.00    +0.000 A 
ATOM     15  C   UNL     1      -4.865  15.270  23.298  0.00  0.00    +0.000 A 
ATOM     16  C   UNL     1      -5.667  16.167  23.984  0.00  0.00    +0.000 A 
ATOM     17  N   UNL     1      -5.202  17.067  24.873  0.00  0.00    +0.000 NA
ATOM     18  C   UNL     1      -3.874  17.055  25.088  0.00  0.00    +0.000 A 
ATOM     19  C   UNL     1      -2.997  16.178  24.463  0.00  0.00    +0.000 A 
ENDBRANCH  11  14
ENDBRANCH   4   8
BRANCH   1  21
ATOM     20  O   UNL     1       2.080   9.238  17.356  0.00  0.00    +0.000 OA
ATOM     21  C   UNL     1       1.812   8.781  18.468  0.00  0.00    +0.000 C 
ATOM     22  N   UNL     1       2.168   7.529  18.941  0.00  0.00    +0.000 N 
ATOM     23  H   UNL     1       1.716   7.178  19.776  0.00  0.00    +0.000 HD
BRANCH  22  24
ATOM     24  C   UNL     1       2.935   6.578  18.207  0.00  0.00    +0.000 A 
ATOM     25  C   UNL     1       2.507   5.251  18.020  0.00  0.00    +0.000 A 
ATOM     26  C   UNL     1       3.293   4.312  17.345  0.00  0.00    +0.000 A 
ATOM     27  C   UNL     1       4.516   4.715  16.849  0.00  0.00    +0.000 A 
ATOM     28  C   UNL     1       4.955   6.032  17.016  0.00  0.00    +0.000 A 
ATOM     29  C   UNL     1       4.171   6.977  17.673  0.00  0.00    +0.000 A 
ATOM     30  C   UNL     1       6.349   6.178  16.479  0.00  0.00    +0.000 C 
ATOM     31  C   UNL     1       6.443   4.961  15.545  0.00  0.00    +0.000 C 
ATOM     32  C   UNL     1       5.543   3.877  16.153  0.00  0.00    +0.000 C 
ENDBRANCH  22  24
ENDBRANCH   1  21
TORSDOF 4
ENDMDL
MODEL 4
REMARK VINA RESULT:      -8.0      0.732      1.180
REMARK  Name = 
REMARK  4 active torsions:
REMARK  status: ('A' for Active; 'I' for Inactive)
REMARK    1  A    between atoms: C_2  and  C_13
REMARK    2  A    between atoms: N_3  and  C_4
REMARK    3  A    between atoms: C_16  and  N_17
REMARK    4  A    between atoms: N_20  and  C_21
REMARK                            x       y       z     vdW  Elec       q    Type
REMARK                         _______ _______ _______ _____ _____    ______ ____
ROOT
ATOM      1  C   UNL     1       0.715   9.201  20.904  0.00  0.00    +0.000 A 
ATOM      2  C   UNL     1       0.674   9.556  22.240  0.00  0.00    +0.000 A 
ATOM      3  N   UNL     1       0.019  10.660  22.718  0.00  0.00    +0.000 NA
ATOM      4  C   UNL     1      -0.634  11.468  21.835  0.00  0.00    +0.000 A 
ATOM      5  C   UNL     1      -0.571  11.185  20.449  0.00  0.00    +0.000 A 
ATOM      6 CL   UNL     1      -1.175  12.223  19.194  0.00  0.00    +0.000 Cl
ATOM      7  C   UNL     1       0.091  10.051  20.000  0.00  0.00    +0.000 A 
ENDROOT
BRANCH   4   8
ATOM      8  N   UNL     1      -1.338  12.552  22.314  0.00  0.00    +0.000 N 
ATOM      9  C   UNL     1      -2.808  12.608  22.390  0.00  0.00    +0.000 C 
ATOM     10  C   UNL     1      -3.212  13.250  23.757  0.00  0.00    +0.000 C 
ATOM     11  N   UNL     1      -2.513  14.548  23.926  0.00  0.00    +0.000 N 
ATOM     12  C   UNL     1      -1.047  14.472  23.817  0.00  0.00    +0.000 C 
ATOM     13  C   UNL     1      -0.687  13.866  22.449  0.00  0.00    +0.000 C 
BRANCH  11  14
ATOM     14  C   UNL     1      -3.116  15.674  24.436  0.00  0.00    +0.000 A 
ATOM     15  C   UNL     1      -4.496  15.842  24.416  0.00  0.00    +0.000 A 
ATOM     16  C   UNL     1      -5.051  17.005  24.925  0.00  0.00    +0.000 A 
ATOM     17  N   UNL     1      -4.331  18.024  25.433  0.00  0.00    +0.000 NA
ATOM     18  C   UNL     1      -2.996  17.860  25.440  0.00  0.00    +0.000 A 
ATOM     19  C   UNL     1      -2.354  16.721  24.973  0.00  0.00    +0.000 A 
ENDBRANCH  11  14
ENDBRANCH   4   8
BRANCH   1  21
ATOM     20  O   UNL     1       1.766   7.173  21.159  0.00  0.00    +0.000 OA
ATOM     21  C   UNL     1       1.457   8.049  20.348  0.00  0.00    +0.000 C 
ATOM     22  N   UNL     1       1.812   8.081  19.010  0.00  0.00    +0.000 N 
ATOM     23  H   UNL     1       1.689   8.944  18.495  0.00  0.00    +0.000 HD
BRANCH  22  24
ATOM     24  C   UNL     1       2.575   7.073  18.353  0.00  0.00    +0.000 A 
ATOM     25  C   UNL     1       2.164   5.728  18.311  0.00  0.00    +0.000 A 
ATOM     26  C   UNL     1       2.948   4.738  17.710  0.00  0.00    +0.000 A 
ATOM     27  C   UNL     1       4.150   5.106  17.143  0.00  0.00    +0.000 A 
ATOM     28  C   UNL     1       4.571   6.439  17.166  0.00  0.00    +0.000 A 
ATOM     29  C   UNL     1       3.789   7.433  17.748  0.00  0.00    +0.000 A 
ATOM     30  C   UNL     1       5.948   6.550  16.577  0.00  0.00    +0.000 C 
ATOM     31  C   UNL     1       6.037   5.248  15.767  0.00  0.00    +0.000 C 
ATOM     32  C   UNL     1       5.172   4.217  16.504  0.00  0.00    +0.000 C 
ENDBRANCH  22  24
ENDBRANCH   1  21
TORSDOF 4
ENDMDL
MODEL 5
REMARK VINA RESULT:      -8.0      1.369      1.900
REMARK  Name = 
REMARK  4 active torsions:
REMARK  status: ('A' for Active; 'I' for Inactive)
REMARK    1  A    between atoms: C_2  and  C_13
REMARK    2  A    between atoms: N_3  and  C_4
REMARK    3  A    between atoms: C_16  and  N_17
REMARK    4  A    between atoms: N_20  and  C_21
REMARK                            x       y       z     vdW  Elec       q    Type
REMARK                         _______ _______ _______ _____ _____    ______ ____
ROOT
ATOM      1  C   UNL     1       1.159   8.881  20.091  0.00  0.00    +0.000 A 
ATOM      2  C   UNL     1       0.712   9.901  19.271  0.00  0.00    +0.000 A 
ATOM      3  N   UNL     1      -0.059  10.948  19.704  0.00  0.00    +0.000 NA
ATOM      4  C   UNL     1      -0.416  10.999  21.018  0.00  0.00    +0.000 A 
ATOM      5  C   UNL     1      -0.037   9.947  21.888  0.00  0.00    +0.000 A 
ATOM      6 CL   UNL     1      -0.582   9.768  23.527  0.00  0.00    +0.000 Cl
ATOM      7  C   UNL     1       0.754   8.908  21.419  0.00  0.00    +0.000 A 
ENDROOT
BRANCH   4   8
ATOM      8  N   UNL     1      -1.148  12.076  21.472  0.00  0.00    +0.000 N 
ATOM      9  C   UNL     1      -2.495  12.416  20.985  0.00  0.00    +0.000 C 
ATOM     10  C   UNL     1      -3.380  12.818  22.210  0.00  0.00    +0.000 C 
ATOM     11  N   UNL     1      -2.697  13.876  22.994  0.00  0.00    +0.000 N 
ATOM     12  C   UNL     1      -1.340  13.524  23.445  0.00  0.00    +0.000 C 
ATOM     13  C   UNL     1      -0.492  13.166  22.212  0.00  0.00    +0.000 C 
BRANCH  11  14
ATOM     14  C   UNL     1      -3.347  14.965  23.527  0.00  0.00    +0.000 A 
ATOM     15  C   UNL     1      -2.653  16.022  24.108  0.00  0.00    +0.000 A 
ATOM     16  C   UNL     1      -3.356  17.086  24.649  0.00  0.00    +0.000 A 
ATOM     17  N   UNL     1      -4.701  17.166  24.675  0.00  0.00    +0.000 NA
ATOM     18  C   UNL     1      -5.367  16.136  24.121  0.00  0.00    +0.000 A 
ATOM     19  C   UNL     1      -4.746  15.040  23.536  0.00  0.00    +0.000 A 
ENDBRANCH  11  14
ENDBRANCH   4   8
BRANCH   1  21
ATOM     20  O   UNL     1       2.212   6.884  20.521  0.00  0.00    +0.000 OA
ATOM     21  C   UNL     1       1.944   7.710  19.646  0.00  0.00    +0.000 C 
ATOM     22  N   UNL     1       2.378   7.672  18.331  0.00  0.00    +0.000 N 
ATOM     23  H   UNL     1       2.278   8.504  17.763  0.00  0.00    +0.000 HD
BRANCH  22  24
ATOM     24  C   UNL     1       3.189   6.639  17.778  0.00  0.00    +0.000 A 
ATOM     25  C   UNL     1       2.773   5.296  17.742  0.00  0.00    +0.000 A 
ATOM     26  C   UNL     1       3.599   4.283  17.246  0.00  0.00    +0.000 A 
ATOM     27  C   UNL     1       4.851   4.626  16.778  0.00  0.00    +0.000 A 
ATOM     28  C   UNL     1       5.279   5.958  16.796  0.00  0.00    +0.000 A 
ATOM     29  C   UNL     1       4.455   6.974  17.274  0.00  0.00    +0.000 A 
ATOM     30  C   UNL     1       6.704   6.042  16.331  0.00  0.00    +0.000 C 
ATOM     31  C   UNL     1       6.855   4.714  15.574  0.00  0.00    +0.000 C 
ATOM     32  C   UNL     1       5.919   3.713  16.262  0.00  0.00    +0.000 C 
ENDBRANCH  22  24
ENDBRANCH   1  21
TORSDOF 4
ENDMDL
MODEL 6
REMARK VINA RESULT:      -7.9      0.519      1.610
REMARK  Name = 
REMARK  4 active torsions:
REMARK  status: ('A' for Active; 'I' for Inactive)
REMARK    1  A    between atoms: C_2  and  C_13
REMARK    2  A    between atoms: N_3  and  C_4
REMARK    3  A    between atoms: C_16  and  N_17
REMARK    4  A    between atoms: N_20  and  C_21
REMARK                            x       y       z     vdW  Elec       q    Type
REMARK                         _______ _______ _______ _____ _____    ______ ____
ROOT
ATOM      1  C   UNL     1       0.699   9.101  21.163  0.00  0.00    +0.000 A 
ATOM      2  C   UNL     1       0.534   9.312  22.520  0.00  0.00    +0.000 A 
ATOM      3  N   UNL     1      -0.147  10.375  23.050  0.00  0.00    +0.000 NA
ATOM      4  C   UNL     1      -0.699  11.289  22.203  0.00  0.00    +0.000 A 
ATOM      5  C   UNL     1      -0.507  11.153  20.807  0.00  0.00    +0.000 A 
ATOM      6 CL   UNL     1      -0.971  12.334  19.620  0.00  0.00    +0.000 Cl
ATOM      7  C   UNL     1       0.178  10.057  20.302  0.00  0.00    +0.000 A 
ENDROOT
BRANCH   4   8
ATOM      8  N   UNL     1      -1.430  12.333  22.728  0.00  0.00    +0.000 N 
ATOM      9  C   UNL     1      -0.872  13.668  23.005  0.00  0.00    +0.000 C 
ATOM     10  C   UNL     1      -1.906  14.745  22.539  0.00  0.00    +0.000 C 
ATOM     11  N   UNL     1      -3.229  14.466  23.149  0.00  0.00    +0.000 N 
ATOM     12  C   UNL     1      -3.752  13.115  22.883  0.00  0.00    +0.000 C 
ATOM     13  C   UNL     1      -2.725  12.084  23.383  0.00  0.00    +0.000 C 
BRANCH  11  14
ATOM     14  C   UNL     1      -4.052  15.442  23.659  0.00  0.00    +0.000 A 
ATOM     15  C   UNL     1      -3.636  16.295  24.677  0.00  0.00    +0.000 A 
ATOM     16  C   UNL     1      -4.511  17.249  25.170  0.00  0.00    +0.000 A 
ATOM     17  N   UNL     1      -5.779  17.403  24.739  0.00  0.00    +0.000 NA
ATOM     18  C   UNL     1      -6.179  16.568  23.762  0.00  0.00    +0.000 A 
ATOM     19  C   UNL     1      -5.364  15.599  23.193  0.00  0.00    +0.000 A 
ENDBRANCH  11  14
ENDBRANCH   4   8
BRANCH   1  21
ATOM     20  O   UNL     1       1.776   7.076  21.322  0.00  0.00    +0.000 OA
ATOM     21  C   UNL     1       1.474   7.996  20.559  0.00  0.00    +0.000 C 
ATOM     22  N   UNL     1       1.863   8.115  19.235  0.00  0.00    +0.000 N 
ATOM     23  H   UNL     1       1.740   9.006  18.771  0.00  0.00    +0.000 HD
BRANCH  22  24
ATOM     24  C   UNL     1       2.660   7.160  18.539  0.00  0.00    +0.000 A 
ATOM     25  C   UNL     1       3.825   7.522  17.838  0.00  0.00    +0.000 A 
ATOM     26  C   UNL     1       4.569   6.586  17.114  0.00  0.00    +0.000 A 
ATOM     27  C   UNL     1       4.140   5.274  17.101  0.00  0.00    +0.000 A 
ATOM     28  C   UNL     1       2.991   4.893  17.800  0.00  0.00    +0.000 A 
ATOM     29  C   UNL     1       2.253   5.816  18.536  0.00  0.00    +0.000 A 
ATOM     30  C   UNL     1       2.691   3.445  17.539  0.00  0.00    +0.000 C 
ATOM     31  C   UNL     1       4.056   2.936  17.049  0.00  0.00    +0.000 C 
ATOM     32  C   UNL     1       4.737   4.123  16.354  0.00  0.00    +0.000 C 
ENDBRANCH  22  24
ENDBRANCH   1  21
TORSDOF 4
ENDMDL
MODEL 7
REMARK VINA RESULT:      -7.9      1.492      2.300
REMARK  Name = 
REMARK  4 active torsions:
REMARK  status: ('A' for Active; 'I' for Inactive)
REMARK    1  A    between atoms: C_2  and  C_13
REMARK    2  A    between atoms: N_3  and  C_4
REMARK    3  A    between atoms: C_16  and  N_17
REMARK    4  A    between atoms: N_20  and  C_21
REMARK                            x       y       z     vdW  Elec       q    Type
REMARK                         _______ _______ _______ _____ _____    ______ ____
ROOT
ATOM      1  C   UNL     1       0.899   9.314  20.512  0.00  0.00    +0.000 A 
ATOM      2  C   UNL     1       0.975   9.548  21.873  0.00  0.00    +0.000 A 
ATOM      3  N   UNL     1       0.333  10.578  22.508  0.00  0.00    +0.000 NA
ATOM      4  C   UNL     1      -0.427  11.433  21.766  0.00  0.00    +0.000 A 
ATOM      5  C   UNL     1      -0.488  11.275  20.361  0.00  0.00    +0.000 A 
ATOM      6 CL   UNL     1      -1.243  12.393  19.266  0.00  0.00    +0.000 Cl
ATOM      7  C   UNL     1       0.164  10.213  19.751  0.00  0.00    +0.000 A 
ENDROOT
BRANCH   4   8
ATOM      8  N   UNL     1      -1.118  12.441  22.405  0.00  0.00    +0.000 N 
ATOM      9  C   UNL     1      -0.560  13.777  22.671  0.00  0.00    +0.000 C 
ATOM     10  C   UNL     1      -1.658  14.846  22.359  0.00  0.00    +0.000 C 
ATOM     11  N   UNL     1      -2.902  14.515  23.095  0.00  0.00    +0.000 N 
ATOM     12  C   UNL     1      -3.425  13.163  22.837  0.00  0.00    +0.000 C 
ATOM     13  C   UNL     1      -2.330  12.139  23.185  0.00  0.00    +0.000 C 
BRANCH  11  14
ATOM     14  C   UNL     1      -3.684  15.454  23.726  0.00  0.00    +0.000 A 
ATOM     15  C   UNL     1      -3.137  16.429  24.554  0.00  0.00    +0.000 A 
ATOM     16  C   UNL     1      -3.971  17.339  25.183  0.00  0.00    +0.000 A 
ATOM     17  N   UNL     1      -5.314  17.336  25.067  0.00  0.00    +0.000 NA
ATOM     18  C   UNL     1      -5.838  16.384  24.274  0.00  0.00    +0.000 A 
ATOM     19  C   UNL     1      -5.078  15.446  23.586  0.00  0.00    +0.000 A 
ENDBRANCH  11  14
ENDBRANCH   4   8
BRANCH   1  21
ATOM     20  O   UNL     1       1.886   8.486  18.608  0.00  0.00    +0.000 OA
ATOM     21  C   UNL     1       1.622   8.246  19.788  0.00  0.00    +0.000 C 
ATOM     22  N   UNL     1       1.869   7.055  20.451  0.00  0.00    +0.000 N 
ATOM     23  H   UNL     1       1.421   6.895  21.344  0.00  0.00    +0.000 HD
BRANCH  22  24
ATOM     24  C   UNL     1       2.501   5.921  19.864  0.00  0.00    +0.000 A 
ATOM     25  C   UNL     1       3.833   5.954  19.411  0.00  0.00    +0.000 A 
ATOM     26  C   UNL     1       4.426   4.852  18.788  0.00  0.00    +0.000 A 
ATOM     27  C   UNL     1       3.675   3.706  18.626  0.00  0.00    +0.000 A 
ATOM     28  C   UNL     1       2.353   3.650  19.079  0.00  0.00    +0.000 A 
ATOM     29  C   UNL     1       1.760   4.738  19.715  0.00  0.00    +0.000 A 
ATOM     30  C   UNL     1       1.735   2.338  18.690  0.00  0.00    +0.000 C 
ATOM     31  C   UNL     1       2.983   1.479  18.435  0.00  0.00    +0.000 C 
ATOM     32  C   UNL     1       4.076   2.437  17.941  0.00  0.00    +0.000 C 
ENDBRANCH  22  24
ENDBRANCH   1  21
TORSDOF 4
ENDMDL
MODEL 8
REMARK VINA RESULT:      -7.9      1.812      2.533
REMARK  Name = 
REMARK  4 active torsions:
REMARK  status: ('A' for Active; 'I' for Inactive)
REMARK    1  A    between atoms: C_2  and  C_13
REMARK    2  A    between atoms: N_3  and  C_4
REMARK    3  A    between atoms: C_16  and  N_17
REMARK    4  A    between atoms: N_20  and  C_21
REMARK                            x       y       z     vdW  Elec       q    Type
REMARK                         _______ _______ _______ _____ _____    ______ ____
ROOT
ATOM      1  C   UNL     1       0.722   8.902  21.069  0.00  0.00    +0.000 A 
ATOM      2  C   UNL     1       0.693   9.317  22.388  0.00  0.00    +0.000 A 
ATOM      3  N   UNL     1       0.031  10.434  22.823  0.00  0.00    +0.000 NA
ATOM      4  C   UNL     1      -0.643  11.193  21.914  0.00  0.00    +0.000 A 
ATOM      5  C   UNL     1      -0.594  10.847  20.541  0.00  0.00    +0.000 A 
ATOM      6 CL   UNL     1      -1.227  11.819  19.248  0.00  0.00    +0.000 Cl
ATOM      7  C   UNL     1       0.076   9.702  20.136  0.00  0.00    +0.000 A 
ENDROOT
BRANCH   4   8
ATOM      8  N   UNL     1      -1.355  12.289  22.352  0.00  0.00    +0.000 N 
ATOM      9  C   UNL     1      -2.821  12.314  22.491  0.00  0.00    +0.000 C 
ATOM     10  C   UNL     1      -3.182  13.037  23.829  0.00  0.00    +0.000 C 
ATOM     11  N   UNL     1      -2.513  14.359  23.880  0.00  0.00    +0.000 N 
ATOM     12  C   UNL     1      -1.051  14.312  23.709  0.00  0.00    +0.000 C 
ATOM     13  C   UNL     1      -0.736  13.624  22.369  0.00  0.00    +0.000 C 
BRANCH  11  14
ATOM     14  C   UNL     1      -3.123  15.502  24.342  0.00  0.00    +0.000 A 
ATOM     15  C   UNL     1      -2.404  16.517  24.967  0.00  0.00    +0.000 A 
ATOM     16  C   UNL     1      -3.070  17.638  25.433  0.00  0.00    +0.000 A 
ATOM     17  N   UNL     1      -4.403  17.816  25.343  0.00  0.00    +0.000 NA
ATOM     18  C   UNL     1      -5.094  16.826  24.748  0.00  0.00    +0.000 A 
ATOM     19  C   UNL     1      -4.508  15.678  24.231  0.00  0.00    +0.000 A 
ENDBRANCH  11  14
ENDBRANCH   4   8
BRANCH   1  21
ATOM     20  O   UNL     1       2.323   7.982  19.701  0.00  0.00    +0.000 OA
ATOM     21  C   UNL     1       1.472   7.735  20.557  0.00  0.00    +0.000 C 
ATOM     22  N   UNL     1       1.112   6.476  21.008  0.00  0.00    +0.000 N 
ATOM     23  H   UNL     1       0.262   6.377  21.548  0.00  0.00    +0.000 HD
BRANCH  22  24
ATOM     24  C   UNL     1       1.704   5.259  20.561  0.00  0.00    +0.000 A 
ATOM     25  C   UNL     1       2.196   4.290  21.454  0.00  0.00    +0.000 A 
ATOM     26  C   UNL     1       2.823   3.125  21.004  0.00  0.00    +0.000 A 
ATOM     27  C   UNL     1       2.950   2.930  19.644  0.00  0.00    +0.000 A 
ATOM     28  C   UNL     1       2.459   3.877  18.740  0.00  0.00    +0.000 A 
ATOM     29  C   UNL     1       1.819   5.033  19.180  0.00  0.00    +0.000 A 
ATOM     30  C   UNL     1       2.815   3.476  17.337  0.00  0.00    +0.000 C 
ATOM     31  C   UNL     1       3.097   1.976  17.513  0.00  0.00    +0.000 C 
ATOM     32  C   UNL     1       3.632   1.799  18.940  0.00  0.00    +0.000 C 
ENDBRANCH  22  24
ENDBRANCH   1  21
TORSDOF 4
ENDMDL
MODEL 9
REMARK VINA RESULT:      -7.9      0.844      1.791
REMARK  Name = 
REMARK  4 active torsions:
REMARK  status: ('A' for Active; 'I' for Inactive)
REMARK    1  A    between atoms: C_2  and  C_13
REMARK    2  A    between atoms: N_3  and  C_4
REMARK    3  A    between atoms: C_16  and  N_17
REMARK    4  A    between atoms: N_20  and  C_21
REMARK                            x       y       z     vdW  Elec       q    Type
REMARK                         _______ _______ _______ _____ _____    ______ ____
ROOT
ATOM      1  C   UNL     1       0.680   9.253  20.956  0.00  0.00    +0.000 A 
ATOM      2  C   UNL     1       0.619   9.614  22.290  0.00  0.00    +0.000 A 
ATOM      3  N   UNL     1      -0.053  10.714  22.754  0.00  0.00    +0.000 NA
ATOM      4  C   UNL     1      -0.704  11.510  21.859  0.00  0.00    +0.000 A 
ATOM      5  C   UNL     1      -0.622  11.220  20.476  0.00  0.00    +0.000 A 
ATOM      6 CL   UNL     1      -1.223  12.245  19.208  0.00  0.00    +0.000 Cl
ATOM      7  C   UNL     1       0.057  10.092  20.041  0.00  0.00    +0.000 A 
ENDROOT
BRANCH   4   8
ATOM      8  N   UNL     1      -1.426  12.589  22.324  0.00  0.00    +0.000 N 
ATOM      9  C   UNL     1      -2.897  12.625  22.391  0.00  0.00    +0.000 C 
ATOM     10  C   UNL     1      -3.318  13.275  23.749  0.00  0.00    +0.000 C 
ATOM     11  N   UNL     1      -2.638  14.583  23.910  0.00  0.00    +0.000 N 
ATOM     12  C   UNL     1      -1.170  14.527  23.810  0.00  0.00    +0.000 C 
ATOM     13  C   UNL     1      -0.795  13.912  22.450  0.00  0.00    +0.000 C 
BRANCH  11  14
ATOM     14  C   UNL     1      -3.259  15.706  24.406  0.00  0.00    +0.000 A 
ATOM     15  C   UNL     1      -4.634  15.891  24.305  0.00  0.00    +0.000 A 
ATOM     16  C   UNL     1      -5.207  17.049  24.802  0.00  0.00    +0.000 A 
ATOM     17  N   UNL     1      -4.509  18.049  25.376  0.00  0.00    +0.000 NA
ATOM     18  C   UNL     1      -3.178  17.869  25.462  0.00  0.00    +0.000 A 
ATOM     19  C   UNL     1      -2.521  16.732  25.011  0.00  0.00    +0.000 A 
ENDBRANCH  11  14
ENDBRANCH   4   8
BRANCH   1  21
ATOM     20  O   UNL     1       1.696   7.209  21.221  0.00  0.00    +0.000 OA
ATOM     21  C   UNL     1       1.441   8.107  20.416  0.00  0.00    +0.000 C 
ATOM     22  N   UNL     1       1.870   8.165  19.101  0.00  0.00    +0.000 N 
ATOM     23  H   UNL     1       1.785   9.041  18.600  0.00  0.00    +0.000 HD
BRANCH  22  24
ATOM     24  C   UNL     1       2.660   7.165  18.464  0.00  0.00    +0.000 A 
ATOM     25  C   UNL     1       3.859   7.468  17.793  0.00  0.00    +0.000 A 
ATOM     26  C   UNL     1       4.598   6.486  17.126  0.00  0.00    +0.000 A 
ATOM     27  C   UNL     1       4.129   5.189  17.140  0.00  0.00    +0.000 A 
ATOM     28  C   UNL     1       2.945   4.865  17.810  0.00  0.00    +0.000 A 
ATOM     29  C   UNL     1       2.212   5.835  18.490  0.00  0.00    +0.000 A 
ATOM     30  C   UNL     1       2.609   3.419  17.585  0.00  0.00    +0.000 C 
ATOM     31  C   UNL     1       3.973   2.854  17.160  0.00  0.00    +0.000 C 
ATOM     32  C   UNL     1       4.714   3.996  16.451  0.00  0.00    +0.000 C 
ENDBRANCH  22  24
ENDBRANCH   1  21
TORSDOF 4
ENDMDL
