MODEL 1
REMARK VINA RESULT:      -8.8      0.000      0.000
REMARK  Name = 
REMARK  4 active torsions:
REMARK  status: ('A' for Active; 'I' for Inactive)
REMARK    1  A    between atoms: C_1  and  C_2
REMARK    2  A    between atoms: C_2  and  C_3
REMARK    3  A    between atoms: C_9  and  O_10
REMARK    4  A    between atoms: C_14  and  C_15
REMARK                            x       y       z     vdW  Elec       q    Type
REMARK                         _______ _______ _______ _____ _____    ______ ____
ROOT
ATOM      1  C   UNL     1       1.319   4.824  19.694  0.00  0.00    +0.000 C 
ATOM      2  C   UNL     1       2.075   3.487  19.633  0.00  0.00    +0.000 C 
ATOM      3  C   UNL     1       1.457   2.509  20.638  0.00  0.00    +0.000 C 
ATOM      4  C   UNL     1       2.001   2.899  18.241  0.00  0.00    +0.000 C 
ATOM      5  C   UNL     1       2.991   3.060  17.354  0.00  0.00    +0.000 C 
ATOM      6  C   UNL     1       4.147   3.859  17.758  0.00  0.00    +0.000 A 
ATOM      7  C   UNL     1       4.311   4.145  19.120  0.00  0.00    +0.000 A 
ATOM      8  C   UNL     1       5.413   4.865  19.572  0.00  0.00    +0.000 A 
ATOM      9  C   UNL     1       6.329   5.368  18.652  0.00  0.00    +0.000 A 
ATOM     10  C   UNL     1       6.158   5.136  17.281  0.00  0.00    +0.000 A 
ATOM     11  C   UNL     1       5.087   4.350  16.834  0.00  0.00    +0.000 A 
ATOM     12  O   UNL     1       4.904   3.992  15.523  0.00  0.00    +0.000 OA
ATOM     13  C   UNL     1       5.645   4.726  14.541  0.00  0.00    +0.000 C 
ATOM     14  C   UNL     1       7.086   4.964  14.950  0.00  0.00    +0.000 C 
ATOM     15  C   UNL     1       7.088   5.677  16.264  0.00  0.00    +0.000 C 
ATOM     16  O   UNL     1       7.826   6.635  16.468  0.00  0.00    +0.000 OA
ATOM     17  O   UNL     1       3.431   3.718  20.080  0.00  0.00    +0.000 OA
ENDROOT
BRANCH  13  18
ATOM     18  C   UNL     1       5.637   3.928  13.245  0.00  0.00    +0.000 A 
ATOM     19  C   UNL     1       6.834   3.407  12.729  0.00  0.00    +0.000 A 
ATOM     20  C   UNL     1       6.819   2.592  11.594  0.00  0.00    +0.000 A 
ATOM     21  C   UNL     1       5.614   2.290  10.962  0.00  0.00    +0.000 A 
ATOM     22  C   UNL     1       4.421   2.808  11.459  0.00  0.00    +0.000 A 
ATOM     23  C   UNL     1       4.432   3.619  12.592  0.00  0.00    +0.000 A 
ENDBRANCH  13  18
BRANCH   9  24
ATOM     24  O   UNL     1       7.415   6.054  19.115  0.00  0.00    +0.000 OA
ATOM     25  H   UNL     1       7.197   6.517  19.940  0.00  0.00    +0.000 HD
ENDBRANCH   9  24
TORSDOF 2
ENDMDL
MODEL 2
REMARK VINA RESULT:      -7.7      3.120      7.465
REMARK  Name = 
REMARK  4 active torsions:
REMARK  status: ('A' for Active; 'I' for Inactive)
REMARK    1  A    between atoms: C_1  and  C_2
REMARK    2  A    between atoms: C_2  and  C_3
REMARK    3  A    between atoms: C_9  and  O_10
REMARK    4  A    between atoms: C_14  and  C_15
REMARK                            x       y       z     vdW  Elec       q    Type
REMARK                         _______ _______ _______ _____ _____    ______ ____
ROOT
ATOM      1  C   UNL     1       5.091   4.134  14.487  0.00  0.00    +0.000 C 
ATOM      2  C   UNL     1       6.037   4.925  15.404  0.00  0.00    +0.000 C 
ATOM      3  C   UNL     1       7.443   4.932  14.796  0.00  0.00    +0.000 C 
ATOM      4  C   UNL     1       5.548   6.347  15.570  0.00  0.00    +0.000 C 
ATOM      5  C   UNL     1       4.824   6.725  16.631  0.00  0.00    +0.000 C 
ATOM      6  C   UNL     1       4.483   5.706  17.623  0.00  0.00    +0.000 A 
ATOM      7  C   UNL     1       5.176   4.489  17.587  0.00  0.00    +0.000 A 
ATOM      8  C   UNL     1       4.927   3.495  18.529  0.00  0.00    +0.000 A 
ATOM      9  C   UNL     1       3.927   3.686  19.480  0.00  0.00    +0.000 A 
ATOM     10  C   UNL     1       3.188   4.876  19.504  0.00  0.00    +0.000 A 
ATOM     11  C   UNL     1       3.490   5.903  18.599  0.00  0.00    +0.000 A 
ATOM     12  O   UNL     1       2.885   7.134  18.619  0.00  0.00    +0.000 OA
ATOM     13  C   UNL     1       1.674   7.248  19.375  0.00  0.00    +0.000 C 
ATOM     14  C   UNL     1       1.751   6.545  20.717  0.00  0.00    +0.000 C 
ATOM     15  C   UNL     1       2.095   5.110  20.474  0.00  0.00    +0.000 C 
ATOM     16  O   UNL     1       1.508   4.207  21.058  0.00  0.00    +0.000 OA
ATOM     17  O   UNL     1       6.146   4.212  16.658  0.00  0.00    +0.000 OA
ENDROOT
BRANCH  13  18
ATOM     18  C   UNL     1       1.405   8.727  19.621  0.00  0.00    +0.000 A 
ATOM     19  C   UNL     1       1.449   9.639  18.556  0.00  0.00    +0.000 A 
ATOM     20  C   UNL     1       1.108  10.979  18.758  0.00  0.00    +0.000 A 
ATOM     21  C   UNL     1       0.721  11.422  20.022  0.00  0.00    +0.000 A 
ATOM     22  C   UNL     1       0.682  10.529  21.089  0.00  0.00    +0.000 A 
ATOM     23  C   UNL     1       1.019   9.191  20.890  0.00  0.00    +0.000 A 
ENDBRANCH  13  18
BRANCH   9  24
ATOM     24  O   UNL     1       3.711   2.709  20.410  0.00  0.00    +0.000 OA
ATOM     25  H   UNL     1       3.343   1.916  19.989  0.00  0.00    +0.000 HD
ENDBRANCH   9  24
TORSDOF 2
ENDMDL
MODEL 3
REMARK VINA RESULT:      -7.5      3.250      7.354
REMARK  Name = 
REMARK  4 active torsions:
REMARK  status: ('A' for Active; 'I' for Inactive)
REMARK    1  A    between atoms: C_1  and  C_2
REMARK    2  A    between atoms: C_2  and  C_3
REMARK    3  A    between atoms: C_9  and  O_10
REMARK    4  A    between atoms: C_14  and  C_15
REMARK                            x       y       z     vdW  Elec       q    Type
REMARK                         _______ _______ _______ _____ _____    ______ ____
ROOT
ATOM      1  C   UNL     1       5.107   3.996  14.309  0.00  0.00    +0.000 C 
ATOM      2  C   UNL     1       6.065   4.844  15.160  0.00  0.00    +0.000 C 
ATOM      3  C   UNL     1       7.465   4.805  14.539  0.00  0.00    +0.000 C 
ATOM      4  C   UNL     1       5.582   6.276  15.235  0.00  0.00    +0.000 C 
ATOM      5  C   UNL     1       4.870   6.728  16.275  0.00  0.00    +0.000 C 
ATOM      6  C   UNL     1       4.537   5.780  17.337  0.00  0.00    +0.000 A 
ATOM      7  C   UNL     1       5.226   4.560  17.377  0.00  0.00    +0.000 A 
ATOM      8  C   UNL     1       4.983   3.634  18.387  0.00  0.00    +0.000 A 
ATOM      9  C   UNL     1       3.994   3.892  19.332  0.00  0.00    +0.000 A 
ATOM     10  C   UNL     1       3.259   5.084  19.283  0.00  0.00    +0.000 A 
ATOM     11  C   UNL     1       3.554   6.046  18.307  0.00  0.00    +0.000 A 
ATOM     12  O   UNL     1       2.953   7.278  18.250  0.00  0.00    +0.000 OA
ATOM     13  C   UNL     1       1.750   7.448  19.009  0.00  0.00    +0.000 C 
ATOM     14  C   UNL     1       1.839   6.837  20.395  0.00  0.00    +0.000 C 
ATOM     15  C   UNL     1       2.177   5.388  20.246  0.00  0.00    +0.000 C 
ATOM     16  O   UNL     1       1.593   4.528  20.896  0.00  0.00    +0.000 OA
ATOM     17  O   UNL     1       6.185   4.218  16.458  0.00  0.00    +0.000 OA
ENDROOT
BRANCH  13  18
ATOM     18  C   UNL     1       1.488   8.940  19.157  0.00  0.00    +0.000 A 
ATOM     19  C   UNL     1       0.925   9.445  20.339  0.00  0.00    +0.000 A 
ATOM     20  C   UNL     1       0.773  10.822  20.518  0.00  0.00    +0.000 A 
ATOM     21  C   UNL     1       1.179  11.709  19.521  0.00  0.00    +0.000 A 
ATOM     22  C   UNL     1       1.731  11.220  18.340  0.00  0.00    +0.000 A 
ATOM     23  C   UNL     1       1.886   9.847  18.160  0.00  0.00    +0.000 A 
ENDBRANCH  13  18
BRANCH   9  24
ATOM     24  O   UNL     1       3.784   2.982  20.328  0.00  0.00    +0.000 OA
ATOM     25  H   UNL     1       4.255   3.247  21.134  0.00  0.00    +0.000 HD
ENDBRANCH   9  24
TORSDOF 2
ENDMDL
MODEL 4
REMARK VINA RESULT:      -7.2      2.439      4.500
REMARK  Name = 
REMARK  4 active torsions:
REMARK  status: ('A' for Active; 'I' for Inactive)
REMARK    1  A    between atoms: C_1  and  C_2
REMARK    2  A    between atoms: C_2  and  C_3
REMARK    3  A    between atoms: C_9  and  O_10
REMARK    4  A    between atoms: C_14  and  C_15
REMARK                            x       y       z     vdW  Elec       q    Type
REMARK                         _______ _______ _______ _____ _____    ______ ____
ROOT
ATOM      1  C   UNL     1       1.995   9.024  21.672  0.00  0.00    +0.000 C 
ATOM      2  C   UNL     1       1.100   8.496  20.539  0.00  0.00    +0.000 C 
ATOM      3  C   UNL     1      -0.204   9.299  20.507  0.00  0.00    +0.000 C 
ATOM      4  C   UNL     1       1.805   8.618  19.206  0.00  0.00    +0.000 C 
ATOM      5  C   UNL     1       2.456   7.586  18.655  0.00  0.00    +0.000 C 
ATOM      6  C   UNL     1       2.499   6.329  19.400  0.00  0.00    +0.000 A 
ATOM      7  C   UNL     1       1.615   6.166  20.475  0.00  0.00    +0.000 A 
ATOM      8  C   UNL     1       1.578   4.977  21.197  0.00  0.00    +0.000 A 
ATOM      9  C   UNL     1       2.479   3.960  20.892  0.00  0.00    +0.000 A 
ATOM     10  C   UNL     1       3.406   4.121  19.853  0.00  0.00    +0.000 A 
ATOM     11  C   UNL     1       3.392   5.291  19.081  0.00  0.00    +0.000 A 
ATOM     12  O   UNL     1       4.195   5.486  17.986  0.00  0.00    +0.000 OA
ATOM     13  C   UNL     1       5.312   4.602  17.835  0.00  0.00    +0.000 C 
ATOM     14  C   UNL     1       4.960   3.156  18.128  0.00  0.00    +0.000 C 
ATOM     15  C   UNL     1       4.403   3.081  19.514  0.00  0.00    +0.000 C 
ATOM     16  O   UNL     1       4.754   2.204  20.294  0.00  0.00    +0.000 OA
ATOM     17  O   UNL     1       0.726   7.136  20.860  0.00  0.00    +0.000 OA
ENDROOT
BRANCH  13  18
ATOM     18  C   UNL     1       5.802   4.698  16.397  0.00  0.00    +0.000 A 
ATOM     19  C   UNL     1       7.046   5.281  16.112  0.00  0.00    +0.000 A 
ATOM     20  C   UNL     1       7.544   5.284  14.807  0.00  0.00    +0.000 A 
ATOM     21  C   UNL     1       6.808   4.706  13.773  0.00  0.00    +0.000 A 
ATOM     22  C   UNL     1       5.568   4.131  14.042  0.00  0.00    +0.000 A 
ATOM     23  C   UNL     1       5.070   4.125  15.343  0.00  0.00    +0.000 A 
ENDBRANCH  13  18
BRANCH   9  24
ATOM     24  O   UNL     1       2.415   2.792  21.597  0.00  0.00    +0.000 OA
ATOM     25  H   UNL     1       1.833   2.158  21.150  0.00  0.00    +0.000 HD
ENDBRANCH   9  24
TORSDOF 2
ENDMDL
MODEL 5
REMARK VINA RESULT:      -6.7      7.322     10.087
REMARK  Name = 
REMARK  4 active torsions:
REMARK  status: ('A' for Active; 'I' for Inactive)
REMARK    1  A    between atoms: C_1  and  C_2
REMARK    2  A    between atoms: C_2  and  C_3
REMARK    3  A    between atoms: C_9  and  O_10
REMARK    4  A    between atoms: C_14  and  C_15
REMARK                            x       y       z     vdW  Elec       q    Type
REMARK                         _______ _______ _______ _____ _____    ______ ____
ROOT
ATOM      1  C   UNL     1       2.881  15.337  20.499  0.00  0.00    +0.000 C 
ATOM      2  C   UNL     1       1.887  14.914  19.405  0.00  0.00    +0.000 C 
ATOM      3  C   UNL     1       1.698  16.070  18.417  0.00  0.00    +0.000 C 
ATOM      4  C   UNL     1       2.397  13.694  18.670  0.00  0.00    +0.000 C 
ATOM      5  C   UNL     1       1.988  12.459  18.983  0.00  0.00    +0.000 C 
ATOM      6  C   UNL     1       1.047  12.312  20.094  0.00  0.00    +0.000 A 
ATOM      7  C   UNL     1       0.389  13.457  20.559  0.00  0.00    +0.000 A 
ATOM      8  C   UNL     1      -0.547  13.377  21.586  0.00  0.00    +0.000 A 
ATOM      9  C   UNL     1      -0.784  12.152  22.205  0.00  0.00    +0.000 A 
ATOM     10  C   UNL     1      -0.100  11.002  21.787  0.00  0.00    +0.000 A 
ATOM     11  C   UNL     1       0.789  11.073  20.706  0.00  0.00    +0.000 A 
ATOM     12  O   UNL     1       1.422   9.979  20.172  0.00  0.00    +0.000 OA
ATOM     13  C   UNL     1       1.427   8.784  20.961  0.00  0.00    +0.000 C 
ATOM     14  C   UNL     1       0.084   8.501  21.607  0.00  0.00    +0.000 C 
ATOM     15  C   UNL     1      -0.295   9.686  22.436  0.00  0.00    +0.000 C 
ATOM     16  O   UNL     1      -0.746   9.553  23.568  0.00  0.00    +0.000 OA
ATOM     17  O   UNL     1       0.598  14.704  20.027  0.00  0.00    +0.000 OA
ENDROOT
BRANCH  13  18
ATOM     18  C   UNL     1       1.779   7.616  20.050  0.00  0.00    +0.000 A 
ATOM     19  C   UNL     1       2.280   7.851  18.761  0.00  0.00    +0.000 A 
ATOM     20  C   UNL     1       2.696   6.786  17.958  0.00  0.00    +0.000 A 
ATOM     21  C   UNL     1       2.617   5.477  18.432  0.00  0.00    +0.000 A 
ATOM     22  C   UNL     1       2.114   5.229  19.707  0.00  0.00    +0.000 A 
ATOM     23  C   UNL     1       1.700   6.290  20.510  0.00  0.00    +0.000 A 
ENDBRANCH  13  18
BRANCH   9  24
ATOM     24  O   UNL     1      -1.722  12.087  23.195  0.00  0.00    +0.000 OA
ATOM     25  H   UNL     1      -1.851  12.961  23.598  0.00  0.00    +0.000 HD
ENDBRANCH   9  24
TORSDOF 2
ENDMDL
MODEL 6
REMARK VINA RESULT:      -6.7      4.373      7.683
REMARK  Name = 
REMARK  4 active torsions:
REMARK  status: ('A' for Active; 'I' for Inactive)
REMARK    1  A    between atoms: C_1  and  C_2
REMARK    2  A    between atoms: C_2  and  C_3
REMARK    3  A    between atoms: C_9  and  O_10
REMARK    4  A    between atoms: C_14  and  C_15
REMARK                            x       y       z     vdW  Elec       q    Type
REMARK                         _______ _______ _______ _____ _____    ______ ____
ROOT
ATOM      1  C   UNL     1       4.671   4.166  15.376  0.00  0.00    +0.000 C 
ATOM      2  C   UNL     1       5.654   5.074  16.133  0.00  0.00    +0.000 C 
ATOM      3  C   UNL     1       7.088   4.727  15.716  0.00  0.00    +0.000 C 
ATOM      4  C   UNL     1       5.374   6.529  15.829  0.00  0.00    +0.000 C 
ATOM      5  C   UNL     1       4.638   7.292  16.646  0.00  0.00    +0.000 C 
ATOM      6  C   UNL     1       4.074   6.666  17.841  0.00  0.00    +0.000 A 
ATOM      7  C   UNL     1       4.576   5.418  18.235  0.00  0.00    +0.000 A 
ATOM      8  C   UNL     1       4.109   4.790  19.385  0.00  0.00    +0.000 A 
ATOM      9  C   UNL     1       3.082   5.376  20.119  0.00  0.00    +0.000 A 
ATOM     10  C   UNL     1       2.531   6.601  19.716  0.00  0.00    +0.000 A 
ATOM     11  C   UNL     1       3.051   7.265  18.597  0.00  0.00    +0.000 A 
ATOM     12  O   UNL     1       2.639   8.510  18.195  0.00  0.00    +0.000 OA
ATOM     13  C   UNL     1       1.406   8.992  18.741  0.00  0.00    +0.000 C 
ATOM     14  C   UNL     1       1.274   8.718  20.228  0.00  0.00    +0.000 C 
ATOM     15  C   UNL     1       1.416   7.245  20.446  0.00  0.00    +0.000 C 
ATOM     16  O   UNL     1       0.657   6.637  21.191  0.00  0.00    +0.000 OA
ATOM     17  O   UNL     1       5.560   4.761  17.542  0.00  0.00    +0.000 OA
ENDROOT
BRANCH  13  18
ATOM     18  C   UNL     1       1.345  10.498  18.522  0.00  0.00    +0.000 A 
ATOM     19  C   UNL     1       0.177  11.210  18.833  0.00  0.00    +0.000 A 
ATOM     20  C   UNL     1       0.149  12.603  18.726  0.00  0.00    +0.000 A 
ATOM     21  C   UNL     1       1.282  13.298  18.307  0.00  0.00    +0.000 A 
ATOM     22  C   UNL     1       2.445  12.602  17.987  0.00  0.00    +0.000 A 
ATOM     23  C   UNL     1       2.477  11.213  18.095  0.00  0.00    +0.000 A 
ENDBRANCH  13  18
BRANCH   9  24
ATOM     24  O   UNL     1       2.651   4.756  21.257  0.00  0.00    +0.000 OA
ATOM     25  H   UNL     1       1.955   4.113  21.050  0.00  0.00    +0.000 HD
ENDBRANCH   9  24
TORSDOF 2
ENDMDL
MODEL 7
REMARK VINA RESULT:      -6.6      7.129      9.918
REMARK  Name = 
REMARK  4 active torsions:
REMARK  status: ('A' for Active; 'I' for Inactive)
REMARK    1  A    between atoms: C_1  and  C_2
REMARK    2  A    between atoms: C_2  and  C_3
REMARK    3  A    between atoms: C_9  and  O_10
REMARK    4  A    between atoms: C_14  and  C_15
REMARK                            x       y       z     vdW  Elec       q    Type
REMARK                         _______ _______ _______ _____ _____    ______ ____
ROOT
ATOM      1  C   UNL     1       2.872  15.151  20.323  0.00  0.00    +0.000 C 
ATOM      2  C   UNL     1       1.857  14.689  19.266  0.00  0.00    +0.000 C 
ATOM      3  C   UNL     1       1.620  15.821  18.260  0.00  0.00    +0.000 C 
ATOM      4  C   UNL     1       2.367  13.463  18.541  0.00  0.00    +0.000 C 
ATOM      5  C   UNL     1       1.988  12.228  18.890  0.00  0.00    +0.000 C 
ATOM      6  C   UNL     1       1.081  12.088  20.029  0.00  0.00    +0.000 A 
ATOM      7  C   UNL     1       0.416  13.231  20.490  0.00  0.00    +0.000 A 
ATOM      8  C   UNL     1      -0.491  13.156  21.543  0.00  0.00    +0.000 A 
ATOM      9  C   UNL     1      -0.689  11.940  22.193  0.00  0.00    +0.000 A 
ATOM     10  C   UNL     1       0.003  10.794  21.780  0.00  0.00    +0.000 A 
ATOM     11  C   UNL     1       0.862  10.858  20.673  0.00  0.00    +0.000 A 
ATOM     12  O   UNL     1       1.498   9.764  20.144  0.00  0.00    +0.000 OA
ATOM     13  C   UNL     1       1.546   8.585  20.956  0.00  0.00    +0.000 C 
ATOM     14  C   UNL     1       0.226   8.293  21.645  0.00  0.00    +0.000 C 
ATOM     15  C   UNL     1      -0.151   9.488  22.460  0.00  0.00    +0.000 C 
ATOM     16  O   UNL     1      -0.568   9.371  23.606  0.00  0.00    +0.000 OA
ATOM     17  O   UNL     1       0.589  14.470  19.927  0.00  0.00    +0.000 OA
ENDROOT
BRANCH  13  18
ATOM     18  C   UNL     1       1.894   7.404  20.060  0.00  0.00    +0.000 A 
ATOM     19  C   UNL     1       1.705   6.091  20.517  0.00  0.00    +0.000 A 
ATOM     20  C   UNL     1       1.930   5.007  19.665  0.00  0.00    +0.000 A 
ATOM     21  C   UNL     1       2.346   5.220  18.351  0.00  0.00    +0.000 A 
ATOM     22  C   UNL     1       2.545   6.518  17.889  0.00  0.00    +0.000 A 
ATOM     23  C   UNL     1       2.319   7.602  18.735  0.00  0.00    +0.000 A 
ENDBRANCH  13  18
BRANCH   9  24
ATOM     24  O   UNL     1      -1.598  11.880  23.210  0.00  0.00    +0.000 OA
ATOM     25  H   UNL     1      -2.500  11.823  22.856  0.00  0.00    +0.000 HD
ENDBRANCH   9  24
TORSDOF 2
ENDMDL
MODEL 8
REMARK VINA RESULT:      -6.6      9.756     13.541
REMARK  Name = 
REMARK  4 active torsions:
REMARK  status: ('A' for Active; 'I' for Inactive)
REMARK    1  A    between atoms: C_1  and  C_2
REMARK    2  A    between atoms: C_2  and  C_3
REMARK    3  A    between atoms: C_9  and  O_10
REMARK    4  A    between atoms: C_14  and  C_15
REMARK                            x       y       z     vdW  Elec       q    Type
REMARK                         _______ _______ _______ _____ _____    ______ ____
ROOT
ATOM      1  C   UNL     1      10.162  17.597  17.075  0.00  0.00    +0.000 C 
ATOM      2  C   UNL     1      11.294  17.383  18.092  0.00  0.00    +0.000 C 
ATOM      3  C   UNL     1      12.333  18.498  17.936  0.00  0.00    +0.000 C 
ATOM      4  C   UNL     1      10.748  17.390  19.503  0.00  0.00    +0.000 C 
ATOM      5  C   UNL     1      10.465  16.257  20.156  0.00  0.00    +0.000 C 
ATOM      6  C   UNL     1      10.667  14.992  19.449  0.00  0.00    +0.000 A 
ATOM      7  C   UNL     1      11.426  15.006  18.272  0.00  0.00    +0.000 A 
ATOM      8  C   UNL     1      11.689  13.830  17.576  0.00  0.00    +0.000 A 
ATOM      9  C   UNL     1      11.133  12.632  18.018  0.00  0.00    +0.000 A 
ATOM     10  C   UNL     1      10.330  12.603  19.166  0.00  0.00    +0.000 A 
ATOM     11  C   UNL     1      10.126  13.777  19.904  0.00  0.00    +0.000 A 
ATOM     12  O   UNL     1       9.438  13.817  21.091  0.00  0.00    +0.000 OA
ATOM     13  C   UNL     1       8.622  12.682  21.405  0.00  0.00    +0.000 C 
ATOM     14  C   UNL     1       9.306  11.363  21.099  0.00  0.00    +0.000 C 
ATOM     15  C   UNL     1       9.691  11.360  19.655  0.00  0.00    +0.000 C 
ATOM     16  O   UNL     1       9.494  10.380  18.945  0.00  0.00    +0.000 OA
ATOM     17  O   UNL     1      11.974  16.152  17.754  0.00  0.00    +0.000 OA
ENDROOT
BRANCH  13  18
ATOM     18  C   UNL     1       8.301  12.725  22.893  0.00  0.00    +0.000 A 
ATOM     19  C   UNL     1       7.771  11.595  23.534  0.00  0.00    +0.000 A 
ATOM     20  C   UNL     1       7.566  11.597  24.916  0.00  0.00    +0.000 A 
ATOM     21  C   UNL     1       7.886  12.724  25.672  0.00  0.00    +0.000 A 
ATOM     22  C   UNL     1       8.404  13.855  25.046  0.00  0.00    +0.000 A 
ATOM     23  C   UNL     1       8.612  13.855  23.668  0.00  0.00    +0.000 A 
ENDBRANCH  13  18
BRANCH   9  24
ATOM     24  O   UNL     1      11.418  11.484  17.335  0.00  0.00    +0.000 OA
ATOM     25  H   UNL     1      11.975  11.678  16.564  0.00  0.00    +0.000 HD
ENDBRANCH   9  24
TORSDOF 2
ENDMDL
MODEL 9
REMARK VINA RESULT:      -6.6      8.959     13.028
REMARK  Name = 
REMARK  4 active torsions:
REMARK  status: ('A' for Active; 'I' for Inactive)
REMARK    1  A    between atoms: C_1  and  C_2
REMARK    2  A    between atoms: C_2  and  C_3
REMARK    3  A    between atoms: C_9  and  O_10
REMARK    4  A    between atoms: C_14  and  C_15
REMARK                            x       y       z     vdW  Elec       q    Type
REMARK                         _______ _______ _______ _____ _____    ______ ____
ROOT
ATOM      1  C   UNL     1       1.818  11.025  17.841  0.00  0.00    +0.000 C 
ATOM      2  C   UNL     1       1.120   9.815  18.482  0.00  0.00    +0.000 C 
ATOM      3  C   UNL     1       2.113   8.653  18.584  0.00  0.00    +0.000 C 
ATOM      4  C   UNL     1       0.607  10.169  19.861  0.00  0.00    +0.000 C 
ATOM      5  C   UNL     1      -0.665  10.528  20.070  0.00  0.00    +0.000 C 
ATOM      6  C   UNL     1      -1.552  10.606  18.910  0.00  0.00    +0.000 A 
ATOM      7  C   UNL     1      -1.131  10.010  17.714  0.00  0.00    +0.000 A 
ATOM      8  C   UNL     1      -1.948  10.014  16.587  0.00  0.00    +0.000 A 
ATOM      9  C   UNL     1      -3.171  10.678  16.627  0.00  0.00    +0.000 A 
ATOM     10  C   UNL     1      -3.590  11.323  17.799  0.00  0.00    +0.000 A 
ATOM     11  C   UNL     1      -2.798  11.256  18.954  0.00  0.00    +0.000 A 
ATOM     12  O   UNL     1      -3.180  11.772  20.166  0.00  0.00    +0.000 OA
ATOM     13  C   UNL     1      -4.272  12.699  20.161  0.00  0.00    +0.000 C 
ATOM     14  C   UNL     1      -5.410  12.260  19.259  0.00  0.00    +0.000 C 
ATOM     15  C   UNL     1      -4.867  12.068  17.880  0.00  0.00    +0.000 C 
ATOM     16  O   UNL     1      -5.460  12.496  16.896  0.00  0.00    +0.000 OA
ATOM     17  O   UNL     1       0.076   9.372  17.585  0.00  0.00    +0.000 OA
ENDROOT
BRANCH  13  18
ATOM     18  C   UNL     1      -4.802  12.816  21.583  0.00  0.00    +0.000 A 
ATOM     19  C   UNL     1      -6.185  12.844  21.822  0.00  0.00    +0.000 A 
ATOM     20  C   UNL     1      -6.677  12.853  23.130  0.00  0.00    +0.000 A 
ATOM     21  C   UNL     1      -5.797  12.836  24.211  0.00  0.00    +0.000 A 
ATOM     22  C   UNL     1      -4.423  12.817  23.987  0.00  0.00    +0.000 A 
ATOM     23  C   UNL     1      -3.929  12.805  22.684  0.00  0.00    +0.000 A 
ENDBRANCH  13  18
BRANCH   9  24
ATOM     24  O   UNL     1      -3.969  10.654  15.519  0.00  0.00    +0.000 OA
ATOM     25  H   UNL     1      -4.181   9.739  15.275  0.00  0.00    +0.000 HD
ENDBRANCH   9  24
TORSDOF 2
ENDMDL
