MODEL 1
REMARK VINA RESULT:      -7.9      0.000      0.000
REMARK  Name = 
REMARK  1 active torsions:
REMARK  status: ('A' for Active; 'I' for Inactive)
REMARK    1  A    between atoms: C_4  and  C_5
REMARK                            x       y       z     vdW  Elec       q    Type
REMARK                         _______ _______ _______ _____ _____    ______ ____
ROOT
ATOM      1  O   UNL     1       3.841   6.755  18.206  0.00  0.00    +0.000 OA
ATOM      2  C   UNL     1       3.744   5.547  18.003  0.00  0.00    +0.000 C 
ATOM      3  C   UNL     1       4.554   4.843  16.957  0.00  0.00    +0.000 C 
ATOM      4  C   UNL     1       4.957   5.540  15.877  0.00  0.00    +0.000 C 
ATOM      5  C   UNL     1       4.790   3.386  17.234  0.00  0.00    +0.000 C 
ATOM      6  C   UNL     1       3.446   2.687  17.374  0.00  0.00    +0.000 C 
ATOM      7  C   UNL     1       2.638   3.327  18.472  0.00  0.00    +0.000 A 
ATOM      8  C   UNL     1       1.694   2.564  19.171  0.00  0.00    +0.000 A 
ATOM      9  C   UNL     1       0.939   3.144  20.189  0.00  0.00    +0.000 A 
ATOM     10  C   UNL     1       1.114   4.489  20.512  0.00  0.00    +0.000 A 
ATOM     11  C   UNL     1       2.037   5.266  19.808  0.00  0.00    +0.000 A 
ATOM     12  C   UNL     1       2.796   4.694  18.781  0.00  0.00    +0.000 A 
ENDROOT
BRANCH   4  13
ATOM     13  C   UNL     1       5.676   4.933  14.753  0.00  0.00    +0.000 A 
ATOM     14  C   UNL     1       7.001   5.301  14.472  0.00  0.00    +0.000 A 
ATOM     15  C   UNL     1       7.640   4.816  13.329  0.00  0.00    +0.000 A 
ATOM     16  C   UNL     1       6.963   3.944  12.487  0.00  0.00    +0.000 A 
ATOM     17  F   UNL     1       7.565   3.498  11.377  0.00  0.00    +0.000 F 
ATOM     18  C   UNL     1       5.665   3.536  12.774  0.00  0.00    +0.000 A 
ATOM     19  C   UNL     1       5.017   4.034  13.906  0.00  0.00    +0.000 A 
ENDBRANCH   4  13
TORSDOF 1
ENDMDL
MODEL 2
REMARK VINA RESULT:      -7.6      3.823      5.828
REMARK  Name = 
REMARK  1 active torsions:
REMARK  status: ('A' for Active; 'I' for Inactive)
REMARK    1  A    between atoms: C_4  and  C_5
REMARK                            x       y       z     vdW  Elec       q    Type
REMARK                         _______ _______ _______ _____ _____    ______ ____
ROOT
ATOM      1  O   UNL     1       2.086   9.306  17.575  0.00  0.00    +0.000 OA
ATOM      2  C   UNL     1       1.871   8.683  18.612  0.00  0.00    +0.000 C 
ATOM      3  C   UNL     1       2.277   7.251  18.785  0.00  0.00    +0.000 C 
ATOM      4  C   UNL     1       2.355   6.467  17.693  0.00  0.00    +0.000 C 
ATOM      5  C   UNL     1       2.516   6.844  20.212  0.00  0.00    +0.000 C 
ATOM      6  C   UNL     1       1.250   7.101  21.016  0.00  0.00    +0.000 C 
ATOM      7  C   UNL     1       0.860   8.552  20.921  0.00  0.00    +0.000 A 
ATOM      8  C   UNL     1       0.146   9.146  21.970  0.00  0.00    +0.000 A 
ATOM      9  C   UNL     1      -0.222  10.488  21.896  0.00  0.00    +0.000 A 
ATOM     10  C   UNL     1       0.112  11.245  20.773  0.00  0.00    +0.000 A 
ATOM     11  C   UNL     1       0.805  10.659  19.711  0.00  0.00    +0.000 A 
ATOM     12  C   UNL     1       1.174   9.311  19.775  0.00  0.00    +0.000 A 
ENDROOT
BRANCH   4  13
ATOM     13  C   UNL     1       2.655   5.034  17.754  0.00  0.00    +0.000 A 
ATOM     14  C   UNL     1       1.620   4.094  17.892  0.00  0.00    +0.000 A 
ATOM     15  C   UNL     1       1.917   2.742  18.076  0.00  0.00    +0.000 A 
ATOM     16  C   UNL     1       3.243   2.330  18.092  0.00  0.00    +0.000 A 
ATOM     17  F   UNL     1       3.530   1.037  18.293  0.00  0.00    +0.000 F 
ATOM     18  C   UNL     1       4.277   3.242  17.912  0.00  0.00    +0.000 A 
ATOM     19  C   UNL     1       3.984   4.598  17.747  0.00  0.00    +0.000 A 
ENDBRANCH   4  13
TORSDOF 1
ENDMDL
MODEL 3
REMARK VINA RESULT:      -7.6      3.969      5.846
REMARK  Name = 
REMARK  1 active torsions:
REMARK  status: ('A' for Active; 'I' for Inactive)
REMARK    1  A    between atoms: C_4  and  C_5
REMARK                            x       y       z     vdW  Elec       q    Type
REMARK                         _______ _______ _______ _____ _____    ______ ____
ROOT
ATOM      1  O   UNL     1       1.923   9.556  17.458  0.00  0.00    +0.000 OA
ATOM      2  C   UNL     1       1.708   8.967  18.514  0.00  0.00    +0.000 C 
ATOM      3  C   UNL     1       2.164   7.560  18.754  0.00  0.00    +0.000 C 
ATOM      4  C   UNL     1       2.295   6.737  17.697  0.00  0.00    +0.000 C 
ATOM      5  C   UNL     1       2.385   7.220  20.201  0.00  0.00    +0.000 C 
ATOM      6  C   UNL     1       1.092   7.460  20.967  0.00  0.00    +0.000 C 
ATOM      7  C   UNL     1       0.650   8.891  20.805  0.00  0.00    +0.000 A 
ATOM      8  C   UNL     1      -0.109   9.498  21.813  0.00  0.00    +0.000 A 
ATOM      9  C   UNL     1      -0.526  10.821  21.676  0.00  0.00    +0.000 A 
ATOM     10  C   UNL     1      -0.195  11.545  20.531  0.00  0.00    +0.000 A 
ATOM     11  C   UNL     1       0.543  10.943  19.509  0.00  0.00    +0.000 A 
ATOM     12  C   UNL     1       0.961   9.614  19.636  0.00  0.00    +0.000 A 
ENDROOT
BRANCH   4  13
ATOM     13  C   UNL     1       2.647   5.319  17.822  0.00  0.00    +0.000 A 
ATOM     14  C   UNL     1       3.979   4.900  17.676  0.00  0.00    +0.000 A 
ATOM     15  C   UNL     1       4.292   3.539  17.672  0.00  0.00    +0.000 A 
ATOM     16  C   UNL     1       3.279   2.605  17.841  0.00  0.00    +0.000 A 
ATOM     17  F   UNL     1       3.574   1.298  17.811  0.00  0.00    +0.000 F 
ATOM     18  C   UNL     1       1.961   3.006  18.031  0.00  0.00    +0.000 A 
ATOM     19  C   UNL     1       1.642   4.365  18.017  0.00  0.00    +0.000 A 
ENDBRANCH   4  13
TORSDOF 1
ENDMDL
MODEL 4
REMARK VINA RESULT:      -7.6      0.529      1.226
REMARK  Name = 
REMARK  1 active torsions:
REMARK  status: ('A' for Active; 'I' for Inactive)
REMARK    1  A    between atoms: C_4  and  C_5
REMARK                            x       y       z     vdW  Elec       q    Type
REMARK                         _______ _______ _______ _____ _____    ______ ____
ROOT
ATOM      1  O   UNL     1       4.412   7.005  18.027  0.00  0.00    +0.000 OA
ATOM      2  C   UNL     1       4.096   5.842  17.793  0.00  0.00    +0.000 C 
ATOM      3  C   UNL     1       4.722   5.048  16.687  0.00  0.00    +0.000 C 
ATOM      4  C   UNL     1       5.191   5.705  15.609  0.00  0.00    +0.000 C 
ATOM      5  C   UNL     1       4.709   3.562  16.908  0.00  0.00    +0.000 C 
ATOM      6  C   UNL     1       3.270   3.103  17.095  0.00  0.00    +0.000 C 
ATOM      7  C   UNL     1       2.639   3.832  18.252  0.00  0.00    +0.000 A 
ATOM      8  C   UNL     1       1.608   3.219  18.975  0.00  0.00    +0.000 A 
ATOM      9  C   UNL     1       1.013   3.882  20.048  0.00  0.00    +0.000 A 
ATOM     10  C   UNL     1       1.437   5.162  20.401  0.00  0.00    +0.000 A 
ATOM     11  C   UNL     1       2.450   5.793  19.674  0.00  0.00    +0.000 A 
ATOM     12  C   UNL     1       3.048   5.137  18.593  0.00  0.00    +0.000 A 
ENDROOT
BRANCH   4  13
ATOM     13  C   UNL     1       5.740   5.025  14.432  0.00  0.00    +0.000 A 
ATOM     14  C   UNL     1       4.948   4.140  13.685  0.00  0.00    +0.000 A 
ATOM     15  C   UNL     1       5.509   3.400  12.642  0.00  0.00    +0.000 A 
ATOM     16  C   UNL     1       6.852   3.569  12.331  0.00  0.00    +0.000 A 
ATOM     17  F   UNL     1       7.398   2.842  11.348  0.00  0.00    +0.000 F 
ATOM     18  C   UNL     1       7.640   4.474  13.033  0.00  0.00    +0.000 A 
ATOM     19  C   UNL     1       7.086   5.201  14.089  0.00  0.00    +0.000 A 
ENDBRANCH   4  13
TORSDOF 1
ENDMDL
MODEL 5
REMARK VINA RESULT:      -7.5      3.048      4.578
REMARK  Name = 
REMARK  1 active torsions:
REMARK  status: ('A' for Active; 'I' for Inactive)
REMARK    1  A    between atoms: C_4  and  C_5
REMARK                            x       y       z     vdW  Elec       q    Type
REMARK                         _______ _______ _______ _____ _____    ______ ____
ROOT
ATOM      1  O   UNL     1       2.027   5.780  20.999  0.00  0.00    +0.000 OA
ATOM      2  C   UNL     1       2.084   6.642  20.125  0.00  0.00    +0.000 C 
ATOM      3  C   UNL     1       2.865   6.449  18.860  0.00  0.00    +0.000 C 
ATOM      4  C   UNL     1       3.937   5.634  18.883  0.00  0.00    +0.000 C 
ATOM      5  C   UNL     1       2.361   7.251  17.694  0.00  0.00    +0.000 C 
ATOM      6  C   UNL     1       2.376   8.726  18.067  0.00  0.00    +0.000 C 
ATOM      7  C   UNL     1       1.535   8.961  19.294  0.00  0.00    +0.000 A 
ATOM      8  C   UNL     1       0.924  10.207  19.485  0.00  0.00    +0.000 A 
ATOM      9  C   UNL     1       0.144  10.438  20.617  0.00  0.00    +0.000 A 
ATOM     10  C   UNL     1      -0.027   9.433  21.568  0.00  0.00    +0.000 A 
ATOM     11  C   UNL     1       0.596   8.194  21.399  0.00  0.00    +0.000 A 
ATOM     12  C   UNL     1       1.385   7.954  20.269  0.00  0.00    +0.000 A 
ENDROOT
BRANCH   4  13
ATOM     13  C   UNL     1       4.823   5.442  17.731  0.00  0.00    +0.000 A 
ATOM     14  C   UNL     1       4.564   4.431  16.793  0.00  0.00    +0.000 A 
ATOM     15  C   UNL     1       5.476   4.169  15.768  0.00  0.00    +0.000 A 
ATOM     16  C   UNL     1       6.629   4.937  15.669  0.00  0.00    +0.000 A 
ATOM     17  F   UNL     1       7.518   4.671  14.703  0.00  0.00    +0.000 F 
ATOM     18  C   UNL     1       6.879   5.971  16.565  0.00  0.00    +0.000 A 
ATOM     19  C   UNL     1       5.978   6.222  17.602  0.00  0.00    +0.000 A 
ENDBRANCH   4  13
TORSDOF 1
ENDMDL
MODEL 6
REMARK VINA RESULT:      -7.5      2.956      4.361
REMARK  Name = 
REMARK  1 active torsions:
REMARK  status: ('A' for Active; 'I' for Inactive)
REMARK    1  A    between atoms: C_4  and  C_5
REMARK                            x       y       z     vdW  Elec       q    Type
REMARK                         _______ _______ _______ _____ _____    ______ ____
ROOT
ATOM      1  O   UNL     1       2.112   5.673  21.086  0.00  0.00    +0.000 OA
ATOM      2  C   UNL     1       2.196   6.493  20.175  0.00  0.00    +0.000 C 
ATOM      3  C   UNL     1       3.028   6.249  18.953  0.00  0.00    +0.000 C 
ATOM      4  C   UNL     1       4.105   5.448  19.056  0.00  0.00    +0.000 C 
ATOM      5  C   UNL     1       2.563   6.990  17.731  0.00  0.00    +0.000 C 
ATOM      6  C   UNL     1       2.550   8.481  18.033  0.00  0.00    +0.000 C 
ATOM      7  C   UNL     1       1.660   8.765  19.214  0.00  0.00    +0.000 A 
ATOM      8  C   UNL     1       1.030  10.011  19.322  0.00  0.00    +0.000 A 
ATOM      9  C   UNL     1       0.204  10.288  20.410  0.00  0.00    +0.000 A 
ATOM     10  C   UNL     1       0.006   9.327  21.401  0.00  0.00    +0.000 A 
ATOM     11  C   UNL     1       0.645   8.087  21.315  0.00  0.00    +0.000 A 
ATOM     12  C   UNL     1       1.480   7.803  20.230  0.00  0.00    +0.000 A 
ENDROOT
BRANCH   4  13
ATOM     13  C   UNL     1       5.038   5.211  17.950  0.00  0.00    +0.000 A 
ATOM     14  C   UNL     1       6.173   6.021  17.789  0.00  0.00    +0.000 A 
ATOM     15  C   UNL     1       6.990   5.874  16.666  0.00  0.00    +0.000 A 
ATOM     16  C   UNL     1       6.686   4.900  15.724  0.00  0.00    +0.000 A 
ATOM     17  F   UNL     1       7.454   4.775  14.633  0.00  0.00    +0.000 F 
ATOM     18  C   UNL     1       5.590   4.061  15.891  0.00  0.00    +0.000 A 
ATOM     19  C   UNL     1       4.760   4.218  17.003  0.00  0.00    +0.000 A 
ENDBRANCH   4  13
TORSDOF 1
ENDMDL
MODEL 7
REMARK VINA RESULT:      -7.4      3.148      6.886
REMARK  Name = 
REMARK  1 active torsions:
REMARK  status: ('A' for Active; 'I' for Inactive)
REMARK    1  A    between atoms: C_4  and  C_5
REMARK                            x       y       z     vdW  Elec       q    Type
REMARK                         _______ _______ _______ _____ _____    ______ ____
ROOT
ATOM      1  O   UNL     1       7.523   6.366  16.606  0.00  0.00    +0.000 OA
ATOM      2  C   UNL     1       6.680   5.588  16.165  0.00  0.00    +0.000 C 
ATOM      3  C   UNL     1       5.529   5.102  16.993  0.00  0.00    +0.000 C 
ATOM      4  C   UNL     1       5.682   5.030  18.329  0.00  0.00    +0.000 C 
ATOM      5  C   UNL     1       4.320   4.702  16.196  0.00  0.00    +0.000 C 
ATOM      6  C   UNL     1       4.717   3.613  15.210  0.00  0.00    +0.000 C 
ATOM      7  C   UNL     1       5.824   4.102  14.313  0.00  0.00    +0.000 A 
ATOM      8  C   UNL     1       5.953   3.573  13.023  0.00  0.00    +0.000 A 
ATOM      9  C   UNL     1       6.973   4.015  12.182  0.00  0.00    +0.000 A 
ATOM     10  C   UNL     1       7.875   4.982  12.624  0.00  0.00    +0.000 A 
ATOM     11  C   UNL     1       7.770   5.503  13.917  0.00  0.00    +0.000 A 
ATOM     12  C   UNL     1       6.752   5.060  14.769  0.00  0.00    +0.000 A 
ENDROOT
BRANCH   4  13
ATOM     13  C   UNL     1       4.657   4.487  19.225  0.00  0.00    +0.000 A 
ATOM     14  C   UNL     1       4.620   3.114  19.518  0.00  0.00    +0.000 A 
ATOM     15  C   UNL     1       3.571   2.582  20.270  0.00  0.00    +0.000 A 
ATOM     16  C   UNL     1       2.578   3.426  20.749  0.00  0.00    +0.000 A 
ATOM     17  F   UNL     1       1.557   2.913  21.448  0.00  0.00    +0.000 F 
ATOM     18  C   UNL     1       2.623   4.794  20.504  0.00  0.00    +0.000 A 
ATOM     19  C   UNL     1       3.661   5.327  19.737  0.00  0.00    +0.000 A 
ENDBRANCH   4  13
TORSDOF 1
ENDMDL
MODEL 8
REMARK VINA RESULT:      -7.3      3.469      4.410
REMARK  Name = 
REMARK  1 active torsions:
REMARK  status: ('A' for Active; 'I' for Inactive)
REMARK    1  A    between atoms: C_4  and  C_5
REMARK                            x       y       z     vdW  Elec       q    Type
REMARK                         _______ _______ _______ _____ _____    ______ ____
ROOT
ATOM      1  O   UNL     1       4.337   2.680  16.991  0.00  0.00    +0.000 OA
ATOM      2  C   UNL     1       3.973   3.581  17.742  0.00  0.00    +0.000 C 
ATOM      3  C   UNL     1       4.743   4.858  17.894  0.00  0.00    +0.000 C 
ATOM      4  C   UNL     1       6.072   4.837  17.685  0.00  0.00    +0.000 C 
ATOM      5  C   UNL     1       3.910   6.036  18.316  0.00  0.00    +0.000 C 
ATOM      6  C   UNL     1       3.226   5.709  19.635  0.00  0.00    +0.000 C 
ATOM      7  C   UNL     1       2.384   4.469  19.491  0.00  0.00    +0.000 A 
ATOM      8  C   UNL     1       1.256   4.301  20.304  0.00  0.00    +0.000 A 
ATOM      9  C   UNL     1       0.467   3.158  20.182  0.00  0.00    +0.000 A 
ATOM     10  C   UNL     1       0.801   2.172  19.254  0.00  0.00    +0.000 A 
ATOM     11  C   UNL     1       1.935   2.318  18.452  0.00  0.00    +0.000 A 
ATOM     12  C   UNL     1       2.735   3.460  18.571  0.00  0.00    +0.000 A 
ENDROOT
BRANCH   4  13
ATOM     13  C   UNL     1       6.936   6.004  17.891  0.00  0.00    +0.000 A 
ATOM     14  C   UNL     1       7.815   6.056  18.985  0.00  0.00    +0.000 A 
ATOM     15  C   UNL     1       8.543   7.218  19.249  0.00  0.00    +0.000 A 
ATOM     16  C   UNL     1       8.411   8.312  18.405  0.00  0.00    +0.000 A 
ATOM     17  F   UNL     1       9.089   9.437  18.671  0.00  0.00    +0.000 F 
ATOM     18  C   UNL     1       7.577   8.262  17.293  0.00  0.00    +0.000 A 
ATOM     19  C   UNL     1       6.834   7.107  17.037  0.00  0.00    +0.000 A 
ENDBRANCH   4  13
TORSDOF 1
ENDMDL
MODEL 9
REMARK VINA RESULT:      -7.2      3.211      6.928
REMARK  Name = 
REMARK  1 active torsions:
REMARK  status: ('A' for Active; 'I' for Inactive)
REMARK    1  A    between atoms: C_4  and  C_5
REMARK                            x       y       z     vdW  Elec       q    Type
REMARK                         _______ _______ _______ _____ _____    ______ ____
ROOT
ATOM      1  O   UNL     1       7.501   6.309  16.705  0.00  0.00    +0.000 OA
ATOM      2  C   UNL     1       6.662   5.554  16.221  0.00  0.00    +0.000 C 
ATOM      3  C   UNL     1       5.482   5.060  17.003  0.00  0.00    +0.000 C 
ATOM      4  C   UNL     1       5.597   4.951  18.340  0.00  0.00    +0.000 C 
ATOM      5  C   UNL     1       4.292   4.696  16.162  0.00  0.00    +0.000 C 
ATOM      6  C   UNL     1       4.703   3.629  15.159  0.00  0.00    +0.000 C 
ATOM      7  C   UNL     1       5.841   4.128  14.307  0.00  0.00    +0.000 A 
ATOM      8  C   UNL     1       5.999   3.631  13.007  0.00  0.00    +0.000 A 
ATOM      9  C   UNL     1       7.048   4.083  12.207  0.00  0.00    +0.000 A 
ATOM     10  C   UNL     1       7.948   5.027  12.699  0.00  0.00    +0.000 A 
ATOM     11  C   UNL     1       7.813   5.514  14.002  0.00  0.00    +0.000 A 
ATOM     12  C   UNL     1       6.767   5.062  14.813  0.00  0.00    +0.000 A 
ENDROOT
BRANCH   4  13
ATOM     13  C   UNL     1       4.541   4.397  19.193  0.00  0.00    +0.000 A 
ATOM     14  C   UNL     1       3.543   5.230  19.724  0.00  0.00    +0.000 A 
ATOM     15  C   UNL     1       2.614   4.723  20.635  0.00  0.00    +0.000 A 
ATOM     16  C   UNL     1       2.668   3.381  20.990  0.00  0.00    +0.000 A 
ATOM     17  F   UNL     1       1.794   2.899  21.883  0.00  0.00    +0.000 F 
ATOM     18  C   UNL     1       3.623   2.534  20.440  0.00  0.00    +0.000 A 
ATOM     19  C   UNL     1       4.565   3.042  19.543  0.00  0.00    +0.000 A 
ENDBRANCH   4  13
TORSDOF 1
ENDMDL
