MODEL 1
REMARK VINA RESULT:      -7.4      0.000      0.000
REMARK  Name = 
REMARK  8 active torsions:
REMARK  status: ('A' for Active; 'I' for Inactive)
REMARK    1  A    between atoms: C_1  and  C_2
REMARK    2  A    between atoms: C_4  and  C_5
REMARK    3  A    between atoms: C_5  and  O_7
REMARK    4  A    between atoms: C_9  and  S_10
REMARK    5  A    between atoms: S_10  and  N_13
REMARK    6  A    between atoms: N_13  and  N_14
REMARK    7  A    between atoms: C_15  and  C_17
REMARK    8  A    between atoms: C_22  and  C_23
REMARK                            x       y       z     vdW  Elec       q    Type
REMARK                         _______ _______ _______ _____ _____    ______ ____
ROOT
ATOM      1  S   UNL     1       7.096   5.989  17.942  0.00  0.00    +0.000 S 
ATOM      2  O   UNL     1       6.900   7.139  17.082  0.00  0.00    +0.000 OA
ATOM      3  O   UNL     1       7.905   6.107  19.138  0.00  0.00    +0.000 OA
ENDROOT
BRANCH   1   9
ATOM      4  C   UNL     1       1.738   5.802  17.831  0.00  0.00    +0.000 C 
ATOM      5  C   UNL     1       3.072   5.267  18.292  0.00  0.00    +0.000 A 
ATOM      6  C   UNL     1       3.087   4.097  19.073  0.00  0.00    +0.000 A 
ATOM      7  C   UNL     1       4.294   3.543  19.506  0.00  0.00    +0.000 A 
ATOM      8  C   UNL     1       5.496   4.174  19.178  0.00  0.00    +0.000 A 
ATOM      9  C   UNL     1       5.501   5.348  18.404  0.00  0.00    +0.000 A 
ATOM     10  C   UNL     1       4.290   5.916  17.949  0.00  0.00    +0.000 A 
ATOM     11  C   UNL     1       4.221   7.175  17.120  0.00  0.00    +0.000 C 
BRANCH   7  12
ATOM     12  C   UNL     1       4.350   2.318  20.346  0.00  0.00    +0.000 C 
ATOM     13  O   UNL     1       3.710   2.203  21.378  0.00  0.00    +0.000 OA
BRANCH  12  14
ATOM     14  O   UNL     1       5.186   1.364  19.891  0.00  0.00    +0.000 OA
ATOM     15  H   UNL     1       5.458   0.691  20.540  0.00  0.00    +0.000 HD
ENDBRANCH  12  14
ENDBRANCH   7  12
ENDBRANCH   1   9
BRANCH   1  16
ATOM     16  N   UNL     1       7.778   4.785  16.961  0.00  0.00    +0.000 NA
ATOM     17  H   UNL     1       8.390   4.084  17.394  0.00  0.00    +0.000 HD
BRANCH  16  18
ATOM     18  N   UNL     1       6.950   4.342  15.844  0.00  0.00    +0.000 N 
ATOM     19  C   UNL     1       7.203   4.772  14.553  0.00  0.00    +0.000 C 
ATOM     20  O   UNL     1       8.069   5.615  14.318  0.00  0.00    +0.000 OA
ATOM     21  H   UNL     1       6.297   3.579  16.018  0.00  0.00    +0.000 HD
BRANCH  19  22
ATOM     22  C   UNL     1       6.385   4.138  13.521  0.00  0.00    +0.000 A 
ATOM     23  C   UNL     1       5.014   3.952  13.529  0.00  0.00    +0.000 A 
ATOM     24  C   UNL     1       4.541   3.294  12.354  0.00  0.00    +0.000 A 
ATOM     25  C   UNL     1       5.563   2.996  11.482  0.00  0.00    +0.000 A 
ATOM     26  S   UNL     1       7.076   3.514  12.075  0.00  0.00    +0.000 S 
ENDBRANCH  19  22
ENDBRANCH  16  18
ENDBRANCH   1  16
TORSDOF 6
ENDMDL
MODEL 2
REMARK VINA RESULT:      -7.4      1.032      1.098
REMARK  Name = 
REMARK  8 active torsions:
REMARK  status: ('A' for Active; 'I' for Inactive)
REMARK    1  A    between atoms: C_1  and  C_2
REMARK    2  A    between atoms: C_4  and  C_5
REMARK    3  A    between atoms: C_5  and  O_7
REMARK    4  A    between atoms: C_9  and  S_10
REMARK    5  A    between atoms: S_10  and  N_13
REMARK    6  A    between atoms: N_13  and  N_14
REMARK    7  A    between atoms: C_15  and  C_17
REMARK    8  A    between atoms: C_22  and  C_23
REMARK                            x       y       z     vdW  Elec       q    Type
REMARK                         _______ _______ _______ _____ _____    ______ ____
ROOT
ATOM      1  S   UNL     1       7.461   5.480  17.716  0.00  0.00    +0.000 S 
ATOM      2  O   UNL     1       7.959   6.534  18.577  0.00  0.00    +0.000 OA
ATOM      3  O   UNL     1       8.148   4.206  17.658  0.00  0.00    +0.000 OA
ENDROOT
BRANCH   1   9
ATOM      4  C   UNL     1       2.253   6.733  17.953  0.00  0.00    +0.000 C 
ATOM      5  C   UNL     1       3.393   5.767  18.166  0.00  0.00    +0.000 A 
ATOM      6  C   UNL     1       3.092   4.470  18.622  0.00  0.00    +0.000 A 
ATOM      7  C   UNL     1       4.104   3.527  18.810  0.00  0.00    +0.000 A 
ATOM      8  C   UNL     1       5.431   3.886  18.566  0.00  0.00    +0.000 A 
ATOM      9  C   UNL     1       5.752   5.179  18.117  0.00  0.00    +0.000 A 
ATOM     10  C   UNL     1       4.740   6.142  17.910  0.00  0.00    +0.000 A 
ATOM     11  C   UNL     1       5.013   7.548  17.434  0.00  0.00    +0.000 C 
BRANCH   7  12
ATOM     12  C   UNL     1       3.828   2.153  19.307  0.00  0.00    +0.000 C 
ATOM     13  O   UNL     1       2.718   1.651  19.254  0.00  0.00    +0.000 OA
BRANCH  12  14
ATOM     14  O   UNL     1       4.893   1.526  19.844  0.00  0.00    +0.000 OA
ATOM     15  H   UNL     1       4.694   0.842  20.508  0.00  0.00    +0.000 HD
ENDBRANCH  12  14
ENDBRANCH   7  12
ENDBRANCH   1   9
BRANCH   1  16
ATOM     16  N   UNL     1       7.430   6.133  16.152  0.00  0.00    +0.000 NA
ATOM     17  H   UNL     1       8.247   6.658  15.820  0.00  0.00    +0.000 HD
BRANCH  16  18
ATOM     18  N   UNL     1       6.698   5.352  15.159  0.00  0.00    +0.000 N 
ATOM     19  C   UNL     1       7.244   5.082  13.917  0.00  0.00    +0.000 C 
ATOM     20  O   UNL     1       8.320   5.571  13.572  0.00  0.00    +0.000 OA
ATOM     21  H   UNL     1       5.854   4.871  15.471  0.00  0.00    +0.000 HD
BRANCH  19  22
ATOM     22  C   UNL     1       6.461   4.173  13.083  0.00  0.00    +0.000 A 
ATOM     23  C   UNL     1       5.088   3.997  13.089  0.00  0.00    +0.000 A 
ATOM     24  C   UNL     1       4.654   3.023  12.139  0.00  0.00    +0.000 A 
ATOM     25  C   UNL     1       5.707   2.483  11.436  0.00  0.00    +0.000 A 
ATOM     26  S   UNL     1       7.201   3.153  11.914  0.00  0.00    +0.000 S 
ENDBRANCH  19  22
ENDBRANCH  16  18
ENDBRANCH   1  16
TORSDOF 6
ENDMDL
MODEL 3
REMARK VINA RESULT:      -7.4      2.206      3.591
REMARK  Name = 
REMARK  8 active torsions:
REMARK  status: ('A' for Active; 'I' for Inactive)
REMARK    1  A    between atoms: C_1  and  C_2
REMARK    2  A    between atoms: C_4  and  C_5
REMARK    3  A    between atoms: C_5  and  O_7
REMARK    4  A    between atoms: C_9  and  S_10
REMARK    5  A    between atoms: S_10  and  N_13
REMARK    6  A    between atoms: N_13  and  N_14
REMARK    7  A    between atoms: C_15  and  C_17
REMARK    8  A    between atoms: C_22  and  C_23
REMARK                            x       y       z     vdW  Elec       q    Type
REMARK                         _______ _______ _______ _____ _____    ______ ____
ROOT
ATOM      1  S   UNL     1       6.563   5.492  18.730  0.00  0.00    +0.000 S 
ATOM      2  O   UNL     1       7.031   6.555  17.863  0.00  0.00    +0.000 OA
ATOM      3  O   UNL     1       7.053   5.397  20.090  0.00  0.00    +0.000 OA
ENDROOT
BRANCH   1   9
ATOM      4  C   UNL     1       1.694   3.483  19.736  0.00  0.00    +0.000 C 
ATOM      5  C   UNL     1       2.595   4.609  19.288  0.00  0.00    +0.000 A 
ATOM      6  C   UNL     1       2.008   5.849  18.974  0.00  0.00    +0.000 A 
ATOM      7  C   UNL     1       2.797   6.931  18.580  0.00  0.00    +0.000 A 
ATOM      8  C   UNL     1       4.180   6.772  18.474  0.00  0.00    +0.000 A 
ATOM      9  C   UNL     1       4.784   5.539  18.776  0.00  0.00    +0.000 A 
ATOM     10  C   UNL     1       4.003   4.436  19.187  0.00  0.00    +0.000 A 
ATOM     11  C   UNL     1       4.584   3.084  19.523  0.00  0.00    +0.000 C 
BRANCH   7  12
ATOM     12  C   UNL     1       2.212   8.251  18.224  0.00  0.00    +0.000 C 
ATOM     13  O   UNL     1       2.426   8.793  17.153  0.00  0.00    +0.000 OA
BRANCH  12  14
ATOM     14  O   UNL     1       1.456   8.809  19.191  0.00  0.00    +0.000 OA
ATOM     15  H   UNL     1       1.400   8.312  20.026  0.00  0.00    +0.000 HD
ENDBRANCH  12  14
ENDBRANCH   7  12
ENDBRANCH   1   9
BRANCH   1  16
ATOM     16  N   UNL     1       6.937   4.043  17.933  0.00  0.00    +0.000 NA
ATOM     17  H   UNL     1       6.461   3.182  18.226  0.00  0.00    +0.000 HD
BRANCH  16  18
ATOM     18  N   UNL     1       7.261   4.171  16.515  0.00  0.00    +0.000 N 
ATOM     19  C   UNL     1       6.274   4.100  15.548  0.00  0.00    +0.000 C 
ATOM     20  O   UNL     1       5.109   3.830  15.842  0.00  0.00    +0.000 OA
ATOM     21  H   UNL     1       8.201   4.484  16.276  0.00  0.00    +0.000 HD
BRANCH  19  22
ATOM     22  C   UNL     1       6.724   4.386  14.187  0.00  0.00    +0.000 A 
ATOM     23  C   UNL     1       7.618   5.363  13.783  0.00  0.00    +0.000 A 
ATOM     24  C   UNL     1       7.831   5.363  12.372  0.00  0.00    +0.000 A 
ATOM     25  C   UNL     1       7.096   4.389  11.738  0.00  0.00    +0.000 A 
ATOM     26  S   UNL     1       6.164   3.478  12.839  0.00  0.00    +0.000 S 
ENDBRANCH  19  22
ENDBRANCH  16  18
ENDBRANCH   1  16
TORSDOF 6
ENDMDL
MODEL 4
REMARK VINA RESULT:      -7.3      2.705      3.853
REMARK  Name = 
REMARK  8 active torsions:
REMARK  status: ('A' for Active; 'I' for Inactive)
REMARK    1  A    between atoms: C_1  and  C_2
REMARK    2  A    between atoms: C_4  and  C_5
REMARK    3  A    between atoms: C_5  and  O_7
REMARK    4  A    between atoms: C_9  and  S_10
REMARK    5  A    between atoms: S_10  and  N_13
REMARK    6  A    between atoms: N_13  and  N_14
REMARK    7  A    between atoms: C_15  and  C_17
REMARK    8  A    between atoms: C_22  and  C_23
REMARK                            x       y       z     vdW  Elec       q    Type
REMARK                         _______ _______ _______ _____ _____    ______ ____
ROOT
ATOM      1  S   UNL     1       5.037   4.227  18.107  0.00  0.00    +0.000 S 
ATOM      2  O   UNL     1       6.200   4.045  18.952  0.00  0.00    +0.000 OA
ATOM      3  O   UNL     1       4.663   3.200  17.156  0.00  0.00    +0.000 OA
ENDROOT
BRANCH   1   9
ATOM      4  C   UNL     1       1.187   2.955  21.616  0.00  0.00    +0.000 C 
ATOM      5  C   UNL     1       1.926   3.963  20.770  0.00  0.00    +0.000 A 
ATOM      6  C   UNL     1       1.558   5.317  20.871  0.00  0.00    +0.000 A 
ATOM      7  C   UNL     1       2.225   6.295  20.131  0.00  0.00    +0.000 A 
ATOM      8  C   UNL     1       3.253   5.919  19.264  0.00  0.00    +0.000 A 
ATOM      9  C   UNL     1       3.631   4.570  19.144  0.00  0.00    +0.000 A 
ATOM     10  C   UNL     1       2.974   3.569  19.893  0.00  0.00    +0.000 A 
ATOM     11  C   UNL     1       3.324   2.103  19.810  0.00  0.00    +0.000 C 
BRANCH   7  12
ATOM     12  C   UNL     1       1.853   7.733  20.198  0.00  0.00    +0.000 C 
ATOM     13  O   UNL     1       1.753   8.430  19.202  0.00  0.00    +0.000 OA
BRANCH  12  14
ATOM     14  O   UNL     1       1.669   8.207  21.447  0.00  0.00    +0.000 OA
ATOM     15  H   UNL     1       2.000   7.644  22.169  0.00  0.00    +0.000 HD
ENDBRANCH  12  14
ENDBRANCH   7  12
ENDBRANCH   1   9
BRANCH   1  16
ATOM     16  N   UNL     1       5.304   5.666  17.251  0.00  0.00    +0.000 NA
ATOM     17  H   UNL     1       5.737   6.458  17.740  0.00  0.00    +0.000 HD
BRANCH  16  18
ATOM     18  N   UNL     1       5.628   5.504  15.837  0.00  0.00    +0.000 N 
ATOM     19  C   UNL     1       6.857   5.007  15.438  0.00  0.00    +0.000 C 
ATOM     20  O   UNL     1       7.749   4.777  16.255  0.00  0.00    +0.000 OA
ATOM     21  H   UNL     1       4.867   5.603  15.166  0.00  0.00    +0.000 HD
BRANCH  19  22
ATOM     22  C   UNL     1       6.988   4.767  14.002  0.00  0.00    +0.000 A 
ATOM     23  C   UNL     1       7.810   5.432  13.109  0.00  0.00    +0.000 A 
ATOM     24  C   UNL     1       7.686   4.937  11.775  0.00  0.00    +0.000 A 
ATOM     25  C   UNL     1       6.774   3.911  11.688  0.00  0.00    +0.000 A 
ATOM     26  S   UNL     1       6.082   3.543  13.203  0.00  0.00    +0.000 S 
ENDBRANCH  19  22
ENDBRANCH  16  18
ENDBRANCH   1  16
TORSDOF 6
ENDMDL
MODEL 5
REMARK VINA RESULT:      -7.3      3.753      6.824
REMARK  Name = 
REMARK  8 active torsions:
REMARK  status: ('A' for Active; 'I' for Inactive)
REMARK    1  A    between atoms: C_1  and  C_2
REMARK    2  A    between atoms: C_4  and  C_5
REMARK    3  A    between atoms: C_5  and  O_7
REMARK    4  A    between atoms: C_9  and  S_10
REMARK    5  A    between atoms: S_10  and  N_13
REMARK    6  A    between atoms: N_13  and  N_14
REMARK    7  A    between atoms: C_15  and  C_17
REMARK    8  A    between atoms: C_22  and  C_23
REMARK                            x       y       z     vdW  Elec       q    Type
REMARK                         _______ _______ _______ _____ _____    ______ ____
ROOT
ATOM      1  S   UNL     1       2.775   4.075  19.870  0.00  0.00    +0.000 S 
ATOM      2  O   UNL     1       1.569   4.061  19.067  0.00  0.00    +0.000 OA
ATOM      3  O   UNL     1       3.071   2.965  20.753  0.00  0.00    +0.000 OA
ENDROOT
BRANCH   1   9
ATOM      4  C   UNL     1       5.320   4.006  15.151  0.00  0.00    +0.000 C 
ATOM      5  C   UNL     1       5.276   4.319  16.627  0.00  0.00    +0.000 A 
ATOM      6  C   UNL     1       6.387   4.960  17.206  0.00  0.00    +0.000 A 
ATOM      7  C   UNL     1       6.390   5.296  18.561  0.00  0.00    +0.000 A 
ATOM      8  C   UNL     1       5.288   4.971  19.353  0.00  0.00    +0.000 A 
ATOM      9  C   UNL     1       4.171   4.324  18.794  0.00  0.00    +0.000 A 
ATOM     10  C   UNL     1       4.146   3.985  17.422  0.00  0.00    +0.000 A 
ATOM     11  C   UNL     1       2.985   3.287  16.758  0.00  0.00    +0.000 C 
BRANCH   7  12
ATOM     12  C   UNL     1       7.552   5.959  19.212  0.00  0.00    +0.000 C 
ATOM     13  O   UNL     1       8.209   6.822  18.655  0.00  0.00    +0.000 OA
BRANCH  12  14
ATOM     14  O   UNL     1       7.834   5.505  20.450  0.00  0.00    +0.000 OA
ATOM     15  H   UNL     1       8.777   5.490  20.692  0.00  0.00    +0.000 HD
ENDBRANCH  12  14
ENDBRANCH   7  12
ENDBRANCH   1   9
BRANCH   1  16
ATOM     16  N   UNL     1       2.694   5.486  20.807  0.00  0.00    +0.000 NA
ATOM     17  H   UNL     1       3.313   5.574  21.620  0.00  0.00    +0.000 HD
BRANCH  16  18
ATOM     18  N   UNL     1       2.386   6.710  20.073  0.00  0.00    +0.000 N 
ATOM     19  C   UNL     1       1.467   7.623  20.559  0.00  0.00    +0.000 C 
ATOM     20  O   UNL     1       0.810   7.389  21.574  0.00  0.00    +0.000 OA
ATOM     21  H   UNL     1       2.990   6.950  19.287  0.00  0.00    +0.000 HD
BRANCH  19  22
ATOM     22  C   UNL     1       1.366   8.863  19.793  0.00  0.00    +0.000 A 
ATOM     23  C   UNL     1       0.792  10.057  20.197  0.00  0.00    +0.000 A 
ATOM     24  C   UNL     1       0.868  11.069  19.193  0.00  0.00    +0.000 A 
ATOM     25  C   UNL     1       1.495  10.621  18.053  0.00  0.00    +0.000 A 
ATOM     26  S   UNL     1       1.995   8.997  18.199  0.00  0.00    +0.000 S 
ENDBRANCH  19  22
ENDBRANCH  16  18
ENDBRANCH   1  16
TORSDOF 6
ENDMDL
MODEL 6
REMARK VINA RESULT:      -7.3      2.632      3.560
REMARK  Name = 
REMARK  8 active torsions:
REMARK  status: ('A' for Active; 'I' for Inactive)
REMARK    1  A    between atoms: C_1  and  C_2
REMARK    2  A    between atoms: C_4  and  C_5
REMARK    3  A    between atoms: C_5  and  O_7
REMARK    4  A    between atoms: C_9  and  S_10
REMARK    5  A    between atoms: S_10  and  N_13
REMARK    6  A    between atoms: N_13  and  N_14
REMARK    7  A    between atoms: C_15  and  C_17
REMARK    8  A    between atoms: C_22  and  C_23
REMARK                            x       y       z     vdW  Elec       q    Type
REMARK                         _______ _______ _______ _____ _____    ______ ____
ROOT
ATOM      1  S   UNL     1       5.528   5.205  18.718  0.00  0.00    +0.000 S 
ATOM      2  O   UNL     1       5.542   6.258  17.723  0.00  0.00    +0.000 OA
ATOM      3  O   UNL     1       6.536   5.178  19.759  0.00  0.00    +0.000 OA
ENDROOT
BRANCH   1   9
ATOM      4  C   UNL     1       1.480   2.899  21.371  0.00  0.00    +0.000 C 
ATOM      5  C   UNL     1       2.128   4.103  20.733  0.00  0.00    +0.000 A 
ATOM      6  C   UNL     1       1.475   5.345  20.835  0.00  0.00    +0.000 A 
ATOM      7  C   UNL     1       2.042   6.496  20.286  0.00  0.00    +0.000 A 
ATOM      8  C   UNL     1       3.260   6.407  19.608  0.00  0.00    +0.000 A 
ATOM      9  C   UNL     1       3.924   5.174  19.490  0.00  0.00    +0.000 A 
ATOM     10  C   UNL     1       3.370   4.000  20.049  0.00  0.00    +0.000 A 
ATOM     11  C   UNL     1       4.026   2.644  19.955  0.00  0.00    +0.000 C 
BRANCH   7  12
ATOM     12  C   UNL     1       1.374   7.823  20.358  0.00  0.00    +0.000 C 
ATOM     13  O   UNL     1       0.604   8.119  21.256  0.00  0.00    +0.000 OA
BRANCH  12  14
ATOM     14  O   UNL     1       1.666   8.654  19.337  0.00  0.00    +0.000 OA
ATOM     15  H   UNL     1       1.000   8.708  18.629  0.00  0.00    +0.000 HD
ENDBRANCH  12  14
ENDBRANCH   7  12
ENDBRANCH   1   9
BRANCH   1  16
ATOM     16  N   UNL     1       5.622   3.749  17.856  0.00  0.00    +0.000 NA
ATOM     17  H   UNL     1       5.152   2.919  18.235  0.00  0.00    +0.000 HD
BRANCH  16  18
ATOM     18  N   UNL     1       5.661   3.881  16.402  0.00  0.00    +0.000 N 
ATOM     19  C   UNL     1       6.835   4.205  15.746  0.00  0.00    +0.000 C 
ATOM     20  O   UNL     1       7.859   4.487  16.369  0.00  0.00    +0.000 OA
ATOM     21  H   UNL     1       4.846   3.561  15.880  0.00  0.00    +0.000 HD
BRANCH  19  22
ATOM     22  C   UNL     1       6.757   4.164  14.287  0.00  0.00    +0.000 A 
ATOM     23  C   UNL     1       5.866   3.443  13.511  0.00  0.00    +0.000 A 
ATOM     24  C   UNL     1       6.073   3.636  12.113  0.00  0.00    +0.000 A 
ATOM     25  C   UNL     1       7.116   4.498  11.859  0.00  0.00    +0.000 A 
ATOM     26  S   UNL     1       7.830   5.073  13.297  0.00  0.00    +0.000 S 
ENDBRANCH  19  22
ENDBRANCH  16  18
ENDBRANCH   1  16
TORSDOF 6
ENDMDL
MODEL 7
REMARK VINA RESULT:      -7.3      2.661      3.669
REMARK  Name = 
REMARK  8 active torsions:
REMARK  status: ('A' for Active; 'I' for Inactive)
REMARK    1  A    between atoms: C_1  and  C_2
REMARK    2  A    between atoms: C_4  and  C_5
REMARK    3  A    between atoms: C_5  and  O_7
REMARK    4  A    between atoms: C_9  and  S_10
REMARK    5  A    between atoms: S_10  and  N_13
REMARK    6  A    between atoms: N_13  and  N_14
REMARK    7  A    between atoms: C_15  and  C_17
REMARK    8  A    between atoms: C_22  and  C_23
REMARK                            x       y       z     vdW  Elec       q    Type
REMARK                         _______ _______ _______ _____ _____    ______ ____
ROOT
ATOM      1  S   UNL     1       5.401   4.777  18.654  0.00  0.00    +0.000 S 
ATOM      2  O   UNL     1       6.442   5.133  19.598  0.00  0.00    +0.000 OA
ATOM      3  O   UNL     1       5.459   3.510  17.954  0.00  0.00    +0.000 OA
ENDROOT
BRANCH   1   9
ATOM      4  C   UNL     1       1.295   2.879  21.532  0.00  0.00    +0.000 C 
ATOM      5  C   UNL     1       2.004   4.006  20.821  0.00  0.00    +0.000 A 
ATOM      6  C   UNL     1       1.442   5.295  20.888  0.00  0.00    +0.000 A 
ATOM      7  C   UNL     1       2.069   6.378  20.271  0.00  0.00    +0.000 A 
ATOM      8  C   UNL     1       3.254   6.174  19.560  0.00  0.00    +0.000 A 
ATOM      9  C   UNL     1       3.826   4.893  19.476  0.00  0.00    +0.000 A 
ATOM     10  C   UNL     1       3.211   3.786  20.103  0.00  0.00    +0.000 A 
ATOM     11  C   UNL     1       3.767   2.384  20.050  0.00  0.00    +0.000 C 
BRANCH   7  12
ATOM     12  C   UNL     1       1.498   7.751  20.305  0.00  0.00    +0.000 C 
ATOM     13  O   UNL     1       0.794   8.143  21.219  0.00  0.00    +0.000 OA
BRANCH  12  14
ATOM     14  O   UNL     1       1.797   8.510  19.231  0.00  0.00    +0.000 OA
ATOM     15  H   UNL     1       2.423   9.240  19.386  0.00  0.00    +0.000 HD
ENDBRANCH  12  14
ENDBRANCH   7  12
ENDBRANCH   1   9
BRANCH   1  16
ATOM     16  N   UNL     1       5.378   6.017  17.498  0.00  0.00    +0.000 NA
ATOM     17  H   UNL     1       5.794   6.924  17.739  0.00  0.00    +0.000 HD
BRANCH  16  18
ATOM     18  N   UNL     1       5.495   5.583  16.109  0.00  0.00    +0.000 N 
ATOM     19  C   UNL     1       6.707   5.158  15.594  0.00  0.00    +0.000 C 
ATOM     20  O   UNL     1       7.742   5.223  16.257  0.00  0.00    +0.000 OA
ATOM     21  H   UNL     1       4.631   5.440  15.588  0.00  0.00    +0.000 HD
BRANCH  19  22
ATOM     22  C   UNL     1       6.645   4.620  14.236  0.00  0.00    +0.000 A 
ATOM     23  C   UNL     1       5.717   3.729  13.725  0.00  0.00    +0.000 A 
ATOM     24  C   UNL     1       5.954   3.416  12.353  0.00  0.00    +0.000 A 
ATOM     25  C   UNL     1       7.055   4.074  11.855  0.00  0.00    +0.000 A 
ATOM     26  S   UNL     1       7.788   5.067  13.032  0.00  0.00    +0.000 S 
ENDBRANCH  19  22
ENDBRANCH  16  18
ENDBRANCH   1  16
TORSDOF 6
ENDMDL
MODEL 8
REMARK VINA RESULT:      -7.2      3.364      6.777
REMARK  Name = 
REMARK  8 active torsions:
REMARK  status: ('A' for Active; 'I' for Inactive)
REMARK    1  A    between atoms: C_1  and  C_2
REMARK    2  A    between atoms: C_4  and  C_5
REMARK    3  A    between atoms: C_5  and  O_7
REMARK    4  A    between atoms: C_9  and  S_10
REMARK    5  A    between atoms: S_10  and  N_13
REMARK    6  A    between atoms: N_13  and  N_14
REMARK    7  A    between atoms: C_15  and  C_17
REMARK    8  A    between atoms: C_22  and  C_23
REMARK                            x       y       z     vdW  Elec       q    Type
REMARK                         _______ _______ _______ _____ _____    ______ ____
ROOT
ATOM      1  S   UNL     1       3.249   3.145  17.741  0.00  0.00    +0.000 S 
ATOM      2  O   UNL     1       2.307   3.262  16.646  0.00  0.00    +0.000 OA
ATOM      3  O   UNL     1       3.589   1.839  18.268  0.00  0.00    +0.000 OA
ENDROOT
BRANCH   1   9
ATOM      4  C   UNL     1       7.863   5.689  18.735  0.00  0.00    +0.000 C 
ATOM      5  C   UNL     1       6.863   5.087  17.777  0.00  0.00    +0.000 A 
ATOM      6  C   UNL     1       7.176   5.076  16.406  0.00  0.00    +0.000 A 
ATOM      7  C   UNL     1       6.299   4.508  15.479  0.00  0.00    +0.000 A 
ATOM      8  C   UNL     1       5.089   3.967  15.919  0.00  0.00    +0.000 A 
ATOM      9  C   UNL     1       4.756   3.976  17.284  0.00  0.00    +0.000 A 
ATOM     10  C   UNL     1       5.636   4.536  18.237  0.00  0.00    +0.000 A 
ATOM     11  C   UNL     1       5.340   4.584  19.717  0.00  0.00    +0.000 C 
BRANCH   7  12
ATOM     12  C   UNL     1       6.587   4.492  14.020  0.00  0.00    +0.000 C 
ATOM     13  O   UNL     1       6.028   3.727  13.252  0.00  0.00    +0.000 OA
BRANCH  12  14
ATOM     14  O   UNL     1       7.534   5.367  13.626  0.00  0.00    +0.000 OA
ATOM     15  H   UNL     1       7.835   5.281  12.704  0.00  0.00    +0.000 HD
ENDBRANCH  12  14
ENDBRANCH   7  12
ENDBRANCH   1   9
BRANCH   1  16
ATOM     16  N   UNL     1       2.609   4.073  19.007  0.00  0.00    +0.000 NA
ATOM     17  H   UNL     1       2.928   3.888  19.964  0.00  0.00    +0.000 HD
BRANCH  16  18
ATOM     18  N   UNL     1       2.291   5.458  18.671  0.00  0.00    +0.000 N 
ATOM     19  C   UNL     1       2.019   6.388  19.658  0.00  0.00    +0.000 C 
ATOM     20  O   UNL     1       1.942   6.059  20.843  0.00  0.00    +0.000 OA
ATOM     21  H   UNL     1       2.443   5.754  17.707  0.00  0.00    +0.000 HD
BRANCH  19  22
ATOM     22  C   UNL     1       1.858   7.762  19.184  0.00  0.00    +0.000 A 
ATOM     23  C   UNL     1       2.228   8.277  17.954  0.00  0.00    +0.000 A 
ATOM     24  C   UNL     1       1.921   9.665  17.825  0.00  0.00    +0.000 A 
ATOM     25  C   UNL     1       1.326  10.170  18.958  0.00  0.00    +0.000 A 
ATOM     26  S   UNL     1       1.133   8.977  20.161  0.00  0.00    +0.000 S 
ENDBRANCH  19  22
ENDBRANCH  16  18
ENDBRANCH   1  16
TORSDOF 6
ENDMDL
MODEL 9
REMARK VINA RESULT:      -7.2      1.584      1.791
REMARK  Name = 
REMARK  8 active torsions:
REMARK  status: ('A' for Active; 'I' for Inactive)
REMARK    1  A    between atoms: C_1  and  C_2
REMARK    2  A    between atoms: C_4  and  C_5
REMARK    3  A    between atoms: C_5  and  O_7
REMARK    4  A    between atoms: C_9  and  S_10
REMARK    5  A    between atoms: S_10  and  N_13
REMARK    6  A    between atoms: N_13  and  N_14
REMARK    7  A    between atoms: C_15  and  C_17
REMARK    8  A    between atoms: C_22  and  C_23
REMARK                            x       y       z     vdW  Elec       q    Type
REMARK                         _______ _______ _______ _____ _____    ______ ____
ROOT
ATOM      1  S   UNL     1       7.240   5.384  17.175  0.00  0.00    +0.000 S 
ATOM      2  O   UNL     1       7.794   6.476  17.951  0.00  0.00    +0.000 OA
ATOM      3  O   UNL     1       7.876   4.083  17.199  0.00  0.00    +0.000 OA
ENDROOT
BRANCH   1   9
ATOM      4  C   UNL     1       2.230   7.088  18.040  0.00  0.00    +0.000 C 
ATOM      5  C   UNL     1       3.258   5.985  17.961  0.00  0.00    +0.000 A 
ATOM      6  C   UNL     1       2.830   4.658  18.152  0.00  0.00    +0.000 A 
ATOM      7  C   UNL     1       3.734   3.598  18.064  0.00  0.00    +0.000 A 
ATOM      8  C   UNL     1       5.081   3.862  17.808  0.00  0.00    +0.000 A 
ATOM      9  C   UNL     1       5.529   5.181  17.622  0.00  0.00    +0.000 A 
ATOM     10  C   UNL     1       4.627   6.266  17.697  0.00  0.00    +0.000 A 
ATOM     11  C   UNL     1       5.039   7.706  17.512  0.00  0.00    +0.000 C 
BRANCH   7  12
ATOM     12  C   UNL     1       3.322   2.184  18.276  0.00  0.00    +0.000 C 
ATOM     13  O   UNL     1       2.248   1.883  18.768  0.00  0.00    +0.000 OA
BRANCH  12  14
ATOM     14  O   UNL     1       4.244   1.272  17.910  0.00  0.00    +0.000 OA
ATOM     15  H   UNL     1       4.743   0.856  18.636  0.00  0.00    +0.000 HD
ENDBRANCH  12  14
ENDBRANCH   7  12
ENDBRANCH   1   9
BRANCH   1  16
ATOM     16  N   UNL     1       7.207   5.925  15.569  0.00  0.00    +0.000 NA
ATOM     17  H   UNL     1       7.944   6.562  15.247  0.00  0.00    +0.000 HD
BRANCH  16  18
ATOM     18  N   UNL     1       6.687   4.969  14.595  0.00  0.00    +0.000 N 
ATOM     19  C   UNL     1       7.246   4.858  13.335  0.00  0.00    +0.000 C 
ATOM     20  O   UNL     1       8.133   5.625  12.959  0.00  0.00    +0.000 OA
ATOM     21  H   UNL     1       6.021   4.274  14.930  0.00  0.00    +0.000 HD
BRANCH  19  22
ATOM     22  C   UNL     1       6.718   3.765  12.520  0.00  0.00    +0.000 A 
ATOM     23  C   UNL     1       7.436   2.866  11.750  0.00  0.00    +0.000 A 
ATOM     24  C   UNL     1       6.598   1.924  11.081  0.00  0.00    +0.000 A 
ATOM     25  C   UNL     1       5.266   2.130  11.358  0.00  0.00    +0.000 A 
ATOM     26  S   UNL     1       5.033   3.443  12.422  0.00  0.00    +0.000 S 
ENDBRANCH  19  22
ENDBRANCH  16  18
ENDBRANCH   1  16
TORSDOF 6
ENDMDL
