MODEL 1
REMARK VINA RESULT:      -6.7      0.000      0.000
REMARK  Name = 
REMARK  2 active torsions:
REMARK  status: ('A' for Active; 'I' for Inactive)
REMARK    1  A    between atoms: S_2  and  N_4
REMARK    2  A    between atoms: S_2  and  N_10
REMARK                            x       y       z     vdW  Elec       q    Type
REMARK                         _______ _______ _______ _____ _____    ______ ____
ROOT
ATOM      1  N   UNL     1       4.781   4.992  17.470  0.00  0.00    +0.000 NA
ATOM      2  C   UNL     1       5.445   4.128  16.464  0.00  0.00    +0.000 C 
ATOM      3  C   UNL     1       6.967   4.252  16.528  0.00  0.00    +0.000 C 
ATOM      4  O   UNL     1       7.397   5.605  16.352  0.00  0.00    +0.000 OA
ATOM      5  C   UNL     1       6.809   6.534  17.289  0.00  0.00    +0.000 C 
ATOM      6  C   UNL     1       7.239   7.944  16.799  0.00  0.00    +0.000 C 
ATOM      7  C   UNL     1       7.928   8.619  17.977  0.00  0.00    +0.000 C 
ATOM      8  C   UNL     1       8.538   7.467  18.744  0.00  0.00    +0.000 C 
ATOM      9  C   UNL     1       7.448   6.408  18.688  0.00  0.00    +0.000 C 
ATOM     10  C   UNL     1       5.261   6.409  17.297  0.00  0.00    +0.000 C 
ENDROOT
BRANCH   1  12
ATOM     11  O   UNL     1       4.562   5.646  19.891  0.00  0.00    +0.000 OA
ATOM     12  S   UNL     1       4.637   4.463  19.066  0.00  0.00    +0.000 S 
ATOM     13  O   UNL     1       5.630   3.444  19.312  0.00  0.00    +0.000 OA
BRANCH  12  14
ATOM     14  N   UNL     1       3.123   3.739  19.097  0.00  0.00    +0.000 NA
ATOM     15  C   UNL     1       2.018   4.502  19.703  0.00  0.00    +0.000 C 
ATOM     16  C   UNL     1       0.885   3.568  20.120  0.00  0.00    +0.000 C 
ATOM     17  C   UNL     1       0.444   2.679  18.964  0.00  0.00    +0.000 C 
ATOM     18  C   UNL     1       1.633   1.882  18.448  0.00  0.00    +0.000 C 
ATOM     19  C   UNL     1       2.763   2.809  18.009  0.00  0.00    +0.000 C 
ENDBRANCH  12  14
ENDBRANCH   1  12
TORSDOF 2
ENDMDL
MODEL 2
REMARK VINA RESULT:      -6.6      1.758      5.796
REMARK  Name = 
REMARK  2 active torsions:
REMARK  status: ('A' for Active; 'I' for Inactive)
REMARK    1  A    between atoms: S_2  and  N_4
REMARK    2  A    between atoms: S_2  and  N_10
REMARK                            x       y       z     vdW  Elec       q    Type
REMARK                         _______ _______ _______ _____ _____    ______ ____
ROOT
ATOM      1  N   UNL     1       3.056   4.980  17.345  0.00  0.00    +0.000 NA
ATOM      2  C   UNL     1       3.170   6.375  17.837  0.00  0.00    +0.000 C 
ATOM      3  C   UNL     1       3.382   6.425  19.350  0.00  0.00    +0.000 C 
ATOM      4  O   UNL     1       2.333   5.755  20.056  0.00  0.00    +0.000 OA
ATOM      5  C   UNL     1       2.140   4.382  19.653  0.00  0.00    +0.000 C 
ATOM      6  C   UNL     1       0.848   3.916  20.378  0.00  0.00    +0.000 C 
ATOM      7  C   UNL     1       1.220   2.668  21.166  0.00  0.00    +0.000 C 
ATOM      8  C   UNL     1       2.678   2.880  21.505  0.00  0.00    +0.000 C 
ATOM      9  C   UNL     1       3.244   3.465  20.221  0.00  0.00    +0.000 C 
ATOM     10  C   UNL     1       1.971   4.274  18.113  0.00  0.00    +0.000 C 
ENDROOT
BRANCH   1  12
ATOM     11  O   UNL     1       4.618   4.008  15.627  0.00  0.00    +0.000 OA
ATOM     12  S   UNL     1       4.452   4.075  17.060  0.00  0.00    +0.000 S 
ATOM     13  O   UNL     1       4.405   2.876  17.861  0.00  0.00    +0.000 OA
BRANCH  12  14
ATOM     14  N   UNL     1       5.676   5.057  17.655  0.00  0.00    +0.000 NA
ATOM     15  C   UNL     1       6.471   4.544  18.785  0.00  0.00    +0.000 C 
ATOM     16  C   UNL     1       7.155   5.690  19.526  0.00  0.00    +0.000 C 
ATOM     17  C   UNL     1       7.956   6.568  18.573  0.00  0.00    +0.000 C 
ATOM     18  C   UNL     1       7.042   7.105  17.481  0.00  0.00    +0.000 C 
ATOM     19  C   UNL     1       6.370   5.966  16.721  0.00  0.00    +0.000 C 
ENDBRANCH  12  14
ENDBRANCH   1  12
TORSDOF 2
ENDMDL
MODEL 3
REMARK VINA RESULT:      -6.5      2.213      5.912
REMARK  Name = 
REMARK  2 active torsions:
REMARK  status: ('A' for Active; 'I' for Inactive)
REMARK    1  A    between atoms: S_2  and  N_4
REMARK    2  A    between atoms: S_2  and  N_10
REMARK                            x       y       z     vdW  Elec       q    Type
REMARK                         _______ _______ _______ _____ _____    ______ ____
ROOT
ATOM      1  N   UNL     1       3.414   5.263  17.836  0.00  0.00    +0.000 NA
ATOM      2  C   UNL     1       2.994   6.650  18.152  0.00  0.00    +0.000 C 
ATOM      3  C   UNL     1       2.673   6.819  19.637  0.00  0.00    +0.000 C 
ATOM      4  O   UNL     1       1.659   5.905  20.067  0.00  0.00    +0.000 OA
ATOM      5  C   UNL     1       1.971   4.519  19.808  0.00  0.00    +0.000 C 
ATOM      6  C   UNL     1       0.678   3.732  20.154  0.00  0.00    +0.000 C 
ATOM      7  C   UNL     1       1.076   2.674  21.174  0.00  0.00    +0.000 C 
ATOM      8  C   UNL     1       2.232   3.308  21.915  0.00  0.00    +0.000 C 
ATOM      9  C   UNL     1       3.021   3.979  20.802  0.00  0.00    +0.000 C 
ATOM     10  C   UNL     1       2.356   4.307  18.318  0.00  0.00    +0.000 C 
ENDROOT
BRANCH   1  12
ATOM     11  O   UNL     1       4.954   3.439  18.634  0.00  0.00    +0.000 OA
ATOM     12  S   UNL     1       5.009   4.785  18.114  0.00  0.00    +0.000 S 
ATOM     13  O   UNL     1       5.693   5.834  18.831  0.00  0.00    +0.000 OA
BRANCH  12  14
ATOM     14  N   UNL     1       5.658   4.694  16.569  0.00  0.00    +0.000 NA
ATOM     15  C   UNL     1       7.125   4.750  16.444  0.00  0.00    +0.000 C 
ATOM     16  C   UNL     1       7.530   5.170  15.033  0.00  0.00    +0.000 C 
ATOM     17  C   UNL     1       6.866   4.291  13.980  0.00  0.00    +0.000 C 
ATOM     18  C   UNL     1       5.354   4.348  14.144  0.00  0.00    +0.000 C 
ATOM     19  C   UNL     1       4.939   3.910  15.545  0.00  0.00    +0.000 C 
ENDBRANCH  12  14
ENDBRANCH   1  12
TORSDOF 2
ENDMDL
MODEL 4
REMARK VINA RESULT:      -6.4      1.968      5.968
REMARK  Name = 
REMARK  2 active torsions:
REMARK  status: ('A' for Active; 'I' for Inactive)
REMARK    1  A    between atoms: S_2  and  N_4
REMARK    2  A    between atoms: S_2  and  N_10
REMARK                            x       y       z     vdW  Elec       q    Type
REMARK                         _______ _______ _______ _____ _____    ______ ____
ROOT
ATOM      1  N   UNL     1       3.491   5.183  17.891  0.00  0.00    +0.000 NA
ATOM      2  C   UNL     1       3.062   6.574  18.179  0.00  0.00    +0.000 C 
ATOM      3  C   UNL     1       2.693   6.759  19.650  0.00  0.00    +0.000 C 
ATOM      4  O   UNL     1       1.665   5.849  20.058  0.00  0.00    +0.000 OA
ATOM      5  C   UNL     1       1.985   4.461  19.824  0.00  0.00    +0.000 C 
ATOM      6  C   UNL     1       0.681   3.678  20.137  0.00  0.00    +0.000 C 
ATOM      7  C   UNL     1       1.046   2.631  21.181  0.00  0.00    +0.000 C 
ATOM      8  C   UNL     1       2.178   3.273  21.951  0.00  0.00    +0.000 C 
ATOM      9  C   UNL     1       3.002   3.932  20.857  0.00  0.00    +0.000 C 
ATOM     10  C   UNL     1       2.418   4.232  18.350  0.00  0.00    +0.000 C 
ENDROOT
BRANCH   1  12
ATOM     11  O   UNL     1       5.011   3.342  18.688  0.00  0.00    +0.000 OA
ATOM     12  S   UNL     1       5.076   4.709  18.226  0.00  0.00    +0.000 S 
ATOM     13  O   UNL     1       5.715   5.733  19.016  0.00  0.00    +0.000 OA
BRANCH  12  14
ATOM     14  N   UNL     1       5.798   4.686  16.711  0.00  0.00    +0.000 NA
ATOM     15  C   UNL     1       4.991   4.199  15.579  0.00  0.00    +0.000 C 
ATOM     16  C   UNL     1       5.889   3.756  14.428  0.00  0.00    +0.000 C 
ATOM     17  C   UNL     1       6.875   4.852  14.040  0.00  0.00    +0.000 C 
ATOM     18  C   UNL     1       7.709   5.243  15.251  0.00  0.00    +0.000 C 
ATOM     19  C   UNL     1       6.819   5.707  16.400  0.00  0.00    +0.000 C 
ENDBRANCH  12  14
ENDBRANCH   1  12
TORSDOF 2
ENDMDL
MODEL 5
REMARK VINA RESULT:      -6.3      2.368      3.360
REMARK  Name = 
REMARK  2 active torsions:
REMARK  status: ('A' for Active; 'I' for Inactive)
REMARK    1  A    between atoms: S_2  and  N_4
REMARK    2  A    between atoms: S_2  and  N_10
REMARK                            x       y       z     vdW  Elec       q    Type
REMARK                         _______ _______ _______ _____ _____    ______ ____
ROOT
ATOM      1  N   UNL     1       4.811   4.512  18.026  0.00  0.00    +0.000 NA
ATOM      2  C   UNL     1       4.511   5.960  18.146  0.00  0.00    +0.000 C 
ATOM      3  C   UNL     1       4.410   6.631  16.777  0.00  0.00    +0.000 C 
ATOM      4  O   UNL     1       5.605   6.454  16.009  0.00  0.00    +0.000 OA
ATOM      5  C   UNL     1       5.986   5.072  15.829  0.00  0.00    +0.000 C 
ATOM      6  C   UNL     1       7.388   5.114  15.164  0.00  0.00    +0.000 C 
ATOM      7  C   UNL     1       7.284   4.292  13.886  0.00  0.00    +0.000 C 
ATOM      8  C   UNL     1       5.842   4.463  13.467  0.00  0.00    +0.000 C 
ATOM      9  C   UNL     1       5.092   4.370  14.786  0.00  0.00    +0.000 C 
ATOM     10  C   UNL     1       6.052   4.333  17.193  0.00  0.00    +0.000 C 
ENDROOT
BRANCH   1  12
ATOM     11  O   UNL     1       4.181   2.141  17.460  0.00  0.00    +0.000 OA
ATOM     12  S   UNL     1       3.561   3.420  17.715  0.00  0.00    +0.000 S 
ATOM     13  O   UNL     1       2.650   4.010  16.764  0.00  0.00    +0.000 OA
BRANCH  12  14
ATOM     14  N   UNL     1       2.775   3.304  19.194  0.00  0.00    +0.000 NA
ATOM     15  C   UNL     1       1.339   3.632  19.227  0.00  0.00    +0.000 C 
ATOM     16  C   UNL     1       0.899   3.980  20.647  0.00  0.00    +0.000 C 
ATOM     17  C   UNL     1       1.293   2.888  21.633  0.00  0.00    +0.000 C 
ATOM     18  C   UNL     1       2.797   2.665  21.577  0.00  0.00    +0.000 C 
ATOM     19  C   UNL     1       3.243   2.296  20.166  0.00  0.00    +0.000 C 
ENDBRANCH  12  14
ENDBRANCH   1  12
TORSDOF 2
ENDMDL
MODEL 6
REMARK VINA RESULT:      -6.1      2.388      3.397
REMARK  Name = 
REMARK  2 active torsions:
REMARK  status: ('A' for Active; 'I' for Inactive)
REMARK    1  A    between atoms: S_2  and  N_4
REMARK    2  A    between atoms: S_2  and  N_10
REMARK                            x       y       z     vdW  Elec       q    Type
REMARK                         _______ _______ _______ _____ _____    ______ ____
ROOT
ATOM      1  N   UNL     1       4.816   4.448  18.085  0.00  0.00    +0.000 NA
ATOM      2  C   UNL     1       4.512   5.891  18.245  0.00  0.00    +0.000 C 
ATOM      3  C   UNL     1       4.414   6.601  16.896  0.00  0.00    +0.000 C 
ATOM      4  O   UNL     1       5.612   6.449  16.128  0.00  0.00    +0.000 OA
ATOM      5  C   UNL     1       5.998   5.075  15.910  0.00  0.00    +0.000 C 
ATOM      6  C   UNL     1       7.403   5.140  15.251  0.00  0.00    +0.000 C 
ATOM      7  C   UNL     1       7.307   4.355  13.950  0.00  0.00    +0.000 C 
ATOM      8  C   UNL     1       5.865   4.534  13.530  0.00  0.00    +0.000 C 
ATOM      9  C   UNL     1       5.110   4.400  14.843  0.00  0.00    +0.000 C 
ATOM     10  C   UNL     1       6.061   4.296  17.252  0.00  0.00    +0.000 C 
ENDROOT
BRANCH   1  12
ATOM     11  O   UNL     1       4.197   2.101  17.418  0.00  0.00    +0.000 OA
ATOM     12  S   UNL     1       3.571   3.362  17.737  0.00  0.00    +0.000 S 
ATOM     13  O   UNL     1       2.646   3.988  16.823  0.00  0.00    +0.000 OA
BRANCH  12  14
ATOM     14  N   UNL     1       2.801   3.173  19.217  0.00  0.00    +0.000 NA
ATOM     15  C   UNL     1       3.648   2.939  20.399  0.00  0.00    +0.000 C 
ATOM     16  C   UNL     1       2.840   2.291  21.520  0.00  0.00    +0.000 C 
ATOM     17  C   UNL     1       1.579   3.089  21.829  0.00  0.00    +0.000 C 
ATOM     18  C   UNL     1       0.737   3.222  20.568  0.00  0.00    +0.000 C 
ATOM     19  C   UNL     1       1.530   3.888  19.448  0.00  0.00    +0.000 C 
ENDBRANCH  12  14
ENDBRANCH   1  12
TORSDOF 2
ENDMDL
MODEL 7
REMARK VINA RESULT:      -6.0      2.009      3.087
REMARK  Name = 
REMARK  2 active torsions:
REMARK  status: ('A' for Active; 'I' for Inactive)
REMARK    1  A    between atoms: S_2  and  N_4
REMARK    2  A    between atoms: S_2  and  N_10
REMARK                            x       y       z     vdW  Elec       q    Type
REMARK                         _______ _______ _______ _____ _____    ______ ____
ROOT
ATOM      1  N   UNL     1       5.351   4.268  19.248  0.00  0.00    +0.000 NA
ATOM      2  C   UNL     1       4.469   5.448  19.422  0.00  0.00    +0.000 C 
ATOM      3  C   UNL     1       3.865   5.903  18.094  0.00  0.00    +0.000 C 
ATOM      4  O   UNL     1       4.876   6.203  17.126  0.00  0.00    +0.000 OA
ATOM      5  C   UNL     1       5.791   5.113  16.879  0.00  0.00    +0.000 C 
ATOM      6  C   UNL     1       6.906   5.707  15.975  0.00  0.00    +0.000 C 
ATOM      7  C   UNL     1       6.970   4.827  14.734  0.00  0.00    +0.000 C 
ATOM      8  C   UNL     1       5.553   4.324  14.578  0.00  0.00    +0.000 C 
ATOM      9  C   UNL     1       5.142   4.016  16.009  0.00  0.00    +0.000 C 
ATOM     10  C   UNL     1       6.393   4.581  18.208  0.00  0.00    +0.000 C 
ENDROOT
BRANCH   1  12
ATOM     11  O   UNL     1       5.199   1.978  20.283  0.00  0.00    +0.000 OA
ATOM     12  S   UNL     1       4.677   2.723  19.161  0.00  0.00    +0.000 S 
ATOM     13  O   UNL     1       4.810   2.229  17.812  0.00  0.00    +0.000 OA
BRANCH  12  14
ATOM     14  N   UNL     1       3.048   2.996  19.462  0.00  0.00    +0.000 NA
ATOM     15  C   UNL     1       2.094   2.666  18.389  0.00  0.00    +0.000 C 
ATOM     16  C   UNL     1       0.781   3.418  18.586  0.00  0.00    +0.000 C 
ATOM     17  C   UNL     1       0.218   3.196  19.985  0.00  0.00    +0.000 C 
ATOM     18  C   UNL     1       1.244   3.626  21.024  0.00  0.00    +0.000 C 
ATOM     19  C   UNL     1       2.554   2.864  20.847  0.00  0.00    +0.000 C 
ENDBRANCH  12  14
ENDBRANCH   1  12
TORSDOF 2
ENDMDL
MODEL 8
REMARK VINA RESULT:      -6.0      2.077      5.407
REMARK  Name = 
REMARK  2 active torsions:
REMARK  status: ('A' for Active; 'I' for Inactive)
REMARK    1  A    between atoms: S_2  and  N_4
REMARK    2  A    between atoms: S_2  and  N_10
REMARK                            x       y       z     vdW  Elec       q    Type
REMARK                         _______ _______ _______ _____ _____    ______ ____
ROOT
ATOM      1  N   UNL     1       4.480   3.472  17.998  0.00  0.00    +0.000 NA
ATOM      2  C   UNL     1       3.341   2.544  17.792  0.00  0.00    +0.000 C 
ATOM      3  C   UNL     1       2.038   3.298  17.526  0.00  0.00    +0.000 C 
ATOM      4  O   UNL     1       1.726   4.208  18.585  0.00  0.00    +0.000 OA
ATOM      5  C   UNL     1       2.772   5.162  18.866  0.00  0.00    +0.000 C 
ATOM      6  C   UNL     1       2.323   5.900  20.156  0.00  0.00    +0.000 C 
ATOM      7  C   UNL     1       2.323   7.387  19.825  0.00  0.00    +0.000 C 
ATOM      8  C   UNL     1       2.007   7.425  18.347  0.00  0.00    +0.000 C 
ATOM      9  C   UNL     1       2.829   6.271  17.794  0.00  0.00    +0.000 C 
ATOM     10  C   UNL     1       4.131   4.445  19.093  0.00  0.00    +0.000 C 
ENDROOT
BRANCH   1  12
ATOM     11  O   UNL     1       4.270   4.810  15.875  0.00  0.00    +0.000 OA
ATOM     12  S   UNL     1       5.274   4.134  16.663  0.00  0.00    +0.000 S 
ATOM     13  O   UNL     1       6.126   3.126  16.079  0.00  0.00    +0.000 OA
BRANCH  12  14
ATOM     14  N   UNL     1       6.250   5.317  17.344  0.00  0.00    +0.000 NA
ATOM     15  C   UNL     1       7.433   4.871  18.100  0.00  0.00    +0.000 C 
ATOM     16  C   UNL     1       7.904   5.963  19.057  0.00  0.00    +0.000 C 
ATOM     17  C   UNL     1       8.116   7.285  18.329  0.00  0.00    +0.000 C 
ATOM     18  C   UNL     1       6.827   7.699  17.634  0.00  0.00    +0.000 C 
ATOM     19  C   UNL     1       6.359   6.622  16.661  0.00  0.00    +0.000 C 
ENDBRANCH  12  14
ENDBRANCH   1  12
TORSDOF 2
ENDMDL
MODEL 9
REMARK VINA RESULT:      -5.9      1.611      3.033
REMARK  Name = 
REMARK  2 active torsions:
REMARK  status: ('A' for Active; 'I' for Inactive)
REMARK    1  A    between atoms: S_2  and  N_4
REMARK    2  A    between atoms: S_2  and  N_10
REMARK                            x       y       z     vdW  Elec       q    Type
REMARK                         _______ _______ _______ _____ _____    ______ ____
ROOT
ATOM      1  N   UNL     1       5.280   4.688  18.751  0.00  0.00    +0.000 NA
ATOM      2  C   UNL     1       6.442   5.491  19.203  0.00  0.00    +0.000 C 
ATOM      3  C   UNL     1       6.991   6.372  18.081  0.00  0.00    +0.000 C 
ATOM      4  O   UNL     1       7.362   5.600  16.934  0.00  0.00    +0.000 OA
ATOM      5  C   UNL     1       6.296   4.780  16.410  0.00  0.00    +0.000 C 
ATOM      6  C   UNL     1       6.956   3.889  15.323  0.00  0.00    +0.000 C 
ATOM      7  C   UNL     1       6.168   4.118  14.040  0.00  0.00    +0.000 C 
ATOM      8  C   UNL     1       5.674   5.541  14.172  0.00  0.00    +0.000 C 
ATOM      9  C   UNL     1       5.263   5.623  15.633  0.00  0.00    +0.000 C 
ATOM     10  C   UNL     1       5.670   3.902  17.528  0.00  0.00    +0.000 C 
ENDROOT
BRANCH   1  12
ATOM     11  O   UNL     1       3.293   5.314  17.339  0.00  0.00    +0.000 OA
ATOM     12  S   UNL     1       3.744   5.386  18.709  0.00  0.00    +0.000 S 
ATOM     13  O   UNL     1       3.781   6.643  19.417  0.00  0.00    +0.000 OA
BRANCH  12  14
ATOM     14  N   UNL     1       2.808   4.311  19.596  0.00  0.00    +0.000 NA
ATOM     15  C   UNL     1       2.509   4.663  20.995  0.00  0.00    +0.000 C 
ATOM     16  C   UNL     1       2.125   3.420  21.793  0.00  0.00    +0.000 C 
ATOM     17  C   UNL     1       1.002   2.649  21.111  0.00  0.00    +0.000 C 
ATOM     18  C   UNL     1       1.424   2.270  19.699  0.00  0.00    +0.000 C 
ATOM     19  C   UNL     1       1.791   3.508  18.887  0.00  0.00    +0.000 C 
ENDBRANCH  12  14
ENDBRANCH   1  12
TORSDOF 2
ENDMDL
