MODEL 1
REMARK VINA RESULT:      -7.7      0.000      0.000
REMARK  Name = 
REMARK  9 active torsions:
REMARK  status: ('A' for Active; 'I' for Inactive)
REMARK    1  A    between atoms: C_1  and  C_2
REMARK    2  A    between atoms: C_2  and  C_3
REMARK    3  A    between atoms: C_2  and  C_4
REMARK    4  A    between atoms: C_4  and  C_5
REMARK    5  A    between atoms: C_5  and  C_6
REMARK    6  A    between atoms: C_6  and  C_7
REMARK    7  A    between atoms: C_7  and  C_8
REMARK    8  A    between atoms: N_10  and  C_11
REMARK    9  A    between atoms: C_16  and  S_17
REMARK                            x       y       z     vdW  Elec       q    Type
REMARK                         _______ _______ _______ _____ _____    ______ ____
ROOT
ATOM      1  C   UNL     1       6.088   5.571  17.822  0.00  0.00    +0.000 C 
ATOM      2  C   UNL     1       6.860   5.552  19.169  0.00  0.00    +0.000 C 
ATOM      3  C   UNL     1       8.262   6.161  19.090  0.00  0.00    +0.000 C 
ATOM      4  C   UNL     1       8.253   7.566  18.502  0.00  0.00    +0.000 C 
ATOM      5  C   UNL     1       7.512   7.621  17.173  0.00  0.00    +0.000 C 
ATOM      6  C   UNL     1       6.108   7.036  17.298  0.00  0.00    +0.000 C 
ENDROOT
BRANCH   1   7
ATOM      7  C   UNL     1       4.605   5.152  18.025  0.00  0.00    +0.000 C 
ATOM      8  O   UNL     1       3.749   5.411  17.173  0.00  0.00    +0.000 OA
ATOM      9  N   UNL     1       4.338   4.430  19.174  0.00  0.00    +0.000 N 
ATOM     10  H   UNL     1       4.914   4.629  19.982  0.00  0.00    +0.000 HD
BRANCH   9  11
ATOM     11  C   UNL     1       3.042   3.953  19.497  0.00  0.00    +0.000 A 
ATOM     12  C   UNL     1       2.150   4.743  20.233  0.00  0.00    +0.000 A 
ATOM     13  C   UNL     1       0.867   4.277  20.520  0.00  0.00    +0.000 A 
ATOM     14  C   UNL     1       0.472   3.012  20.094  0.00  0.00    +0.000 A 
ATOM     15  C   UNL     1       1.356   2.213  19.365  0.00  0.00    +0.000 A 
ATOM     16  C   UNL     1       2.637   2.683  19.043  0.00  0.00    +0.000 A 
BRANCH  16  17
ATOM     17  S   UNL     1       3.770   1.623  18.143  0.00  0.00    +0.000 S 
ATOM     18  H   UNL     1       3.253   0.449  18.534  0.00  0.00    +0.000 HD
ENDBRANCH  16  17
ENDBRANCH   9  11
ENDBRANCH   1   7
BRANCH   1  19
ATOM     19  C   UNL     1       6.734   4.576  16.807  0.00  0.00    +0.000 C 
BRANCH  19  20
ATOM     20  C   UNL     1       6.695   5.072  15.352  0.00  0.00    +0.000 C 
BRANCH  20  21
ATOM     21  C   UNL     1       5.740   4.264  14.469  0.00  0.00    +0.000 C 
BRANCH  21  23
ATOM     22  C   UNL     1       5.370   3.324  12.161  0.00  0.00    +0.000 C 
ATOM     23  C   UNL     1       6.424   3.746  13.186  0.00  0.00    +0.000 C 
ATOM     24  C   UNL     1       7.363   4.781  12.561  0.00  0.00    +0.000 C 
ENDBRANCH  21  23
ENDBRANCH  20  21
ENDBRANCH  19  20
ENDBRANCH   1  19
TORSDOF 7
ENDMDL
MODEL 2
REMARK VINA RESULT:      -7.6      1.160      1.552
REMARK  Name = 
REMARK  9 active torsions:
REMARK  status: ('A' for Active; 'I' for Inactive)
REMARK    1  A    between atoms: C_1  and  C_2
REMARK    2  A    between atoms: C_2  and  C_3
REMARK    3  A    between atoms: C_2  and  C_4
REMARK    4  A    between atoms: C_4  and  C_5
REMARK    5  A    between atoms: C_5  and  C_6
REMARK    6  A    between atoms: C_6  and  C_7
REMARK    7  A    between atoms: C_7  and  C_8
REMARK    8  A    between atoms: N_10  and  C_11
REMARK    9  A    between atoms: C_16  and  S_17
REMARK                            x       y       z     vdW  Elec       q    Type
REMARK                         _______ _______ _______ _____ _____    ______ ____
ROOT
ATOM      1  C   UNL     1       6.187   5.463  17.638  0.00  0.00    +0.000 C 
ATOM      2  C   UNL     1       6.843   5.454  19.045  0.00  0.00    +0.000 C 
ATOM      3  C   UNL     1       8.215   6.129  19.095  0.00  0.00    +0.000 C 
ATOM      4  C   UNL     1       8.188   7.543  18.529  0.00  0.00    +0.000 C 
ATOM      5  C   UNL     1       7.560   7.589  17.143  0.00  0.00    +0.000 C 
ATOM      6  C   UNL     1       6.180   6.937  17.140  0.00  0.00    +0.000 C 
ENDROOT
BRANCH   1   7
ATOM      7  C   UNL     1       4.714   4.971  17.707  0.00  0.00    +0.000 C 
ATOM      8  O   UNL     1       3.900   5.275  16.830  0.00  0.00    +0.000 OA
ATOM      9  N   UNL     1       4.409   4.137  18.768  0.00  0.00    +0.000 N 
ATOM     10  H   UNL     1       4.927   4.283  19.626  0.00  0.00    +0.000 HD
BRANCH   9  11
ATOM     11  C   UNL     1       3.119   3.584  18.964  0.00  0.00    +0.000 A 
ATOM     12  C   UNL     1       2.806   2.304  18.487  0.00  0.00    +0.000 A 
ATOM     13  C   UNL     1       1.542   1.758  18.712  0.00  0.00    +0.000 A 
ATOM     14  C   UNL     1       0.576   2.491  19.394  0.00  0.00    +0.000 A 
ATOM     15  C   UNL     1       0.875   3.771  19.868  0.00  0.00    +0.000 A 
ATOM     16  C   UNL     1       2.151   4.318  19.676  0.00  0.00    +0.000 A 
BRANCH  16  17
ATOM     17  S   UNL     1       2.498   5.980  20.256  0.00  0.00    +0.000 S 
ATOM     18  H   UNL     1       1.290   6.505  20.007  0.00  0.00    +0.000 HD
ENDBRANCH  16  17
ENDBRANCH   9  11
ENDBRANCH   1   7
BRANCH   1  19
ATOM     19  C   UNL     1       6.963   4.519  16.667  0.00  0.00    +0.000 C 
BRANCH  19  20
ATOM     20  C   UNL     1       6.873   4.946  15.192  0.00  0.00    +0.000 C 
BRANCH  20  21
ATOM     21  C   UNL     1       5.907   4.083  14.377  0.00  0.00    +0.000 C 
BRANCH  21  23
ATOM     22  C   UNL     1       5.376   3.304  12.041  0.00  0.00    +0.000 C 
ATOM     23  C   UNL     1       6.499   3.670  13.012  0.00  0.00    +0.000 C 
ATOM     24  C   UNL     1       7.376   4.763  12.396  0.00  0.00    +0.000 C 
ENDBRANCH  21  23
ENDBRANCH  20  21
ENDBRANCH  19  20
ENDBRANCH   1  19
TORSDOF 7
ENDMDL
MODEL 3
REMARK VINA RESULT:      -7.5      1.521      1.843
REMARK  Name = 
REMARK  9 active torsions:
REMARK  status: ('A' for Active; 'I' for Inactive)
REMARK    1  A    between atoms: C_1  and  C_2
REMARK    2  A    between atoms: C_2  and  C_3
REMARK    3  A    between atoms: C_2  and  C_4
REMARK    4  A    between atoms: C_4  and  C_5
REMARK    5  A    between atoms: C_5  and  C_6
REMARK    6  A    between atoms: C_6  and  C_7
REMARK    7  A    between atoms: C_7  and  C_8
REMARK    8  A    between atoms: N_10  and  C_11
REMARK    9  A    between atoms: C_16  and  S_17
REMARK                            x       y       z     vdW  Elec       q    Type
REMARK                         _______ _______ _______ _____ _____    ______ ____
ROOT
ATOM      1  C   UNL     1       6.309   5.331  17.931  0.00  0.00    +0.000 C 
ATOM      2  C   UNL     1       7.304   5.799  19.028  0.00  0.00    +0.000 C 
ATOM      3  C   UNL     1       8.302   6.856  18.550  0.00  0.00    +0.000 C 
ATOM      4  C   UNL     1       7.615   8.055  17.908  0.00  0.00    +0.000 C 
ATOM      5  C   UNL     1       6.638   7.634  16.819  0.00  0.00    +0.000 C 
ATOM      6  C   UNL     1       5.639   6.605  17.341  0.00  0.00    +0.000 C 
ENDROOT
BRANCH   1   7
ATOM      7  C   UNL     1       5.191   4.437  18.538  0.00  0.00    +0.000 C 
ATOM      8  O   UNL     1       5.458   3.561  19.366  0.00  0.00    +0.000 OA
ATOM      9  N   UNL     1       3.901   4.735  18.138  0.00  0.00    +0.000 N 
ATOM     10  H   UNL     1       3.789   5.106  17.202  0.00  0.00    +0.000 HD
BRANCH   9  11
ATOM     11  C   UNL     1       2.767   4.031  18.615  0.00  0.00    +0.000 A 
ATOM     12  C   UNL     1       2.461   2.752  18.131  0.00  0.00    +0.000 A 
ATOM     13  C   UNL     1       1.359   2.055  18.629  0.00  0.00    +0.000 A 
ATOM     14  C   UNL     1       0.545   2.636  19.597  0.00  0.00    +0.000 A 
ATOM     15  C   UNL     1       0.838   3.913  20.081  0.00  0.00    +0.000 A 
ATOM     16  C   UNL     1       1.959   4.611  19.611  0.00  0.00    +0.000 A 
BRANCH  16  17
ATOM     17  S   UNL     1       2.290   6.266  20.216  0.00  0.00    +0.000 S 
ATOM     18  H   UNL     1       2.352   6.876  19.024  0.00  0.00    +0.000 HD
ENDBRANCH  16  17
ENDBRANCH   9  11
ENDBRANCH   1   7
BRANCH   1  19
ATOM     19  C   UNL     1       7.050   4.498  16.839  0.00  0.00    +0.000 C 
BRANCH  19  20
ATOM     20  C   UNL     1       6.107   3.872  15.798  0.00  0.00    +0.000 C 
BRANCH  20  21
ATOM     21  C   UNL     1       6.002   4.696  14.512  0.00  0.00    +0.000 C 
BRANCH  21  23
ATOM     22  C   UNL     1       5.787   3.365  12.384  0.00  0.00    +0.000 C 
ATOM     23  C   UNL     1       6.768   4.049  13.338  0.00  0.00    +0.000 C 
ATOM     24  C   UNL     1       7.620   5.058  12.563  0.00  0.00    +0.000 C 
ENDBRANCH  21  23
ENDBRANCH  20  21
ENDBRANCH  19  20
ENDBRANCH   1  19
TORSDOF 7
ENDMDL
MODEL 4
REMARK VINA RESULT:      -7.2      1.130      1.163
REMARK  Name = 
REMARK  9 active torsions:
REMARK  status: ('A' for Active; 'I' for Inactive)
REMARK    1  A    between atoms: C_1  and  C_2
REMARK    2  A    between atoms: C_2  and  C_3
REMARK    3  A    between atoms: C_2  and  C_4
REMARK    4  A    between atoms: C_4  and  C_5
REMARK    5  A    between atoms: C_5  and  C_6
REMARK    6  A    between atoms: C_6  and  C_7
REMARK    7  A    between atoms: C_7  and  C_8
REMARK    8  A    between atoms: N_10  and  C_11
REMARK    9  A    between atoms: C_16  and  S_17
REMARK                            x       y       z     vdW  Elec       q    Type
REMARK                         _______ _______ _______ _____ _____    ______ ____
ROOT
ATOM      1  C   UNL     1       6.343   5.394  18.053  0.00  0.00    +0.000 C 
ATOM      2  C   UNL     1       7.400   5.916  19.064  0.00  0.00    +0.000 C 
ATOM      3  C   UNL     1       8.338   6.979  18.488  0.00  0.00    +0.000 C 
ATOM      4  C   UNL     1       7.582   8.143  17.861  0.00  0.00    +0.000 C 
ATOM      5  C   UNL     1       6.542   7.669  16.855  0.00  0.00    +0.000 C 
ATOM      6  C   UNL     1       5.605   6.635  17.474  0.00  0.00    +0.000 C 
ENDROOT
BRANCH   1   7
ATOM      7  C   UNL     1       5.290   4.496  18.762  0.00  0.00    +0.000 C 
ATOM      8  O   UNL     1       5.624   3.448  19.323  0.00  0.00    +0.000 OA
ATOM      9  N   UNL     1       3.996   4.983  18.771  0.00  0.00    +0.000 N 
ATOM     10  H   UNL     1       3.715   5.547  17.979  0.00  0.00    +0.000 HD
BRANCH   9  11
ATOM     11  C   UNL     1       2.923   4.297  19.395  0.00  0.00    +0.000 A 
ATOM     12  C   UNL     1       2.595   4.545  20.734  0.00  0.00    +0.000 A 
ATOM     13  C   UNL     1       1.518   3.887  21.330  0.00  0.00    +0.000 A 
ATOM     14  C   UNL     1       0.774   2.964  20.601  0.00  0.00    +0.000 A 
ATOM     15  C   UNL     1       1.097   2.704  19.267  0.00  0.00    +0.000 A 
ATOM     16  C   UNL     1       2.157   3.382  18.648  0.00  0.00    +0.000 A 
BRANCH  16  17
ATOM     17  S   UNL     1       2.579   3.001  16.947  0.00  0.00    +0.000 S 
ATOM     18  H   UNL     1       1.922   1.835  16.864  0.00  0.00    +0.000 HD
ENDBRANCH  16  17
ENDBRANCH   9  11
ENDBRANCH   1   7
BRANCH   1  19
ATOM     19  C   UNL     1       7.025   4.544  16.936  0.00  0.00    +0.000 C 
BRANCH  19  20
ATOM     20  C   UNL     1       6.037   3.981  15.902  0.00  0.00    +0.000 C 
BRANCH  20  21
ATOM     21  C   UNL     1       5.998   4.794  14.605  0.00  0.00    +0.000 C 
BRANCH  21  23
ATOM     22  C   UNL     1       5.822   3.407  12.510  0.00  0.00    +0.000 C 
ATOM     23  C   UNL     1       6.785   4.115  13.464  0.00  0.00    +0.000 C 
ATOM     24  C   UNL     1       7.654   5.101  12.679  0.00  0.00    +0.000 C 
ENDBRANCH  21  23
ENDBRANCH  20  21
ENDBRANCH  19  20
ENDBRANCH   1  19
TORSDOF 7
ENDMDL
MODEL 5
REMARK VINA RESULT:      -7.1      0.767      1.055
REMARK  Name = 
REMARK  9 active torsions:
REMARK  status: ('A' for Active; 'I' for Inactive)
REMARK    1  A    between atoms: C_1  and  C_2
REMARK    2  A    between atoms: C_2  and  C_3
REMARK    3  A    between atoms: C_2  and  C_4
REMARK    4  A    between atoms: C_4  and  C_5
REMARK    5  A    between atoms: C_5  and  C_6
REMARK    6  A    between atoms: C_6  and  C_7
REMARK    7  A    between atoms: C_7  and  C_8
REMARK    8  A    between atoms: N_10  and  C_11
REMARK    9  A    between atoms: C_16  and  S_17
REMARK                            x       y       z     vdW  Elec       q    Type
REMARK                         _______ _______ _______ _____ _____    ______ ____
ROOT
ATOM      1  C   UNL     1       6.268   5.473  17.851  0.00  0.00    +0.000 C 
ATOM      2  C   UNL     1       7.045   5.669  19.182  0.00  0.00    +0.000 C 
ATOM      3  C   UNL     1       8.347   6.458  19.029  0.00  0.00    +0.000 C 
ATOM      4  C   UNL     1       8.138   7.796  18.332  0.00  0.00    +0.000 C 
ATOM      5  C   UNL     1       7.386   7.641  17.017  0.00  0.00    +0.000 C 
ATOM      6  C   UNL     1       6.079   6.879  17.214  0.00  0.00    +0.000 C 
ENDROOT
BRANCH   1   7
ATOM      7  C   UNL     1       4.859   4.870  18.114  0.00  0.00    +0.000 C 
ATOM      8  O   UNL     1       4.178   4.418  17.189  0.00  0.00    +0.000 OA
ATOM      9  N   UNL     1       4.464   4.824  19.439  0.00  0.00    +0.000 N 
ATOM     10  H   UNL     1       4.813   5.557  20.045  0.00  0.00    +0.000 HD
BRANCH   9  11
ATOM     11  C   UNL     1       3.219   4.285  19.851  0.00  0.00    +0.000 A 
ATOM     12  C   UNL     1       2.077   5.094  19.929  0.00  0.00    +0.000 A 
ATOM     13  C   UNL     1       0.851   4.547  20.307  0.00  0.00    +0.000 A 
ATOM     14  C   UNL     1       0.758   3.196  20.628  0.00  0.00    +0.000 A 
ATOM     15  C   UNL     1       1.891   2.382  20.560  0.00  0.00    +0.000 A 
ATOM     16  C   UNL     1       3.122   2.913  20.152  0.00  0.00    +0.000 A 
BRANCH  16  17
ATOM     17  S   UNL     1       4.573   1.858  20.113  0.00  0.00    +0.000 S 
ATOM     18  H   UNL     1       5.388   2.661  20.811  0.00  0.00    +0.000 HD
ENDBRANCH  16  17
ENDBRANCH   9  11
ENDBRANCH   1   7
BRANCH   1  19
ATOM     19  C   UNL     1       7.038   4.499  16.906  0.00  0.00    +0.000 C 
BRANCH  19  20
ATOM     20  C   UNL     1       6.995   4.915  15.427  0.00  0.00    +0.000 C 
BRANCH  20  21
ATOM     21  C   UNL     1       6.162   3.967  14.561  0.00  0.00    +0.000 C 
BRANCH  21  23
ATOM     22  C   UNL     1       7.654   5.006  12.819  0.00  0.00    +0.000 C 
ATOM     23  C   UNL     1       6.362   4.222  13.052  0.00  0.00    +0.000 C 
ATOM     24  C   UNL     1       6.392   2.928  12.234  0.00  0.00    +0.000 C 
ENDBRANCH  21  23
ENDBRANCH  20  21
ENDBRANCH  19  20
ENDBRANCH   1  19
TORSDOF 7
ENDMDL
MODEL 6
REMARK VINA RESULT:      -6.8      4.039      6.143
REMARK  Name = 
REMARK  9 active torsions:
REMARK  status: ('A' for Active; 'I' for Inactive)
REMARK    1  A    between atoms: C_1  and  C_2
REMARK    2  A    between atoms: C_2  and  C_3
REMARK    3  A    between atoms: C_2  and  C_4
REMARK    4  A    between atoms: C_4  and  C_5
REMARK    5  A    between atoms: C_5  and  C_6
REMARK    6  A    between atoms: C_6  and  C_7
REMARK    7  A    between atoms: C_7  and  C_8
REMARK    8  A    between atoms: N_10  and  C_11
REMARK    9  A    between atoms: C_16  and  S_17
REMARK                            x       y       z     vdW  Elec       q    Type
REMARK                         _______ _______ _______ _____ _____    ______ ____
ROOT
ATOM      1  C   UNL     1       2.932   6.315  18.731  0.00  0.00    +0.000 C 
ATOM      2  C   UNL     1       4.124   5.541  19.356  0.00  0.00    +0.000 C 
ATOM      3  C   UNL     1       5.178   5.097  18.339  0.00  0.00    +0.000 C 
ATOM      4  C   UNL     1       5.683   6.251  17.484  0.00  0.00    +0.000 C 
ATOM      5  C   UNL     1       4.539   7.028  16.845  0.00  0.00    +0.000 C 
ATOM      6  C   UNL     1       3.526   7.482  17.892  0.00  0.00    +0.000 C 
ENDROOT
BRANCH   1   7
ATOM      7  C   UNL     1       2.026   6.928  19.835  0.00  0.00    +0.000 C 
ATOM      8  O   UNL     1       1.583   6.232  20.754  0.00  0.00    +0.000 OA
ATOM      9  N   UNL     1       1.812   8.292  19.746  0.00  0.00    +0.000 N 
ATOM     10  H   UNL     1       1.804   8.693  18.816  0.00  0.00    +0.000 HD
BRANCH   9  11
ATOM     11  C   UNL     1       1.029   9.009  20.685  0.00  0.00    +0.000 A 
ATOM     12  C   UNL     1       1.178   8.788  22.061  0.00  0.00    +0.000 A 
ATOM     13  C   UNL     1       0.423   9.521  22.978  0.00  0.00    +0.000 A 
ATOM     14  C   UNL     1      -0.498  10.463  22.530  0.00  0.00    +0.000 A 
ATOM     15  C   UNL     1      -0.659  10.686  21.160  0.00  0.00    +0.000 A 
ATOM     16  C   UNL     1       0.116   9.979  20.230  0.00  0.00    +0.000 A 
BRANCH  16  17
ATOM     17  S   UNL     1      -0.139  10.253  18.476  0.00  0.00    +0.000 S 
ATOM     18  H   UNL     1       0.808  11.187  18.309  0.00  0.00    +0.000 HD
ENDBRANCH  16  17
ENDBRANCH   9  11
ENDBRANCH   1   7
BRANCH   1  19
ATOM     19  C   UNL     1       2.053   5.359  17.865  0.00  0.00    +0.000 C 
BRANCH  19  20
ATOM     20  C   UNL     1       2.374   3.870  18.076  0.00  0.00    +0.000 C 
BRANCH  20  21
ATOM     21  C   UNL     1       1.265   3.117  18.815  0.00  0.00    +0.000 C 
BRANCH  21  23
ATOM     22  C   UNL     1       3.333   2.204  19.929  0.00  0.00    +0.000 C 
ATOM     23  C   UNL     1       1.808   2.295  20.004  0.00  0.00    +0.000 C 
ATOM     24  C   UNL     1       1.395   2.877  21.359  0.00  0.00    +0.000 C 
ENDBRANCH  21  23
ENDBRANCH  20  21
ENDBRANCH  19  20
ENDBRANCH   1  19
TORSDOF 7
ENDMDL
MODEL 7
REMARK VINA RESULT:      -6.8      3.490      5.570
REMARK  Name = 
REMARK  9 active torsions:
REMARK  status: ('A' for Active; 'I' for Inactive)
REMARK    1  A    between atoms: C_1  and  C_2
REMARK    2  A    between atoms: C_2  and  C_3
REMARK    3  A    between atoms: C_2  and  C_4
REMARK    4  A    between atoms: C_4  and  C_5
REMARK    5  A    between atoms: C_5  and  C_6
REMARK    6  A    between atoms: C_6  and  C_7
REMARK    7  A    between atoms: C_7  and  C_8
REMARK    8  A    between atoms: N_10  and  C_11
REMARK    9  A    between atoms: C_16  and  S_17
REMARK                            x       y       z     vdW  Elec       q    Type
REMARK                         _______ _______ _______ _____ _____    ______ ____
ROOT
ATOM      1  C   UNL     1       2.909   4.868  19.364  0.00  0.00    +0.000 C 
ATOM      2  C   UNL     1       2.310   4.267  18.063  0.00  0.00    +0.000 C 
ATOM      3  C   UNL     1       3.124   3.108  17.483  0.00  0.00    +0.000 C 
ATOM      4  C   UNL     1       3.381   2.010  18.508  0.00  0.00    +0.000 C 
ATOM      5  C   UNL     1       3.978   2.562  19.795  0.00  0.00    +0.000 C 
ATOM      6  C   UNL     1       3.123   3.693  20.360  0.00  0.00    +0.000 C 
ENDROOT
BRANCH   1   7
ATOM      7  C   UNL     1       1.922   5.877  20.016  0.00  0.00    +0.000 C 
ATOM      8  O   UNL     1       0.897   5.487  20.583  0.00  0.00    +0.000 OA
ATOM      9  N   UNL     1       2.304   7.206  19.968  0.00  0.00    +0.000 N 
ATOM     10  H   UNL     1       2.854   7.494  19.168  0.00  0.00    +0.000 HD
BRANCH   9  11
ATOM     11  C   UNL     1       1.528   8.248  20.536  0.00  0.00    +0.000 A 
ATOM     12  C   UNL     1       1.222   8.253  21.903  0.00  0.00    +0.000 A 
ATOM     13  C   UNL     1       0.483   9.299  22.456  0.00  0.00    +0.000 A 
ATOM     14  C   UNL     1       0.028  10.336  21.648  0.00  0.00    +0.000 A 
ATOM     15  C   UNL     1       0.322  10.338  20.282  0.00  0.00    +0.000 A 
ATOM     16  C   UNL     1       1.090   9.309  19.720  0.00  0.00    +0.000 A 
BRANCH  16  17
ATOM     17  S   UNL     1       1.419   9.311  17.957  0.00  0.00    +0.000 S 
ATOM     18  H   UNL     1       1.901  10.559  17.874  0.00  0.00    +0.000 HD
ENDBRANCH  16  17
ENDBRANCH   9  11
ENDBRANCH   1   7
BRANCH   1  19
ATOM     19  C   UNL     1       4.237   5.627  19.056  0.00  0.00    +0.000 C 
BRANCH  19  20
ATOM     20  C   UNL     1       4.280   6.245  17.649  0.00  0.00    +0.000 C 
BRANCH  20  21
ATOM     21  C   UNL     1       5.613   6.015  16.933  0.00  0.00    +0.000 C 
BRANCH  21  23
ATOM     22  C   UNL     1       7.612   4.684  17.693  0.00  0.00    +0.000 C 
ATOM     23  C   UNL     1       6.803   5.963  17.914  0.00  0.00    +0.000 C 
ATOM     24  C   UNL     1       7.723   7.181  17.789  0.00  0.00    +0.000 C 
ENDBRANCH  21  23
ENDBRANCH  20  21
ENDBRANCH  19  20
ENDBRANCH   1  19
TORSDOF 7
ENDMDL
MODEL 8
REMARK VINA RESULT:      -6.8      2.613      6.774
REMARK  Name = 
REMARK  9 active torsions:
REMARK  status: ('A' for Active; 'I' for Inactive)
REMARK    1  A    between atoms: C_1  and  C_2
REMARK    2  A    between atoms: C_2  and  C_3
REMARK    3  A    between atoms: C_2  and  C_4
REMARK    4  A    between atoms: C_4  and  C_5
REMARK    5  A    between atoms: C_5  and  C_6
REMARK    6  A    between atoms: C_6  and  C_7
REMARK    7  A    between atoms: C_7  and  C_8
REMARK    8  A    between atoms: N_10  and  C_11
REMARK    9  A    between atoms: C_16  and  S_17
REMARK                            x       y       z     vdW  Elec       q    Type
REMARK                         _______ _______ _______ _____ _____    ______ ____
ROOT
ATOM      1  C   UNL     1       2.725   4.097  18.600  0.00  0.00    +0.000 C 
ATOM      2  C   UNL     1       3.284   4.246  20.041  0.00  0.00    +0.000 C 
ATOM      3  C   UNL     1       2.204   4.310  21.123  0.00  0.00    +0.000 C 
ATOM      4  C   UNL     1       1.236   3.136  21.046  0.00  0.00    +0.000 C 
ATOM      5  C   UNL     1       0.659   2.966  19.648  0.00  0.00    +0.000 C 
ATOM      6  C   UNL     1       1.765   2.873  18.601  0.00  0.00    +0.000 C 
ENDROOT
BRANCH   1   7
ATOM      7  C   UNL     1       3.869   3.811  17.587  0.00  0.00    +0.000 C 
ATOM      8  O   UNL     1       4.316   2.669  17.438  0.00  0.00    +0.000 OA
ATOM      9  N   UNL     1       4.292   4.894  16.838  0.00  0.00    +0.000 N 
ATOM     10  H   UNL     1       4.234   5.804  17.279  0.00  0.00    +0.000 HD
BRANCH   9  11
ATOM     11  C   UNL     1       5.309   4.798  15.855  0.00  0.00    +0.000 A 
ATOM     12  C   UNL     1       5.050   4.214  14.608  0.00  0.00    +0.000 A 
ATOM     13  C   UNL     1       6.050   4.151  13.638  0.00  0.00    +0.000 A 
ATOM     14  C   UNL     1       7.320   4.652  13.910  0.00  0.00    +0.000 A 
ATOM     15  C   UNL     1       7.591   5.230  15.153  0.00  0.00    +0.000 A 
ATOM     16  C   UNL     1       6.586   5.327  16.125  0.00  0.00    +0.000 A 
BRANCH  16  17
ATOM     17  S   UNL     1       6.969   6.036  17.728  0.00  0.00    +0.000 S 
ATOM     18  H   UNL     1       5.769   6.584  17.965  0.00  0.00    +0.000 HD
ENDBRANCH  16  17
ENDBRANCH   9  11
ENDBRANCH   1   7
BRANCH   1  19
ATOM     19  C   UNL     1       2.005   5.408  18.154  0.00  0.00    +0.000 C 
BRANCH  19  20
ATOM     20  C   UNL     1       2.582   6.677  18.802  0.00  0.00    +0.000 C 
BRANCH  20  21
ATOM     21  C   UNL     1       2.350   7.936  17.963  0.00  0.00    +0.000 C 
BRANCH  21  23
ATOM     22  C   UNL     1       0.546   9.693  18.041  0.00  0.00    +0.000 C 
ATOM     23  C   UNL     1       1.733   9.085  18.789  0.00  0.00    +0.000 C 
ATOM     24  C   UNL     1       1.286   8.635  20.183  0.00  0.00    +0.000 C 
ENDBRANCH  21  23
ENDBRANCH  20  21
ENDBRANCH  19  20
ENDBRANCH   1  19
TORSDOF 7
ENDMDL
MODEL 9
REMARK VINA RESULT:      -6.8      3.028      5.379
REMARK  Name = 
REMARK  9 active torsions:
REMARK  status: ('A' for Active; 'I' for Inactive)
REMARK    1  A    between atoms: C_1  and  C_2
REMARK    2  A    between atoms: C_2  and  C_3
REMARK    3  A    between atoms: C_2  and  C_4
REMARK    4  A    between atoms: C_4  and  C_5
REMARK    5  A    between atoms: C_5  and  C_6
REMARK    6  A    between atoms: C_6  and  C_7
REMARK    7  A    between atoms: C_7  and  C_8
REMARK    8  A    between atoms: N_10  and  C_11
REMARK    9  A    between atoms: C_16  and  S_17
REMARK                            x       y       z     vdW  Elec       q    Type
REMARK                         _______ _______ _______ _____ _____    ______ ____
ROOT
ATOM      1  C   UNL     1       4.288   5.407  18.038  0.00  0.00    +0.000 C 
ATOM      2  C   UNL     1       5.360   6.459  17.641  0.00  0.00    +0.000 C 
ATOM      3  C   UNL     1       6.615   5.857  17.006  0.00  0.00    +0.000 C 
ATOM      4  C   UNL     1       6.292   4.955  15.823  0.00  0.00    +0.000 C 
ATOM      5  C   UNL     1       5.251   3.902  16.178  0.00  0.00    +0.000 C 
ATOM      6  C   UNL     1       4.001   4.542  16.778  0.00  0.00    +0.000 C 
ENDROOT
BRANCH   1   7
ATOM      7  C   UNL     1       2.961   6.097  18.461  0.00  0.00    +0.000 C 
ATOM      8  O   UNL     1       1.879   5.742  17.982  0.00  0.00    +0.000 OA
ATOM      9  N   UNL     1       3.075   7.070  19.437  0.00  0.00    +0.000 N 
ATOM     10  H   UNL     1       3.939   7.599  19.455  0.00  0.00    +0.000 HD
BRANCH   9  11
ATOM     11  C   UNL     1       1.959   7.779  19.949  0.00  0.00    +0.000 A 
ATOM     12  C   UNL     1       1.332   7.370  21.134  0.00  0.00    +0.000 A 
ATOM     13  C   UNL     1       0.253   8.092  21.645  0.00  0.00    +0.000 A 
ATOM     14  C   UNL     1      -0.220   9.213  20.969  0.00  0.00    +0.000 A 
ATOM     15  C   UNL     1       0.393   9.624  19.784  0.00  0.00    +0.000 A 
ATOM     16  C   UNL     1       1.498   8.926  19.277  0.00  0.00    +0.000 A 
BRANCH  16  17
ATOM     17  S   UNL     1       2.242   9.448  17.730  0.00  0.00    +0.000 S 
ATOM     18  H   UNL     1       1.218  10.193  17.290  0.00  0.00    +0.000 HD
ENDBRANCH  16  17
ENDBRANCH   9  11
ENDBRANCH   1   7
BRANCH   1  19
ATOM     19  C   UNL     1       4.786   4.545  19.241  0.00  0.00    +0.000 C 
BRANCH  19  20
ATOM     20  C   UNL     1       4.157   3.143  19.294  0.00  0.00    +0.000 C 
BRANCH  20  21
ATOM     21  C   UNL     1       3.243   2.942  20.504  0.00  0.00    +0.000 C 
BRANCH  21  23
ATOM     22  C   UNL     1       0.848   3.721  20.456  0.00  0.00    +0.000 C 
ATOM     23  C   UNL     1       1.800   2.580  20.094  0.00  0.00    +0.000 C 
ATOM     24  C   UNL     1       1.674   2.259  18.603  0.00  0.00    +0.000 C 
ENDBRANCH  21  23
ENDBRANCH  20  21
ENDBRANCH  19  20
ENDBRANCH   1  19
TORSDOF 7
ENDMDL
