MODEL 1
REMARK VINA RESULT:      -7.8      0.000      0.000
REMARK  Name = 
REMARK  5 active torsions:
REMARK  status: ('A' for Active; 'I' for Inactive)
REMARK    1  A    between atoms: C_1  and  C_2
REMARK    2  A    between atoms: C_2  and  O_4
REMARK    3  A    between atoms: O_4  and  C_5
REMARK    4  A    between atoms: C_5  and  C_6
REMARK    5  A    between atoms: C_6  and  N_7
REMARK                            x       y       z     vdW  Elec       q    Type
REMARK                         _______ _______ _______ _____ _____    ______ ____
ROOT
ATOM      1  N   UNL     1       4.127   4.830  18.035  0.00  0.00    +0.000 N 
ATOM      2  C   UNL     1       3.856   6.073  17.571  0.00  0.00    +0.000 A 
ATOM      3  C   UNL     1       3.047   6.969  18.245  0.00  0.00    +0.000 A 
ATOM      4  C   UNL     1       2.855   8.265  17.729  0.00  0.00    +0.000 A 
ATOM      5  C   UNL     1       2.042   9.181  18.389  0.00  0.00    +0.000 A 
ATOM      6  C   UNL     1       1.412   8.808  19.565  0.00  0.00    +0.000 A 
ATOM      7  C   UNL     1       1.604   7.524  20.083  0.00  0.00    +0.000 A 
ATOM      8  C   UNL     1       2.435   6.566  19.443  0.00  0.00    +0.000 A 
ATOM      9  C   UNL     1       2.679   5.240  19.919  0.00  0.00    +0.000 A 
ATOM     10  C   UNL     1       2.076   4.736  21.100  0.00  0.00    +0.000 A 
ATOM     11  C   UNL     1       2.304   3.440  21.558  0.00  0.00    +0.000 A 
ATOM     12  C   UNL     1       3.146   2.603  20.853  0.00  0.00    +0.000 A 
ATOM     13  C   UNL     1       3.766   3.063  19.688  0.00  0.00    +0.000 A 
ATOM     14  C   UNL     1       3.548   4.368  19.191  0.00  0.00    +0.000 A 
ENDROOT
BRANCH   1  15
ATOM     15  C   UNL     1       5.025   4.002  17.179  0.00  0.00    +0.000 C 
BRANCH  15  16
ATOM     16  C   UNL     1       6.403   4.656  17.023  0.00  0.00    +0.000 C 
BRANCH  16  17
ATOM     17  O   UNL     1       7.231   4.402  18.171  0.00  0.00    +0.000 OA
BRANCH  17  19
ATOM     18  C   UNL     1       7.608   6.728  18.080  0.00  0.00    +0.000 C 
ATOM     19  C   UNL     1       7.486   5.504  18.935  0.00  0.00    +0.000 C 
ATOM     20  O   UNL     1       7.545   5.478  20.154  0.00  0.00    +0.000 OA
ENDBRANCH  17  19
ENDBRANCH  16  17
ENDBRANCH  15  16
ENDBRANCH   1  15
TORSDOF 4
ENDMDL
MODEL 2
REMARK VINA RESULT:      -7.7      1.229      3.901
REMARK  Name = 
REMARK  5 active torsions:
REMARK  status: ('A' for Active; 'I' for Inactive)
REMARK    1  A    between atoms: C_1  and  C_2
REMARK    2  A    between atoms: C_2  and  O_4
REMARK    3  A    between atoms: O_4  and  C_5
REMARK    4  A    between atoms: C_5  and  C_6
REMARK    5  A    between atoms: C_6  and  N_7
REMARK                            x       y       z     vdW  Elec       q    Type
REMARK                         _______ _______ _______ _____ _____    ______ ____
ROOT
ATOM      1  N   UNL     1       4.248   5.273  17.528  0.00  0.00    +0.000 N 
ATOM      2  C   UNL     1       4.325   4.114  18.223  0.00  0.00    +0.000 A 
ATOM      3  C   UNL     1       3.610   3.884  19.386  0.00  0.00    +0.000 A 
ATOM      4  C   UNL     1       3.698   2.633  20.026  0.00  0.00    +0.000 A 
ATOM      5  C   UNL     1       2.991   2.382  21.198  0.00  0.00    +0.000 A 
ATOM      6  C   UNL     1       2.197   3.379  21.740  0.00  0.00    +0.000 A 
ATOM      7  C   UNL     1       2.104   4.620  21.104  0.00  0.00    +0.000 A 
ATOM      8  C   UNL     1       2.802   4.909  19.902  0.00  0.00    +0.000 A 
ATOM      9  C   UNL     1       2.749   6.153  19.198  0.00  0.00    +0.000 A 
ATOM     10  C   UNL     1       1.987   7.255  19.664  0.00  0.00    +0.000 A 
ATOM     11  C   UNL     1       1.943   8.471  18.985  0.00  0.00    +0.000 A 
ATOM     12  C   UNL     1       2.657   8.627  17.814  0.00  0.00    +0.000 A 
ATOM     13  C   UNL     1       3.416   7.564  17.317  0.00  0.00    +0.000 A 
ATOM     14  C   UNL     1       3.489   6.321  17.986  0.00  0.00    +0.000 A 
ENDROOT
BRANCH   1  15
ATOM     15  C   UNL     1       5.084   5.342  16.294  0.00  0.00    +0.000 C 
BRANCH  15  16
ATOM     16  C   UNL     1       6.519   4.875  16.567  0.00  0.00    +0.000 C 
BRANCH  16  17
ATOM     17  O   UNL     1       7.458   5.947  16.375  0.00  0.00    +0.000 OA
BRANCH  17  19
ATOM     18  C   UNL     1       7.725   6.233  18.700  0.00  0.00    +0.000 C 
ATOM     19  C   UNL     1       7.462   6.877  17.374  0.00  0.00    +0.000 C 
ATOM     20  O   UNL     1       7.325   8.074  17.179  0.00  0.00    +0.000 OA
ENDBRANCH  17  19
ENDBRANCH  16  17
ENDBRANCH  15  16
ENDBRANCH   1  15
TORSDOF 4
ENDMDL
MODEL 3
REMARK VINA RESULT:      -7.5      0.917      1.048
REMARK  Name = 
REMARK  5 active torsions:
REMARK  status: ('A' for Active; 'I' for Inactive)
REMARK    1  A    between atoms: C_1  and  C_2
REMARK    2  A    between atoms: C_2  and  O_4
REMARK    3  A    between atoms: O_4  and  C_5
REMARK    4  A    between atoms: C_5  and  C_6
REMARK    5  A    between atoms: C_6  and  N_7
REMARK                            x       y       z     vdW  Elec       q    Type
REMARK                         _______ _______ _______ _____ _____    ______ ____
ROOT
ATOM      1  N   UNL     1       3.903   4.550  17.993  0.00  0.00    +0.000 N 
ATOM      2  C   UNL     1       3.694   5.788  17.489  0.00  0.00    +0.000 A 
ATOM      3  C   UNL     1       2.995   6.770  18.168  0.00  0.00    +0.000 A 
ATOM      4  C   UNL     1       2.863   8.053  17.604  0.00  0.00    +0.000 A 
ATOM      5  C   UNL     1       2.161   9.054  18.268  0.00  0.00    +0.000 A 
ATOM      6  C   UNL     1       1.581   8.778  19.496  0.00  0.00    +0.000 A 
ATOM      7  C   UNL     1       1.714   7.506  20.061  0.00  0.00    +0.000 A 
ATOM      8  C   UNL     1       2.432   6.464  19.417  0.00  0.00    +0.000 A 
ATOM      9  C   UNL     1       2.610   5.144  19.938  0.00  0.00    +0.000 A 
ATOM     10  C   UNL     1       2.048   4.736  21.175  0.00  0.00    +0.000 A 
ATOM     11  C   UNL     1       2.212   3.447  21.679  0.00  0.00    +0.000 A 
ATOM     12  C   UNL     1       2.946   2.521  20.964  0.00  0.00    +0.000 A 
ATOM     13  C   UNL     1       3.522   2.885  19.744  0.00  0.00    +0.000 A 
ATOM     14  C   UNL     1       3.367   4.181  19.201  0.00  0.00    +0.000 A 
ENDROOT
BRANCH   1  15
ATOM     15  C   UNL     1       4.684   3.622  17.123  0.00  0.00    +0.000 C 
BRANCH  15  16
ATOM     16  C   UNL     1       5.711   4.384  16.278  0.00  0.00    +0.000 C 
BRANCH  16  17
ATOM     17  O   UNL     1       6.981   4.463  16.950  0.00  0.00    +0.000 OA
BRANCH  17  19
ATOM     18  C   UNL     1       7.445   5.804  18.833  0.00  0.00    +0.000 C 
ATOM     19  C   UNL     1       7.330   5.723  17.343  0.00  0.00    +0.000 C 
ATOM     20  O   UNL     1       7.569   6.629  16.560  0.00  0.00    +0.000 OA
ENDBRANCH  17  19
ENDBRANCH  16  17
ENDBRANCH  15  16
ENDBRANCH   1  15
TORSDOF 4
ENDMDL
MODEL 4
REMARK VINA RESULT:      -7.3      1.622      4.330
REMARK  Name = 
REMARK  5 active torsions:
REMARK  status: ('A' for Active; 'I' for Inactive)
REMARK    1  A    between atoms: C_1  and  C_2
REMARK    2  A    between atoms: C_2  and  O_4
REMARK    3  A    between atoms: O_4  and  C_5
REMARK    4  A    between atoms: C_5  and  C_6
REMARK    5  A    between atoms: C_6  and  N_7
REMARK                            x       y       z     vdW  Elec       q    Type
REMARK                         _______ _______ _______ _____ _____    ______ ____
ROOT
ATOM      1  N   UNL     1       4.200   5.641  17.620  0.00  0.00    +0.000 N 
ATOM      2  C   UNL     1       4.325   4.454  18.258  0.00  0.00    +0.000 A 
ATOM      3  C   UNL     1       3.596   4.125  19.387  0.00  0.00    +0.000 A 
ATOM      4  C   UNL     1       3.738   2.849  19.966  0.00  0.00    +0.000 A 
ATOM      5  C   UNL     1       3.017   2.500  21.104  0.00  0.00    +0.000 A 
ATOM      6  C   UNL     1       2.155   3.423  21.673  0.00  0.00    +0.000 A 
ATOM      7  C   UNL     1       2.008   4.688  21.099  0.00  0.00    +0.000 A 
ATOM      8  C   UNL     1       2.719   5.077  19.932  0.00  0.00    +0.000 A 
ATOM      9  C   UNL     1       2.614   6.351  19.291  0.00  0.00    +0.000 A 
ATOM     10  C   UNL     1       1.780   7.384  19.790  0.00  0.00    +0.000 A 
ATOM     11  C   UNL     1       1.684   8.629  19.173  0.00  0.00    +0.000 A 
ATOM     12  C   UNL     1       2.418   8.884  18.031  0.00  0.00    +0.000 A 
ATOM     13  C   UNL     1       3.247   7.891  17.502  0.00  0.00    +0.000 A 
ATOM     14  C   UNL     1       3.373   6.621  18.109  0.00  0.00    +0.000 A 
ENDROOT
BRANCH   1  15
ATOM     15  C   UNL     1       5.061   5.820  16.415  0.00  0.00    +0.000 C 
BRANCH  15  16
ATOM     16  C   UNL     1       6.447   5.198  16.624  0.00  0.00    +0.000 C 
BRANCH  16  17
ATOM     17  O   UNL     1       6.688   4.140  15.679  0.00  0.00    +0.000 OA
BRANCH  17  19
ATOM     18  C   UNL     1       6.106   3.807  13.419  0.00  0.00    +0.000 C 
ATOM     19  C   UNL     1       6.934   4.568  14.407  0.00  0.00    +0.000 C 
ATOM     20  O   UNL     1       7.690   5.490  14.142  0.00  0.00    +0.000 OA
ENDBRANCH  17  19
ENDBRANCH  16  17
ENDBRANCH  15  16
ENDBRANCH   1  15
TORSDOF 4
ENDMDL
MODEL 5
REMARK VINA RESULT:      -7.3      1.901      2.428
REMARK  Name = 
REMARK  5 active torsions:
REMARK  status: ('A' for Active; 'I' for Inactive)
REMARK    1  A    between atoms: C_1  and  C_2
REMARK    2  A    between atoms: C_2  and  O_4
REMARK    3  A    between atoms: O_4  and  C_5
REMARK    4  A    between atoms: C_5  and  C_6
REMARK    5  A    between atoms: C_6  and  N_7
REMARK                            x       y       z     vdW  Elec       q    Type
REMARK                         _______ _______ _______ _____ _____    ______ ____
ROOT
ATOM      1  N   UNL     1       3.861   4.674  17.994  0.00  0.00    +0.000 N 
ATOM      2  C   UNL     1       3.631   5.922  17.526  0.00  0.00    +0.000 A 
ATOM      3  C   UNL     1       2.921   6.875  18.235  0.00  0.00    +0.000 A 
ATOM      4  C   UNL     1       2.769   8.172  17.708  0.00  0.00    +0.000 A 
ATOM      5  C   UNL     1       2.056   9.143  18.404  0.00  0.00    +0.000 A 
ATOM      6  C   UNL     1       1.486   8.824  19.626  0.00  0.00    +0.000 A 
ATOM      7  C   UNL     1       1.640   7.539  20.154  0.00  0.00    +0.000 A 
ATOM      8  C   UNL     1       2.369   6.526  19.478  0.00  0.00    +0.000 A 
ATOM      9  C   UNL     1       2.569   5.195  19.961  0.00  0.00    +0.000 A 
ATOM     10  C   UNL     1       2.019   4.744  21.189  0.00  0.00    +0.000 A 
ATOM     11  C   UNL     1       2.204   3.444  21.656  0.00  0.00    +0.000 A 
ATOM     12  C   UNL     1       2.947   2.549  20.912  0.00  0.00    +0.000 A 
ATOM     13  C   UNL     1       3.512   2.955  19.700  0.00  0.00    +0.000 A 
ATOM     14  C   UNL     1       3.336   4.263  19.194  0.00  0.00    +0.000 A 
ENDROOT
BRANCH   1  15
ATOM     15  C   UNL     1       4.651   3.782  17.095  0.00  0.00    +0.000 C 
BRANCH  15  16
ATOM     16  C   UNL     1       5.255   4.566  15.924  0.00  0.00    +0.000 C 
BRANCH  16  17
ATOM     17  O   UNL     1       6.189   3.759  15.187  0.00  0.00    +0.000 OA
BRANCH  17  19
ATOM     18  C   UNL     1       6.062   3.588  12.838  0.00  0.00    +0.000 C 
ATOM     19  C   UNL     1       6.618   4.321  14.019  0.00  0.00    +0.000 C 
ATOM     20  O   UNL     1       7.315   5.323  13.972  0.00  0.00    +0.000 OA
ENDBRANCH  17  19
ENDBRANCH  16  17
ENDBRANCH  15  16
ENDBRANCH   1  15
TORSDOF 4
ENDMDL
MODEL 6
REMARK VINA RESULT:      -7.3      2.318      4.632
REMARK  Name = 
REMARK  5 active torsions:
REMARK  status: ('A' for Active; 'I' for Inactive)
REMARK    1  A    between atoms: C_1  and  C_2
REMARK    2  A    between atoms: C_2  and  O_4
REMARK    3  A    between atoms: O_4  and  C_5
REMARK    4  A    between atoms: C_5  and  C_6
REMARK    5  A    between atoms: C_6  and  N_7
REMARK                            x       y       z     vdW  Elec       q    Type
REMARK                         _______ _______ _______ _____ _____    ______ ____
ROOT
ATOM      1  N   UNL     1       4.218   4.491  18.936  0.00  0.00    +0.000 N 
ATOM      2  C   UNL     1       3.407   5.296  19.661  0.00  0.00    +0.000 A 
ATOM      3  C   UNL     1       2.954   6.519  19.202  0.00  0.00    +0.000 A 
ATOM      4  C   UNL     1       2.067   7.279  19.989  0.00  0.00    +0.000 A 
ATOM      5  C   UNL     1       1.603   8.514  19.548  0.00  0.00    +0.000 A 
ATOM      6  C   UNL     1       2.025   9.000  18.321  0.00  0.00    +0.000 A 
ATOM      7  C   UNL     1       2.902   8.247  17.535  0.00  0.00    +0.000 A 
ATOM      8  C   UNL     1       3.388   6.979  17.948  0.00  0.00    +0.000 A 
ATOM      9  C   UNL     1       4.281   6.155  17.194  0.00  0.00    +0.000 A 
ATOM     10  C   UNL     1       4.797   6.553  15.934  0.00  0.00    +0.000 A 
ATOM     11  C   UNL     1       5.675   5.756  15.203  0.00  0.00    +0.000 A 
ATOM     12  C   UNL     1       6.067   4.530  15.705  0.00  0.00    +0.000 A 
ATOM     13  C   UNL     1       5.576   4.098  16.940  0.00  0.00    +0.000 A 
ATOM     14  C   UNL     1       4.691   4.886  17.711  0.00  0.00    +0.000 A 
ENDROOT
BRANCH   1  15
ATOM     15  C   UNL     1       4.601   3.204  19.588  0.00  0.00    +0.000 C 
BRANCH  15  16
ATOM     16  C   UNL     1       3.371   2.465  20.127  0.00  0.00    +0.000 C 
BRANCH  16  17
ATOM     17  O   UNL     1       2.493   2.071  19.058  0.00  0.00    +0.000 OA
BRANCH  17  19
ATOM     18  C   UNL     1       0.986   2.989  20.623  0.00  0.00    +0.000 C 
ATOM     19  C   UNL     1       1.177   2.357  19.278  0.00  0.00    +0.000 C 
ATOM     20  O   UNL     1       0.300   2.167  18.450  0.00  0.00    +0.000 OA
ENDBRANCH  17  19
ENDBRANCH  16  17
ENDBRANCH  15  16
ENDBRANCH   1  15
TORSDOF 4
ENDMDL
MODEL 7
REMARK VINA RESULT:      -7.3      1.857      4.434
REMARK  Name = 
REMARK  5 active torsions:
REMARK  status: ('A' for Active; 'I' for Inactive)
REMARK    1  A    between atoms: C_1  and  C_2
REMARK    2  A    between atoms: C_2  and  O_4
REMARK    3  A    between atoms: O_4  and  C_5
REMARK    4  A    between atoms: C_5  and  C_6
REMARK    5  A    between atoms: C_6  and  N_7
REMARK                            x       y       z     vdW  Elec       q    Type
REMARK                         _______ _______ _______ _____ _____    ______ ____
ROOT
ATOM      1  N   UNL     1       4.958   4.739  18.217  0.00  0.00    +0.000 N 
ATOM      2  C   UNL     1       4.725   3.683  19.031  0.00  0.00    +0.000 A 
ATOM      3  C   UNL     1       3.599   3.580  19.828  0.00  0.00    +0.000 A 
ATOM      4  C   UNL     1       3.396   2.425  20.608  0.00  0.00    +0.000 A 
ATOM      5  C   UNL     1       2.272   2.303  21.420  0.00  0.00    +0.000 A 
ATOM      6  C   UNL     1       1.348   3.335  21.461  0.00  0.00    +0.000 A 
ATOM      7  C   UNL     1       1.544   4.480  20.684  0.00  0.00    +0.000 A 
ATOM      8  C   UNL     1       2.673   4.635  19.837  0.00  0.00    +0.000 A 
ATOM      9  C   UNL     1       2.933   5.775  19.014  0.00  0.00    +0.000 A 
ATOM     10  C   UNL     1       2.071   6.902  18.986  0.00  0.00    +0.000 A 
ATOM     11  C   UNL     1       2.329   8.018  18.193  0.00  0.00    +0.000 A 
ATOM     12  C   UNL     1       3.458   8.046  17.397  0.00  0.00    +0.000 A 
ATOM     13  C   UNL     1       4.329   6.954  17.391  0.00  0.00    +0.000 A 
ATOM     14  C   UNL     1       4.101   5.810  18.190  0.00  0.00    +0.000 A 
ENDROOT
BRANCH   1  15
ATOM     15  C   UNL     1       6.221   4.677  17.425  0.00  0.00    +0.000 C 
BRANCH  15  16
ATOM     16  C   UNL     1       6.002   3.974  16.081  0.00  0.00    +0.000 C 
BRANCH  16  17
ATOM     17  O   UNL     1       5.879   4.927  15.011  0.00  0.00    +0.000 OA
BRANCH  17  19
ATOM     18  C   UNL     1       6.381   3.776  13.014  0.00  0.00    +0.000 C 
ATOM     19  C   UNL     1       6.815   4.790  14.027  0.00  0.00    +0.000 C 
ATOM     20  O   UNL     1       7.836   5.458  13.972  0.00  0.00    +0.000 OA
ENDBRANCH  17  19
ENDBRANCH  16  17
ENDBRANCH  15  16
ENDBRANCH   1  15
TORSDOF 4
ENDMDL
MODEL 8
REMARK VINA RESULT:      -7.3      1.388      3.936
REMARK  Name = 
REMARK  5 active torsions:
REMARK  status: ('A' for Active; 'I' for Inactive)
REMARK    1  A    between atoms: C_1  and  C_2
REMARK    2  A    between atoms: C_2  and  O_4
REMARK    3  A    between atoms: O_4  and  C_5
REMARK    4  A    between atoms: C_5  and  C_6
REMARK    5  A    between atoms: C_6  and  N_7
REMARK                            x       y       z     vdW  Elec       q    Type
REMARK                         _______ _______ _______ _____ _____    ______ ____
ROOT
ATOM      1  N   UNL     1       4.502   4.731  16.888  0.00  0.00    +0.000 N 
ATOM      2  C   UNL     1       4.187   3.499  17.351  0.00  0.00    +0.000 A 
ATOM      3  C   UNL     1       3.161   3.271  18.251  0.00  0.00    +0.000 A 
ATOM      4  C   UNL     1       2.855   1.955  18.647  0.00  0.00    +0.000 A 
ATOM      5  C   UNL     1       1.829   1.704  19.553  0.00  0.00    +0.000 A 
ATOM      6  C   UNL     1       1.107   2.766  20.074  0.00  0.00    +0.000 A 
ATOM      7  C   UNL     1       1.405   4.073  19.679  0.00  0.00    +0.000 A 
ATOM      8  C   UNL     1       2.437   4.366  18.749  0.00  0.00    +0.000 A 
ATOM      9  C   UNL     1       2.792   5.677  18.299  0.00  0.00    +0.000 A 
ATOM     10  C   UNL     1       2.139   6.843  18.774  0.00  0.00    +0.000 A 
ATOM     11  C   UNL     1       2.491   8.121  18.346  0.00  0.00    +0.000 A 
ATOM     12  C   UNL     1       3.507   8.278  17.423  0.00  0.00    +0.000 A 
ATOM     13  C   UNL     1       4.171   7.154  16.925  0.00  0.00    +0.000 A 
ATOM     14  C   UNL     1       3.845   5.845  17.346  0.00  0.00    +0.000 A 
ENDROOT
BRANCH   1  15
ATOM     15  C   UNL     1       5.634   4.786  15.918  0.00  0.00    +0.000 C 
BRANCH  15  16
ATOM     16  C   UNL     1       6.984   4.853  16.642  0.00  0.00    +0.000 C 
BRANCH  16  17
ATOM     17  O   UNL     1       7.528   6.184  16.602  0.00  0.00    +0.000 OA
BRANCH  17  19
ATOM     18  C   UNL     1       7.838   8.262  17.673  0.00  0.00    +0.000 C 
ATOM     19  C   UNL     1       7.625   6.788  17.822  0.00  0.00    +0.000 C 
ATOM     20  O   UNL     1       7.495   6.191  18.880  0.00  0.00    +0.000 OA
ENDBRANCH  17  19
ENDBRANCH  16  17
ENDBRANCH  15  16
ENDBRANCH   1  15
TORSDOF 4
ENDMDL
MODEL 9
REMARK VINA RESULT:      -7.3      1.253      1.376
REMARK  Name = 
REMARK  5 active torsions:
REMARK  status: ('A' for Active; 'I' for Inactive)
REMARK    1  A    between atoms: C_1  and  C_2
REMARK    2  A    between atoms: C_2  and  O_4
REMARK    3  A    between atoms: O_4  and  C_5
REMARK    4  A    between atoms: C_5  and  C_6
REMARK    5  A    between atoms: C_6  and  N_7
REMARK                            x       y       z     vdW  Elec       q    Type
REMARK                         _______ _______ _______ _____ _____    ______ ____
ROOT
ATOM      1  N   UNL     1       3.881   5.427  17.859  0.00  0.00    +0.000 N 
ATOM      2  C   UNL     1       3.433   6.691  17.676  0.00  0.00    +0.000 A 
ATOM      3  C   UNL     1       2.630   7.345  18.593  0.00  0.00    +0.000 A 
ATOM      4  C   UNL     1       2.247   8.680  18.362  0.00  0.00    +0.000 A 
ATOM      5  C   UNL     1       1.437   9.356  19.270  0.00  0.00    +0.000 A 
ATOM      6  C   UNL     1       1.001   8.701  20.410  0.00  0.00    +0.000 A 
ATOM      7  C   UNL     1       1.383   7.377  20.645  0.00  0.00    +0.000 A 
ATOM      8  C   UNL     1       2.217   6.660  19.747  0.00  0.00    +0.000 A 
ATOM      9  C   UNL     1       2.650   5.309  19.927  0.00  0.00    +0.000 A 
ATOM     10  C   UNL     1       2.254   4.529  21.044  0.00  0.00    +0.000 A 
ATOM     11  C   UNL     1       2.665   3.209  21.215  0.00  0.00    +0.000 A 
ATOM     12  C   UNL     1       3.490   2.623  20.276  0.00  0.00    +0.000 A 
ATOM     13  C   UNL     1       3.909   3.358  19.164  0.00  0.00    +0.000 A 
ATOM     14  C   UNL     1       3.502   4.696  18.956  0.00  0.00    +0.000 A 
ENDROOT
BRANCH   1  15
ATOM     15  C   UNL     1       4.742   4.883  16.768  0.00  0.00    +0.000 C 
BRANCH  15  16
ATOM     16  C   UNL     1       5.487   6.005  16.035  0.00  0.00    +0.000 C 
BRANCH  16  17
ATOM     17  O   UNL     1       6.897   5.963  16.319  0.00  0.00    +0.000 OA
BRANCH  17  19
ATOM     18  C   UNL     1       7.627   6.088  18.557  0.00  0.00    +0.000 C 
ATOM     19  C   UNL     1       7.299   6.826  17.297  0.00  0.00    +0.000 C 
ATOM     20  O   UNL     1       7.421   8.029  17.123  0.00  0.00    +0.000 OA
ENDBRANCH  17  19
ENDBRANCH  16  17
ENDBRANCH  15  16
ENDBRANCH   1  15
TORSDOF 4
ENDMDL
