MODEL 1
REMARK VINA RESULT:      -8.7      0.000      0.000
REMARK  Name = 
REMARK  4 active torsions:
REMARK  status: ('A' for Active; 'I' for Inactive)
REMARK    1  A    between atoms: C_3  and  O_4
REMARK    2  A    between atoms: C_5  and  C_6
REMARK    3  A    between atoms: N_23  and  C_24
REMARK    4  A    between atoms: C_24  and  C_25
REMARK                            x       y       z     vdW  Elec       q    Type
REMARK                         _______ _______ _______ _____ _____    ______ ____
ROOT
ATOM      1  O   UNL     1       2.494   3.277  19.722  0.00  0.00    +0.000 OA
ATOM      2  C   UNL     1       2.865   4.287  19.132  0.00  0.00    +0.000 A 
ATOM      3  C   UNL     1       3.933   4.187  18.153  0.00  0.00    +0.000 A 
ATOM      4  C   UNL     1       4.149   5.248  17.355  0.00  0.00    +0.000 A 
ATOM      5  O   UNL     1       3.428   6.501  17.443  0.00  0.00    +0.000 OA
ATOM      6  C   UNL     1       2.614   6.740  18.577  0.00  0.00    +0.000 A 
ATOM      7  C   UNL     1       2.048   8.006  18.992  0.00  0.00    +0.000 A 
ATOM      8  C   UNL     1       1.646   8.052  20.354  0.00  0.00    +0.000 A 
ATOM      9  C   UNL     1       1.514   6.962  21.194  0.00  0.00    +0.000 A 
ATOM     10  C   UNL     1       1.785   5.725  20.692  0.00  0.00    +0.000 A 
ATOM     11  C   UNL     1       2.387   5.629  19.438  0.00  0.00    +0.000 A 
ATOM     12  O   UNL     1       1.196   9.217  20.916  0.00  0.00    +0.000 OA
ATOM     13  C   UNL     1       0.085   9.590  20.124  0.00  0.00    +0.000 C 
ATOM     14  N   UNL     1       0.542  10.118  18.863  0.00  0.00    +0.000 NA
ATOM     15  C   UNL     1       1.711   9.357  18.259  0.00  0.00    +0.000 C 
ENDROOT
BRANCH   4  16
ATOM     16  C   UNL     1       5.211   5.041  16.320  0.00  0.00    +0.000 A 
ATOM     17  C   UNL     1       6.422   5.767  16.393  0.00  0.00    +0.000 A 
ATOM     18  C   UNL     1       7.359   5.745  15.349  0.00  0.00    +0.000 A 
ATOM     19  C   UNL     1       7.101   5.011  14.193  0.00  0.00    +0.000 A 
ATOM     20 CL   UNL     1       8.322   4.970  12.969  0.00  0.00    +0.000 Cl
ATOM     21  C   UNL     1       5.875   4.350  14.066  0.00  0.00    +0.000 A 
ATOM     22 CL   UNL     1       5.449   3.498  12.621  0.00  0.00    +0.000 Cl
ATOM     23  C   UNL     1       4.932   4.380  15.113  0.00  0.00    +0.000 A 
ENDBRANCH   4  16
BRANCH   3  24
ATOM     24  O   UNL     1       4.634   2.987  18.130  0.00  0.00    +0.000 OA
ATOM     25  H   UNL     1       4.603   2.701  17.187  0.00  0.00    +0.000 HD
ENDBRANCH   3  24
BRANCH  14  26
ATOM     26  C   UNL     1       0.347  11.582  18.786  0.00  0.00    +0.000 C 
BRANCH  26  27
ATOM     27  C   UNL     1       1.500  12.562  19.080  0.00  0.00    +0.000 A 
ATOM     28  C   UNL     1       2.327  13.076  18.076  0.00  0.00    +0.000 A 
ATOM     29  C   UNL     1       3.337  14.021  18.352  0.00  0.00    +0.000 A 
ATOM     30  C   UNL     1       3.547  14.479  19.648  0.00  0.00    +0.000 A 
ATOM     31  C   UNL     1       2.752  13.968  20.660  0.00  0.00    +0.000 A 
ATOM     32  F   UNL     1       2.937  14.398  21.926  0.00  0.00    +0.000 F 
ATOM     33  C   UNL     1       1.744  13.019  20.399  0.00  0.00    +0.000 A 
ENDBRANCH  26  27
ENDBRANCH  14  26
TORSDOF 4
ENDMDL
MODEL 2
REMARK VINA RESULT:      -8.7      0.796      1.160
REMARK  Name = 
REMARK  4 active torsions:
REMARK  status: ('A' for Active; 'I' for Inactive)
REMARK    1  A    between atoms: C_3  and  O_4
REMARK    2  A    between atoms: C_5  and  C_6
REMARK    3  A    between atoms: N_23  and  C_24
REMARK    4  A    between atoms: C_24  and  C_25
REMARK                            x       y       z     vdW  Elec       q    Type
REMARK                         _______ _______ _______ _____ _____    ______ ____
ROOT
ATOM      1  O   UNL     1       2.533   3.360  19.807  0.00  0.00    +0.000 OA
ATOM      2  C   UNL     1       2.889   4.363  19.195  0.00  0.00    +0.000 A 
ATOM      3  C   UNL     1       3.957   4.257  18.217  0.00  0.00    +0.000 A 
ATOM      4  C   UNL     1       4.159   5.304  17.398  0.00  0.00    +0.000 A 
ATOM      5  O   UNL     1       3.421   6.549  17.460  0.00  0.00    +0.000 OA
ATOM      6  C   UNL     1       2.605   6.800  18.590  0.00  0.00    +0.000 A 
ATOM      7  C   UNL     1       2.022   8.067  18.979  0.00  0.00    +0.000 A 
ATOM      8  C   UNL     1       1.620   8.136  20.340  0.00  0.00    +0.000 A 
ATOM      9  C   UNL     1       1.504   7.062  21.203  0.00  0.00    +0.000 A 
ATOM     10  C   UNL     1       1.792   5.818  20.726  0.00  0.00    +0.000 A 
ATOM     11  C   UNL     1       2.394   5.704  19.474  0.00  0.00    +0.000 A 
ATOM     12  O   UNL     1       1.155   9.305  20.879  0.00  0.00    +0.000 OA
ATOM     13  C   UNL     1       0.039   9.647  20.080  0.00  0.00    +0.000 C 
ATOM     14  N   UNL     1       0.487  10.155  18.808  0.00  0.00    +0.000 NA
ATOM     15  C   UNL     1       1.666   9.397  18.219  0.00  0.00    +0.000 C 
ENDROOT
BRANCH   4  16
ATOM     16  C   UNL     1       5.223   5.090  16.366  0.00  0.00    +0.000 A 
ATOM     17  C   UNL     1       6.428   5.825  16.430  0.00  0.00    +0.000 A 
ATOM     18  C   UNL     1       7.366   5.795  15.385  0.00  0.00    +0.000 A 
ATOM     19  C   UNL     1       7.113   5.043  14.240  0.00  0.00    +0.000 A 
ATOM     20 CL   UNL     1       8.335   4.994  13.017  0.00  0.00    +0.000 Cl
ATOM     21  C   UNL     1       5.892   4.373  14.121  0.00  0.00    +0.000 A 
ATOM     22 CL   UNL     1       5.472   3.499  12.688  0.00  0.00    +0.000 Cl
ATOM     23  C   UNL     1       4.948   4.410  15.168  0.00  0.00    +0.000 A 
ENDBRANCH   4  16
BRANCH   3  24
ATOM     24  O   UNL     1       4.675   3.067  18.218  0.00  0.00    +0.000 OA
ATOM     25  H   UNL     1       4.108   2.437  18.722  0.00  0.00    +0.000 HD
ENDBRANCH   3  24
BRANCH  14  26
ATOM     26  C   UNL     1       0.272  11.614  18.701  0.00  0.00    +0.000 C 
BRANCH  26  27
ATOM     27  C   UNL     1       1.360  12.619  19.129  0.00  0.00    +0.000 A 
ATOM     28  C   UNL     1       1.519  13.040  20.453  0.00  0.00    +0.000 A 
ATOM     29  C   UNL     1       2.559  13.911  20.840  0.00  0.00    +0.000 A 
ATOM     30  C   UNL     1       3.472  14.386  19.905  0.00  0.00    +0.000 A 
ATOM     31  C   UNL     1       3.321  13.998  18.585  0.00  0.00    +0.000 A 
ATOM     32  F   UNL     1       4.196  14.446  17.660  0.00  0.00    +0.000 F 
ATOM     33  C   UNL     1       2.283  13.134  18.184  0.00  0.00    +0.000 A 
ENDBRANCH  26  27
ENDBRANCH  14  26
TORSDOF 4
ENDMDL
MODEL 3
REMARK VINA RESULT:      -8.4      1.723      2.304
REMARK  Name = 
REMARK  4 active torsions:
REMARK  status: ('A' for Active; 'I' for Inactive)
REMARK    1  A    between atoms: C_3  and  O_4
REMARK    2  A    between atoms: C_5  and  C_6
REMARK    3  A    between atoms: N_23  and  C_24
REMARK    4  A    between atoms: C_24  and  C_25
REMARK                            x       y       z     vdW  Elec       q    Type
REMARK                         _______ _______ _______ _____ _____    ______ ____
ROOT
ATOM      1  O   UNL     1       2.266   2.663  19.089  0.00  0.00    +0.000 OA
ATOM      2  C   UNL     1       2.729   3.721  18.674  0.00  0.00    +0.000 A 
ATOM      3  C   UNL     1       3.803   3.692  17.697  0.00  0.00    +0.000 A 
ATOM      4  C   UNL     1       4.120   4.847  17.086  0.00  0.00    +0.000 A 
ATOM      5  O   UNL     1       3.503   6.126  17.374  0.00  0.00    +0.000 OA
ATOM      6  C   UNL     1       2.691   6.244  18.528  0.00  0.00    +0.000 A 
ATOM      7  C   UNL     1       2.223   7.468  19.143  0.00  0.00    +0.000 A 
ATOM      8  C   UNL     1       1.801   7.325  20.491  0.00  0.00    +0.000 A 
ATOM      9  C   UNL     1       1.564   6.128  21.141  0.00  0.00    +0.000 A 
ATOM     10  C   UNL     1       1.742   4.971  20.444  0.00  0.00    +0.000 A 
ATOM     11  C   UNL     1       2.357   5.030  19.194  0.00  0.00    +0.000 A 
ATOM     12  O   UNL     1       1.437   8.416  21.235  0.00  0.00    +0.000 OA
ATOM     13  C   UNL     1       0.376   9.005  20.509  0.00  0.00    +0.000 C 
ATOM     14  N   UNL     1       0.897   9.692  19.355  0.00  0.00    +0.000 NA
ATOM     15  C   UNL     1       2.012   8.944  18.640  0.00  0.00    +0.000 C 
ENDROOT
BRANCH   4  16
ATOM     16  C   UNL     1       5.181   4.723  16.036  0.00  0.00    +0.000 A 
ATOM     17  C   UNL     1       6.382   5.459  16.153  0.00  0.00    +0.000 A 
ATOM     18  C   UNL     1       7.315   5.520  15.106  0.00  0.00    +0.000 A 
ATOM     19  C   UNL     1       7.062   4.859  13.905  0.00  0.00    +0.000 A 
ATOM     20 CL   UNL     1       8.279   4.916  12.677  0.00  0.00    +0.000 Cl
ATOM     21  C   UNL     1       5.844   4.192  13.738  0.00  0.00    +0.000 A 
ATOM     22 CL   UNL     1       5.424   3.431  12.242  0.00  0.00    +0.000 Cl
ATOM     23  C   UNL     1       4.906   4.139  14.789  0.00  0.00    +0.000 A 
ENDBRANCH   4  16
BRANCH   3  24
ATOM     24  O   UNL     1       4.404   2.458  17.481  0.00  0.00    +0.000 OA
ATOM     25  H   UNL     1       5.321   2.678  17.193  0.00  0.00    +0.000 HD
ENDBRANCH   3  24
BRANCH  14  26
ATOM     26  C   UNL     1       0.825  11.160  19.517  0.00  0.00    +0.000 C 
BRANCH  26  27
ATOM     27  C   UNL     1      -0.375  11.832  20.214  0.00  0.00    +0.000 A 
ATOM     28  C   UNL     1      -1.601  12.036  19.575  0.00  0.00    +0.000 A 
ATOM     29  C   UNL     1      -2.710  12.594  20.245  0.00  0.00    +0.000 A 
ATOM     30  C   UNL     1      -2.619  12.965  21.582  0.00  0.00    +0.000 A 
ATOM     31  C   UNL     1      -1.407  12.791  22.229  0.00  0.00    +0.000 A 
ATOM     32  F   UNL     1      -1.294  13.143  23.527  0.00  0.00    +0.000 F 
ATOM     33  C   UNL     1      -0.290  12.240  21.570  0.00  0.00    +0.000 A 
ENDBRANCH  26  27
ENDBRANCH  14  26
TORSDOF 4
ENDMDL
MODEL 4
REMARK VINA RESULT:      -8.4      2.114      2.724
REMARK  Name = 
REMARK  4 active torsions:
REMARK  status: ('A' for Active; 'I' for Inactive)
REMARK    1  A    between atoms: C_3  and  O_4
REMARK    2  A    between atoms: C_5  and  C_6
REMARK    3  A    between atoms: N_23  and  C_24
REMARK    4  A    between atoms: C_24  and  C_25
REMARK                            x       y       z     vdW  Elec       q    Type
REMARK                         _______ _______ _______ _____ _____    ______ ____
ROOT
ATOM      1  O   UNL     1       2.340   2.594  19.145  0.00  0.00    +0.000 OA
ATOM      2  C   UNL     1       2.778   3.660  18.722  0.00  0.00    +0.000 A 
ATOM      3  C   UNL     1       3.853   3.649  17.745  0.00  0.00    +0.000 A 
ATOM      4  C   UNL     1       4.142   4.807  17.125  0.00  0.00    +0.000 A 
ATOM      5  O   UNL     1       3.494   6.072  17.403  0.00  0.00    +0.000 OA
ATOM      6  C   UNL     1       2.679   6.180  18.556  0.00  0.00    +0.000 A 
ATOM      7  C   UNL     1       2.181   7.398  19.161  0.00  0.00    +0.000 A 
ATOM      8  C   UNL     1       1.763   7.255  20.511  0.00  0.00    +0.000 A 
ATOM      9  C   UNL     1       1.555   6.058  21.170  0.00  0.00    +0.000 A 
ATOM     10  C   UNL     1       1.761   4.900  20.482  0.00  0.00    +0.000 A 
ATOM     11  C   UNL     1       2.375   4.964  19.231  0.00  0.00    +0.000 A 
ATOM     12  O   UNL     1       1.373   8.343  21.245  0.00  0.00    +0.000 OA
ATOM     13  C   UNL     1       0.298   8.900  20.516  0.00  0.00    +0.000 C 
ATOM     14  N   UNL     1       0.803   9.590  19.355  0.00  0.00    +0.000 NA
ATOM     15  C   UNL     1       1.935   8.863  18.646  0.00  0.00    +0.000 C 
ENDROOT
BRANCH   4  16
ATOM     16  C   UNL     1       5.206   4.700  16.076  0.00  0.00    +0.000 A 
ATOM     17  C   UNL     1       6.391   5.461  16.190  0.00  0.00    +0.000 A 
ATOM     18  C   UNL     1       7.324   5.536  15.143  0.00  0.00    +0.000 A 
ATOM     19  C   UNL     1       7.084   4.866  13.945  0.00  0.00    +0.000 A 
ATOM     20 CL   UNL     1       8.300   4.942  12.717  0.00  0.00    +0.000 Cl
ATOM     21  C   UNL     1       5.881   4.173  13.781  0.00  0.00    +0.000 A 
ATOM     22 CL   UNL     1       5.476   3.398  12.287  0.00  0.00    +0.000 Cl
ATOM     23  C   UNL     1       4.943   4.106  14.831  0.00  0.00    +0.000 A 
ENDBRANCH   4  16
BRANCH   3  24
ATOM     24  O   UNL     1       4.483   2.429  17.539  0.00  0.00    +0.000 OA
ATOM     25  H   UNL     1       4.209   2.160  16.631  0.00  0.00    +0.000 HD
ENDBRANCH   3  24
BRANCH  14  26
ATOM     26  C   UNL     1       0.694  11.057  19.506  0.00  0.00    +0.000 C 
BRANCH  26  27
ATOM     27  C   UNL     1      -0.619  11.723  19.964  0.00  0.00    +0.000 A 
ATOM     28  C   UNL     1      -0.708  12.494  21.126  0.00  0.00    +0.000 A 
ATOM     29  C   UNL     1      -1.901  13.149  21.498  0.00  0.00    +0.000 A 
ATOM     30  C   UNL     1      -3.042  13.049  20.711  0.00  0.00    +0.000 A 
ATOM     31  C   UNL     1      -2.981  12.273  19.566  0.00  0.00    +0.000 A 
ATOM     32  F   UNL     1      -4.077  12.160  18.784  0.00  0.00    +0.000 F 
ATOM     33  C   UNL     1      -1.799  11.608  19.186  0.00  0.00    +0.000 A 
ENDBRANCH  26  27
ENDBRANCH  14  26
TORSDOF 4
ENDMDL
MODEL 5
REMARK VINA RESULT:      -8.2      2.432      3.296
REMARK  Name = 
REMARK  4 active torsions:
REMARK  status: ('A' for Active; 'I' for Inactive)
REMARK    1  A    between atoms: C_3  and  O_4
REMARK    2  A    between atoms: C_5  and  C_6
REMARK    3  A    between atoms: N_23  and  C_24
REMARK    4  A    between atoms: C_24  and  C_25
REMARK                            x       y       z     vdW  Elec       q    Type
REMARK                         _______ _______ _______ _____ _____    ______ ____
ROOT
ATOM      1  O   UNL     1       3.226   3.470  20.304  0.00  0.00    +0.000 OA
ATOM      2  C   UNL     1       3.370   4.418  19.539  0.00  0.00    +0.000 A 
ATOM      3  C   UNL     1       4.381   4.344  18.498  0.00  0.00    +0.000 A 
ATOM      4  C   UNL     1       4.352   5.281  17.534  0.00  0.00    +0.000 A 
ATOM      5  O   UNL     1       3.419   6.389  17.492  0.00  0.00    +0.000 OA
ATOM      6  C   UNL     1       2.641   6.666  18.643  0.00  0.00    +0.000 A 
ATOM      7  C   UNL     1       1.875   7.866  18.908  0.00  0.00    +0.000 A 
ATOM      8  C   UNL     1       1.550   8.065  20.277  0.00  0.00    +0.000 A 
ATOM      9  C   UNL     1       1.670   7.122  21.280  0.00  0.00    +0.000 A 
ATOM     10  C   UNL     1       2.135   5.884  20.950  0.00  0.00    +0.000 A 
ATOM     11  C   UNL     1       2.672   5.689  19.678  0.00  0.00    +0.000 A 
ATOM     12  O   UNL     1       0.926   9.210  20.693  0.00  0.00    +0.000 OA
ATOM     13  C   UNL     1      -0.278   9.250  19.952  0.00  0.00    +0.000 C 
ATOM     14  N   UNL     1       0.001   9.635  18.591  0.00  0.00    +0.000 NA
ATOM     15  C   UNL     1       1.254   8.999  18.011  0.00  0.00    +0.000 C 
ENDROOT
BRANCH   4  16
ATOM     16  C   UNL     1       5.374   5.094  16.455  0.00  0.00    +0.000 A 
ATOM     17  C   UNL     1       6.553   5.873  16.454  0.00  0.00    +0.000 A 
ATOM     18  C   UNL     1       7.441   5.865  15.367  0.00  0.00    +0.000 A 
ATOM     19  C   UNL     1       7.162   5.091  14.242  0.00  0.00    +0.000 A 
ATOM     20 CL   UNL     1       8.327   5.072  12.963  0.00  0.00    +0.000 Cl
ATOM     21  C   UNL     1       5.962   4.376  14.188  0.00  0.00    +0.000 A 
ATOM     22 CL   UNL     1       5.507   3.471  12.785  0.00  0.00    +0.000 Cl
ATOM     23  C   UNL     1       5.068   4.392  15.278  0.00  0.00    +0.000 A 
ENDBRANCH   4  16
BRANCH   3  24
ATOM     24  O   UNL     1       5.289   3.297  18.597  0.00  0.00    +0.000 OA
ATOM     25  H   UNL     1       4.932   2.604  17.994  0.00  0.00    +0.000 HD
ENDBRANCH   3  24
BRANCH  14  26
ATOM     26  C   UNL     1      -0.465  11.011  18.310  0.00  0.00    +0.000 C 
BRANCH  26  27
ATOM     27  C   UNL     1      -1.929  11.300  17.926  0.00  0.00    +0.000 A 
ATOM     28  C   UNL     1      -2.441  11.036  16.651  0.00  0.00    +0.000 A 
ATOM     29  C   UNL     1      -3.799  11.246  16.334  0.00  0.00    +0.000 A 
ATOM     30  C   UNL     1      -4.686  11.728  17.290  0.00  0.00    +0.000 A 
ATOM     31  C   UNL     1      -4.196  12.015  18.552  0.00  0.00    +0.000 A 
ATOM     32  F   UNL     1      -5.039  12.483  19.498  0.00  0.00    +0.000 F 
ATOM     33  C   UNL     1      -2.841  11.816  18.881  0.00  0.00    +0.000 A 
ENDBRANCH  26  27
ENDBRANCH  14  26
TORSDOF 4
ENDMDL
MODEL 6
REMARK VINA RESULT:      -8.1      4.704      9.126
REMARK  Name = 
REMARK  4 active torsions:
REMARK  status: ('A' for Active; 'I' for Inactive)
REMARK    1  A    between atoms: C_3  and  O_4
REMARK    2  A    between atoms: C_5  and  C_6
REMARK    3  A    between atoms: N_23  and  C_24
REMARK    4  A    between atoms: C_24  and  C_25
REMARK                            x       y       z     vdW  Elec       q    Type
REMARK                         _______ _______ _______ _____ _____    ______ ____
ROOT
ATOM      1  O   UNL     1       2.556   5.535  21.198  0.00  0.00    +0.000 OA
ATOM      2  C   UNL     1       2.642   6.091  20.107  0.00  0.00    +0.000 A 
ATOM      3  C   UNL     1       1.880   7.304  19.866  0.00  0.00    +0.000 A 
ATOM      4  C   UNL     1       2.176   8.018  18.765  0.00  0.00    +0.000 A 
ATOM      5  O   UNL     1       3.163   7.631  17.776  0.00  0.00    +0.000 OA
ATOM      6  C   UNL     1       3.686   6.316  17.816  0.00  0.00    +0.000 A 
ATOM      7  C   UNL     1       4.447   5.649  16.781  0.00  0.00    +0.000 A 
ATOM      8  C   UNL     1       4.477   4.234  16.892  0.00  0.00    +0.000 A 
ATOM      9  C   UNL     1       4.084   3.502  17.997  0.00  0.00    +0.000 A 
ATOM     10  C   UNL     1       3.626   4.179  19.088  0.00  0.00    +0.000 A 
ATOM     11  C   UNL     1       3.370   5.544  18.970  0.00  0.00    +0.000 A 
ATOM     12  O   UNL     1       5.065   3.464  15.924  0.00  0.00    +0.000 OA
ATOM     13  C   UNL     1       6.401   3.922  15.866  0.00  0.00    +0.000 C 
ATOM     14  N   UNL     1       6.451   5.195  15.192  0.00  0.00    +0.000 NA
ATOM     15  C   UNL     1       5.317   6.137  15.565  0.00  0.00    +0.000 C 
ENDROOT
BRANCH   4  16
ATOM     16  C   UNL     1       1.406   9.294  18.626  0.00  0.00    +0.000 A 
ATOM     17  C   UNL     1       1.841  10.460  19.295  0.00  0.00    +0.000 A 
ATOM     18  C   UNL     1       1.052  11.620  19.346  0.00  0.00    +0.000 A 
ATOM     19  C   UNL     1      -0.204  11.637  18.743  0.00  0.00    +0.000 A 
ATOM     20 CL   UNL     1      -1.102  13.116  18.782  0.00  0.00    +0.000 Cl
ATOM     21  C   UNL     1      -0.689  10.470  18.145  0.00  0.00    +0.000 A 
ATOM     22 CL   UNL     1      -2.277  10.392  17.462  0.00  0.00    +0.000 Cl
ATOM     23  C   UNL     1       0.103   9.304  18.102  0.00  0.00    +0.000 A 
ENDBRANCH   4  16
BRANCH   3  24
ATOM     24  O   UNL     1       0.910   7.618  20.810  0.00  0.00    +0.000 OA
ATOM     25  H   UNL     1       0.711   8.571  20.651  0.00  0.00    +0.000 HD
ENDBRANCH   3  24
BRANCH  14  26
ATOM     26  C   UNL     1       7.050   5.073  13.845  0.00  0.00    +0.000 C 
BRANCH  26  27
ATOM     27  C   UNL     1       6.537   4.033  12.829  0.00  0.00    +0.000 A 
ATOM     28  C   UNL     1       7.381   3.115  12.199  0.00  0.00    +0.000 A 
ATOM     29  C   UNL     1       6.888   2.128  11.320  0.00  0.00    +0.000 A 
ATOM     30  C   UNL     1       5.528   2.034  11.048  0.00  0.00    +0.000 A 
ATOM     31  C   UNL     1       4.676   2.947  11.646  0.00  0.00    +0.000 A 
ATOM     32  F   UNL     1       3.351   2.875  11.398  0.00  0.00    +0.000 F 
ATOM     33  C   UNL     1       5.156   3.941  12.521  0.00  0.00    +0.000 A 
ENDBRANCH  26  27
ENDBRANCH  14  26
TORSDOF 4
ENDMDL
MODEL 7
REMARK VINA RESULT:      -8.1      2.730      3.635
REMARK  Name = 
REMARK  4 active torsions:
REMARK  status: ('A' for Active; 'I' for Inactive)
REMARK    1  A    between atoms: C_3  and  O_4
REMARK    2  A    between atoms: C_5  and  C_6
REMARK    3  A    between atoms: N_23  and  C_24
REMARK    4  A    between atoms: C_24  and  C_25
REMARK                            x       y       z     vdW  Elec       q    Type
REMARK                         _______ _______ _______ _____ _____    ______ ____
ROOT
ATOM      1  O   UNL     1       3.372   3.552  20.410  0.00  0.00    +0.000 OA
ATOM      2  C   UNL     1       3.466   4.473  19.604  0.00  0.00    +0.000 A 
ATOM      3  C   UNL     1       4.440   4.382  18.531  0.00  0.00    +0.000 A 
ATOM      4  C   UNL     1       4.355   5.281  17.534  0.00  0.00    +0.000 A 
ATOM      5  O   UNL     1       3.394   6.364  17.485  0.00  0.00    +0.000 OA
ATOM      6  C   UNL     1       2.652   6.668  18.652  0.00  0.00    +0.000 A 
ATOM      7  C   UNL     1       1.868   7.860  18.900  0.00  0.00    +0.000 A 
ATOM      8  C   UNL     1       1.587   8.103  20.271  0.00  0.00    +0.000 A 
ATOM      9  C   UNL     1       1.765   7.203  21.305  0.00  0.00    +0.000 A 
ATOM     10  C   UNL     1       2.247   5.964  21.004  0.00  0.00    +0.000 A 
ATOM     11  C   UNL     1       2.743   5.732  19.721  0.00  0.00    +0.000 A 
ATOM     12  O   UNL     1       0.951   9.250  20.667  0.00  0.00    +0.000 OA
ATOM     13  C   UNL     1      -0.279   9.234  19.969  0.00  0.00    +0.000 C 
ATOM     14  N   UNL     1      -0.058   9.573  18.585  0.00  0.00    +0.000 NA
ATOM     15  C   UNL     1       1.188   8.943  17.985  0.00  0.00    +0.000 C 
ENDROOT
BRANCH   4  16
ATOM     16  C   UNL     1       5.341   5.075  16.426  0.00  0.00    +0.000 A 
ATOM     17  C   UNL     1       6.551   5.806  16.411  0.00  0.00    +0.000 A 
ATOM     18  C   UNL     1       7.412   5.785  15.302  0.00  0.00    +0.000 A 
ATOM     19  C   UNL     1       7.074   5.047  14.170  0.00  0.00    +0.000 A 
ATOM     20 CL   UNL     1       8.205   5.008  12.862  0.00  0.00    +0.000 Cl
ATOM     21  C   UNL     1       5.845   4.381  14.132  0.00  0.00    +0.000 A 
ATOM     22 CL   UNL     1       5.320   3.525  12.723  0.00  0.00    +0.000 Cl
ATOM     23  C   UNL     1       4.979   4.410  15.244  0.00  0.00    +0.000 A 
ENDBRANCH   4  16
BRANCH   3  24
ATOM     24  O   UNL     1       5.376   3.360  18.636  0.00  0.00    +0.000 OA
ATOM     25  H   UNL     1       6.246   3.823  18.650  0.00  0.00    +0.000 HD
ENDBRANCH   3  24
BRANCH  14  26
ATOM     26  C   UNL     1      -0.566  10.926  18.270  0.00  0.00    +0.000 C 
BRANCH  26  27
ATOM     27  C   UNL     1      -2.015  11.148  17.793  0.00  0.00    +0.000 A 
ATOM     28  C   UNL     1      -2.990  11.749  18.596  0.00  0.00    +0.000 A 
ATOM     29  C   UNL     1      -4.294  12.003  18.124  0.00  0.00    +0.000 A 
ATOM     30  C   UNL     1      -4.659  11.662  16.826  0.00  0.00    +0.000 A 
ATOM     31  C   UNL     1      -3.715  11.048  16.021  0.00  0.00    +0.000 A 
ATOM     32  F   UNL     1      -4.046  10.708  14.756  0.00  0.00    +0.000 F 
ATOM     33  C   UNL     1      -2.411  10.782  16.482  0.00  0.00    +0.000 A 
ENDBRANCH  26  27
ENDBRANCH  14  26
TORSDOF 4
ENDMDL
MODEL 8
REMARK VINA RESULT:      -8.0      4.989      9.241
REMARK  Name = 
REMARK  4 active torsions:
REMARK  status: ('A' for Active; 'I' for Inactive)
REMARK    1  A    between atoms: C_3  and  O_4
REMARK    2  A    between atoms: C_5  and  C_6
REMARK    3  A    between atoms: N_23  and  C_24
REMARK    4  A    between atoms: C_24  and  C_25
REMARK                            x       y       z     vdW  Elec       q    Type
REMARK                         _______ _______ _______ _____ _____    ______ ____
ROOT
ATOM      1  O   UNL     1       2.097   6.081  21.245  0.00  0.00    +0.000 OA
ATOM      2  C   UNL     1       2.291   6.593  20.147  0.00  0.00    +0.000 A 
ATOM      3  C   UNL     1       1.655   7.860  19.831  0.00  0.00    +0.000 A 
ATOM      4  C   UNL     1       2.073   8.510  18.730  0.00  0.00    +0.000 A 
ATOM      5  O   UNL     1       3.073   8.007  17.810  0.00  0.00    +0.000 OA
ATOM      6  C   UNL     1       3.474   6.653  17.914  0.00  0.00    +0.000 A 
ATOM      7  C   UNL     1       4.228   5.890  16.942  0.00  0.00    +0.000 A 
ATOM      8  C   UNL     1       4.125   4.482  17.092  0.00  0.00    +0.000 A 
ATOM      9  C   UNL     1       3.609   3.822  18.192  0.00  0.00    +0.000 A 
ATOM     10  C   UNL     1       3.155   4.570  19.237  0.00  0.00    +0.000 A 
ATOM     11  C   UNL     1       3.028   5.948  19.068  0.00  0.00    +0.000 A 
ATOM     12  O   UNL     1       4.694   3.633  16.180  0.00  0.00    +0.000 OA
ATOM     13  C   UNL     1       6.067   3.970  16.186  0.00  0.00    +0.000 C 
ATOM     14  N   UNL     1       6.267   5.212  15.482  0.00  0.00    +0.000 NA
ATOM     15  C   UNL     1       5.203   6.262  15.765  0.00  0.00    +0.000 C 
ENDROOT
BRANCH   4  16
ATOM     16  C   UNL     1       1.428   9.844  18.514  0.00  0.00    +0.000 A 
ATOM     17  C   UNL     1       2.206  11.023  18.567  0.00  0.00    +0.000 A 
ATOM     18  C   UNL     1       1.616  12.297  18.559  0.00  0.00    +0.000 A 
ATOM     19  C   UNL     1       0.230  12.424  18.516  0.00  0.00    +0.000 A 
ATOM     20 CL   UNL     1      -0.435  14.019  18.441  0.00  0.00    +0.000 Cl
ATOM     21  C   UNL     1      -0.562  11.272  18.544  0.00  0.00    +0.000 A 
ATOM     22 CL   UNL     1      -2.290  11.358  18.588  0.00  0.00    +0.000 Cl
ATOM     23  C   UNL     1       0.033   9.994  18.560  0.00  0.00    +0.000 A 
ENDBRANCH   4  16
BRANCH   3  24
ATOM     24  O   UNL     1       0.667   8.287  20.709  0.00  0.00    +0.000 OA
ATOM     25  H   UNL     1       1.069   8.183  21.603  0.00  0.00    +0.000 HD
ENDBRANCH   3  24
BRANCH  14  26
ATOM     26  C   UNL     1       6.925   4.996  14.176  0.00  0.00    +0.000 C 
BRANCH  26  27
ATOM     27  C   UNL     1       6.336   4.029  13.130  0.00  0.00    +0.000 A 
ATOM     28  C   UNL     1       4.981   4.025  12.785  0.00  0.00    +0.000 A 
ATOM     29  C   UNL     1       4.468   3.177  11.781  0.00  0.00    +0.000 A 
ATOM     30  C   UNL     1       5.304   2.306  11.091  0.00  0.00    +0.000 A 
ATOM     31  C   UNL     1       6.646   2.279  11.431  0.00  0.00    +0.000 A 
ATOM     32  F   UNL     1       7.477   1.442  10.775  0.00  0.00    +0.000 F 
ATOM     33  C   UNL     1       7.170   3.116  12.436  0.00  0.00    +0.000 A 
ENDBRANCH  26  27
ENDBRANCH  14  26
TORSDOF 4
ENDMDL
MODEL 9
REMARK VINA RESULT:      -7.8      1.282      1.493
REMARK  Name = 
REMARK  4 active torsions:
REMARK  status: ('A' for Active; 'I' for Inactive)
REMARK    1  A    between atoms: C_3  and  O_4
REMARK    2  A    between atoms: C_5  and  C_6
REMARK    3  A    between atoms: N_23  and  C_24
REMARK    4  A    between atoms: C_24  and  C_25
REMARK                            x       y       z     vdW  Elec       q    Type
REMARK                         _______ _______ _______ _____ _____    ______ ____
ROOT
ATOM      1  O   UNL     1       2.372   4.311  20.720  0.00  0.00    +0.000 OA
ATOM      2  C   UNL     1       2.673   5.206  19.936  0.00  0.00    +0.000 A 
ATOM      3  C   UNL     1       3.742   4.983  18.979  0.00  0.00    +0.000 A 
ATOM      4  C   UNL     1       3.885   5.878  17.985  0.00  0.00    +0.000 A 
ATOM      5  O   UNL     1       3.083   7.075  17.836  0.00  0.00    +0.000 OA
ATOM      6  C   UNL     1       2.259   7.480  18.914  0.00  0.00    +0.000 A 
ATOM      7  C   UNL     1       1.612   8.764  19.081  0.00  0.00    +0.000 A 
ATOM      8  C   UNL     1       1.212   9.052  20.414  0.00  0.00    +0.000 A 
ATOM      9  C   UNL     1       1.156   8.144  21.454  0.00  0.00    +0.000 A 
ATOM     10  C   UNL     1       1.507   6.851  21.201  0.00  0.00    +0.000 A 
ATOM     11  C   UNL     1       2.109   6.549  19.980  0.00  0.00    +0.000 A 
ATOM     12  O   UNL     1       0.688  10.273  20.743  0.00  0.00    +0.000 OA
ATOM     13  C   UNL     1      -0.448  10.410  19.912  0.00  0.00    +0.000 C 
ATOM     14  N   UNL     1      -0.032  10.708  18.564  0.00  0.00    +0.000 NA
ATOM     15  C   UNL     1       1.184   9.919  18.103  0.00  0.00    +0.000 C 
ENDROOT
BRANCH   4  16
ATOM     16  C   UNL     1       4.955   5.539  16.993  0.00  0.00    +0.000 A 
ATOM     17  C   UNL     1       6.210   6.185  17.058  0.00  0.00    +0.000 A 
ATOM     18  C   UNL     1       7.169   6.039  16.043  0.00  0.00    +0.000 A 
ATOM     19  C   UNL     1       6.888   5.256  14.925  0.00  0.00    +0.000 A 
ATOM     20 CL   UNL     1       8.133   5.062  13.739  0.00  0.00    +0.000 Cl
ATOM     21  C   UNL     1       5.623   4.673  14.801  0.00  0.00    +0.000 A 
ATOM     22 CL   UNL     1       5.174   3.768  13.396  0.00  0.00    +0.000 Cl
ATOM     23  C   UNL     1       4.660   4.828  15.819  0.00  0.00    +0.000 A 
ENDBRANCH   4  16
BRANCH   3  24
ATOM     24  O   UNL     1       4.522   3.851  19.180  0.00  0.00    +0.000 OA
ATOM     25  H   UNL     1       4.857   3.619  18.283  0.00  0.00    +0.000 HD
ENDBRANCH   3  24
BRANCH  14  26
ATOM     26  C   UNL     1      -0.323  12.112  18.203  0.00  0.00    +0.000 C 
BRANCH  26  27
ATOM     27  C   UNL     1       0.663  13.248  18.537  0.00  0.00    +0.000 A 
ATOM     28  C   UNL     1       0.303  14.358  19.308  0.00  0.00    +0.000 A 
ATOM     29  C   UNL     1       1.233  15.358  19.659  0.00  0.00    +0.000 A 
ATOM     30  C   UNL     1       2.558  15.272  19.245  0.00  0.00    +0.000 A 
ATOM     31  C   UNL     1       2.932  14.192  18.464  0.00  0.00    +0.000 A 
ATOM     32  F   UNL     1       4.213  14.087  18.051  0.00  0.00    +0.000 F 
ATOM     33  C   UNL     1       2.011  13.190  18.101  0.00  0.00    +0.000 A 
ENDBRANCH  26  27
ENDBRANCH  14  26
TORSDOF 4
ENDMDL
