MODEL 1
REMARK VINA RESULT:      -8.2      0.000      0.000
REMARK  Name = 
REMARK  4 active torsions:
REMARK  status: ('A' for Active; 'I' for Inactive)
REMARK    1  A    between atoms: C_4  and  C_5
REMARK    2  A    between atoms: C_18  and  C_19
REMARK    3  A    between atoms: N_21  and  C_22
REMARK    4  A    between atoms: C_22  and  C_23
REMARK                            x       y       z     vdW  Elec       q    Type
REMARK                         _______ _______ _______ _____ _____    ______ ____
ROOT
ATOM      1  O   UNL     1       0.806  12.448  18.511  0.00  0.00    +0.000 OA
ATOM      2  C   UNL     1       1.033  11.285  18.817  0.00  0.00    +0.000 A 
ATOM      3  C   UNL     1       0.447  10.692  20.032  0.00  0.00    +0.000 A 
ATOM      4  C   UNL     1       0.674   9.418  20.417  0.00  0.00    +0.000 A 
ATOM      5  C   UNL     1       1.561   8.574  19.576  0.00  0.00    +0.000 A 
ATOM      6  C   UNL     1       1.897   7.234  19.857  0.00  0.00    +0.000 A 
ATOM      7  C   UNL     1       2.719   6.455  19.018  0.00  0.00    +0.000 A 
ATOM      8  C   UNL     1       3.235   7.084  17.864  0.00  0.00    +0.000 A 
ATOM      9  C   UNL     1       2.930   8.408  17.559  0.00  0.00    +0.000 A 
ATOM     10  C   UNL     1       2.106   9.139  18.410  0.00  0.00    +0.000 A 
ATOM     11  N   UNL     1       1.827  10.469  18.073  0.00  0.00    +0.000 N 
ATOM     12  O   UNL     1       4.062   6.463  16.957  0.00  0.00    +0.000 OA
ATOM     13  C   UNL     1       4.620   5.244  17.463  0.00  0.00    +0.000 C 
ATOM     14  C   UNL     1       3.535   4.372  18.110  0.00  0.00    +0.000 C 
ATOM     15  N   UNL     1       3.016   5.114  19.286  0.00  0.00    +0.000 N 
ATOM     16  H   UNL     1       2.223  10.880  17.238  0.00  0.00    +0.000 HD
ENDROOT
BRANCH   4  17
ATOM     17  C   UNL     1      -0.006   8.957  21.672  0.00  0.00    +0.000 C 
ATOM     18  F   UNL     1      -0.764   7.844  21.560  0.00  0.00    +0.000 F 
ATOM     19  F   UNL     1       0.905   8.696  22.648  0.00  0.00    +0.000 F 
ATOM     20  F   UNL     1      -0.826   9.922  22.166  0.00  0.00    +0.000 F 
ENDBRANCH   4  17
BRANCH  14  21
ATOM     21  C   UNL     1       4.109   2.981  18.382  0.00  0.00    +0.000 C 
ATOM     22  F   UNL     1       3.301   2.024  17.850  0.00  0.00    +0.000 F 
ENDBRANCH  14  21
BRANCH  15  23
ATOM     23  C   UNL     1       2.767   4.479  20.599  0.00  0.00    +0.000 C 
BRANCH  23  24
ATOM     24  C   UNL     1       1.443   3.711  20.766  0.00  0.00    +0.000 C 
ATOM     25  F   UNL     1       0.352   4.488  20.593  0.00  0.00    +0.000 F 
ATOM     26  F   UNL     1       1.361   2.700  19.865  0.00  0.00    +0.000 F 
ATOM     27  F   UNL     1       1.359   3.153  21.997  0.00  0.00    +0.000 F 
ENDBRANCH  23  24
ENDBRANCH  15  23
TORSDOF 4
ENDMDL
MODEL 2
REMARK VINA RESULT:      -8.2      0.214      1.036
REMARK  Name = 
REMARK  4 active torsions:
REMARK  status: ('A' for Active; 'I' for Inactive)
REMARK    1  A    between atoms: C_4  and  C_5
REMARK    2  A    between atoms: C_18  and  C_19
REMARK    3  A    between atoms: N_21  and  C_22
REMARK    4  A    between atoms: C_22  and  C_23
REMARK                            x       y       z     vdW  Elec       q    Type
REMARK                         _______ _______ _______ _____ _____    ______ ____
ROOT
ATOM      1  O   UNL     1       0.912  12.274  18.445  0.00  0.00    +0.000 OA
ATOM      2  C   UNL     1       1.122  11.115  18.775  0.00  0.00    +0.000 A 
ATOM      3  C   UNL     1       0.545  10.561  20.012  0.00  0.00    +0.000 A 
ATOM      4  C   UNL     1       0.754   9.292  20.423  0.00  0.00    +0.000 A 
ATOM      5  C   UNL     1       1.612   8.412  19.588  0.00  0.00    +0.000 A 
ATOM      6  C   UNL     1       1.928   7.073  19.895  0.00  0.00    +0.000 A 
ATOM      7  C   UNL     1       2.721   6.260  19.061  0.00  0.00    +0.000 A 
ATOM      8  C   UNL     1       3.230   6.852  17.885  0.00  0.00    +0.000 A 
ATOM      9  C   UNL     1       2.945   8.174  17.555  0.00  0.00    +0.000 A 
ATOM     10  C   UNL     1       2.148   8.940  18.401  0.00  0.00    +0.000 A 
ATOM     11  N   UNL     1       1.889  10.267  18.037  0.00  0.00    +0.000 N 
ATOM     12  O   UNL     1       4.031   6.194  16.980  0.00  0.00    +0.000 OA
ATOM     13  C   UNL     1       4.574   4.977  17.506  0.00  0.00    +0.000 C 
ATOM     14  C   UNL     1       3.484   4.141  18.190  0.00  0.00    +0.000 C 
ATOM     15  N   UNL     1       2.997   4.919  19.356  0.00  0.00    +0.000 N 
ATOM     16  H   UNL     1       2.279  10.651  17.187  0.00  0.00    +0.000 HD
ENDROOT
BRANCH   4  17
ATOM     17  C   UNL     1       0.086   8.872  21.698  0.00  0.00    +0.000 C 
ATOM     18  F   UNL     1       0.909   8.552  22.721  0.00  0.00    +0.000 F 
ATOM     19  F   UNL     1      -0.729   9.857  22.165  0.00  0.00    +0.000 F 
ATOM     20  F   UNL     1      -0.707   7.786  21.499  0.00  0.00    +0.000 F 
ENDBRANCH   4  17
BRANCH  14  21
ATOM     21  C   UNL     1       4.036   2.746  18.485  0.00  0.00    +0.000 C 
ATOM     22  F   UNL     1       3.291   1.799  17.851  0.00  0.00    +0.000 F 
ENDBRANCH  14  21
BRANCH  15  23
ATOM     23  C   UNL     1       2.758   4.319  20.687  0.00  0.00    +0.000 C 
BRANCH  23  24
ATOM     24  C   UNL     1       1.452   3.524  20.872  0.00  0.00    +0.000 C 
ATOM     25  F   UNL     1       1.244   3.133  22.148  0.00  0.00    +0.000 F 
ATOM     26  F   UNL     1       0.382   4.272  20.504  0.00  0.00    +0.000 F 
ATOM     27  F   UNL     1       1.445   2.415  20.096  0.00  0.00    +0.000 F 
ENDBRANCH  23  24
ENDBRANCH  15  23
TORSDOF 4
ENDMDL
MODEL 3
REMARK VINA RESULT:      -7.9      0.691      1.019
REMARK  Name = 
REMARK  4 active torsions:
REMARK  status: ('A' for Active; 'I' for Inactive)
REMARK    1  A    between atoms: C_4  and  C_5
REMARK    2  A    between atoms: C_18  and  C_19
REMARK    3  A    between atoms: N_21  and  C_22
REMARK    4  A    between atoms: C_22  and  C_23
REMARK                            x       y       z     vdW  Elec       q    Type
REMARK                         _______ _______ _______ _____ _____    ______ ____
ROOT
ATOM      1  O   UNL     1       0.048  12.728  18.813  0.00  0.00    +0.000 OA
ATOM      2  C   UNL     1       0.412  11.588  19.066  0.00  0.00    +0.000 A 
ATOM      3  C   UNL     1      -0.026  10.907  20.296  0.00  0.00    +0.000 A 
ATOM      4  C   UNL     1       0.355   9.654  20.624  0.00  0.00    +0.000 A 
ATOM      5  C   UNL     1       1.263   8.927  19.699  0.00  0.00    +0.000 A 
ATOM      6  C   UNL     1       1.752   7.623  19.914  0.00  0.00    +0.000 A 
ATOM      7  C   UNL     1       2.589   6.955  18.998  0.00  0.00    +0.000 A 
ATOM      8  C   UNL     1       2.957   7.663  17.833  0.00  0.00    +0.000 A 
ATOM      9  C   UNL     1       2.500   8.955  17.592  0.00  0.00    +0.000 A 
ATOM     10  C   UNL     1       1.666   9.576  18.519  0.00  0.00    +0.000 A 
ATOM     11  N   UNL     1       1.231  10.878  18.244  0.00  0.00    +0.000 N 
ATOM     12  O   UNL     1       3.778   7.154  16.853  0.00  0.00    +0.000 OA
ATOM     13  C   UNL     1       4.490   5.986  17.282  0.00  0.00    +0.000 C 
ATOM     14  C   UNL     1       3.547   4.991  17.971  0.00  0.00    +0.000 C 
ATOM     15  N   UNL     1       3.038   5.645  19.201  0.00  0.00    +0.000 N 
ATOM     16  H   UNL     1       1.525  11.348  17.399  0.00  0.00    +0.000 HD
ENDROOT
BRANCH   4  17
ATOM     17  C   UNL     1      -0.186   9.093  21.905  0.00  0.00    +0.000 C 
ATOM     18  F   UNL     1      -0.893   7.946  21.798  0.00  0.00    +0.000 F 
ATOM     19  F   UNL     1       0.820   8.835  22.784  0.00  0.00    +0.000 F 
ATOM     20  F   UNL     1      -1.008   9.985  22.520  0.00  0.00    +0.000 F 
ENDBRANCH   4  17
BRANCH  14  21
ATOM     21  C   UNL     1       4.276   3.660  18.159  0.00  0.00    +0.000 C 
ATOM     22  F   UNL     1       4.742   3.203  16.965  0.00  0.00    +0.000 F 
ENDBRANCH  14  21
BRANCH  15  23
ATOM     23  C   UNL     1       2.945   4.954  20.507  0.00  0.00    +0.000 C 
BRANCH  23  24
ATOM     24  C   UNL     1       1.727   4.040  20.731  0.00  0.00    +0.000 C 
ATOM     25  F   UNL     1       1.723   3.447  21.945  0.00  0.00    +0.000 F 
ATOM     26  F   UNL     1       0.574   4.748  20.629  0.00  0.00    +0.000 F 
ATOM     27  F   UNL     1       1.675   3.062  19.796  0.00  0.00    +0.000 F 
ENDBRANCH  23  24
ENDBRANCH  15  23
TORSDOF 4
ENDMDL
MODEL 4
REMARK VINA RESULT:      -7.7      1.091      1.554
REMARK  Name = 
REMARK  4 active torsions:
REMARK  status: ('A' for Active; 'I' for Inactive)
REMARK    1  A    between atoms: C_4  and  C_5
REMARK    2  A    between atoms: C_18  and  C_19
REMARK    3  A    between atoms: N_21  and  C_22
REMARK    4  A    between atoms: C_22  and  C_23
REMARK                            x       y       z     vdW  Elec       q    Type
REMARK                         _______ _______ _______ _____ _____    ______ ____
ROOT
ATOM      1  O   UNL     1      -0.288  13.088  19.261  0.00  0.00    +0.000 OA
ATOM      2  C   UNL     1       0.123  11.950  19.436  0.00  0.00    +0.000 A 
ATOM      3  C   UNL     1      -0.222  11.196  20.654  0.00  0.00    +0.000 A 
ATOM      4  C   UNL     1       0.214   9.942  20.898  0.00  0.00    +0.000 A 
ATOM      5  C   UNL     1       1.088   9.290  19.889  0.00  0.00    +0.000 A 
ATOM      6  C   UNL     1       1.627   7.994  20.011  0.00  0.00    +0.000 A 
ATOM      7  C   UNL     1       2.430   7.398  19.017  0.00  0.00    +0.000 A 
ATOM      8  C   UNL     1       2.709   8.172  17.870  0.00  0.00    +0.000 A 
ATOM      9  C   UNL     1       2.200   9.459  17.720  0.00  0.00    +0.000 A 
ATOM     10  C   UNL     1       1.403  10.007  18.721  0.00  0.00    +0.000 A 
ATOM     11  N   UNL     1       0.915  11.306  18.536  0.00  0.00    +0.000 N 
ATOM     12  O   UNL     1       3.487   7.738  16.822  0.00  0.00    +0.000 OA
ATOM     13  C   UNL     1       4.257   6.574  17.151  0.00  0.00    +0.000 C 
ATOM     14  C   UNL     1       3.385   5.517  17.841  0.00  0.00    +0.000 C 
ATOM     15  N   UNL     1       2.928   6.095  19.130  0.00  0.00    +0.000 N 
ATOM     16  H   UNL     1       1.145  11.826  17.700  0.00  0.00    +0.000 HD
ENDROOT
BRANCH   4  17
ATOM     17  C   UNL     1      -0.236   9.303  22.178  0.00  0.00    +0.000 C 
ATOM     18  F   UNL     1       0.736   9.019  23.072  0.00  0.00    +0.000 F 
ATOM     19  F   UNL     1      -1.127  10.098  22.829  0.00  0.00    +0.000 F 
ATOM     20  F   UNL     1      -0.880   8.130  21.937  0.00  0.00    +0.000 F 
ENDBRANCH   4  17
BRANCH  14  21
ATOM     21  C   UNL     1       4.163   4.203  17.922  0.00  0.00    +0.000 C 
ATOM     22  F   UNL     1       5.005   4.086  16.859  0.00  0.00    +0.000 F 
ENDBRANCH  14  21
BRANCH  15  23
ATOM     23  C   UNL     1       2.932   5.340  20.402  0.00  0.00    +0.000 C 
BRANCH  23  24
ATOM     24  C   UNL     1       1.738   4.403  20.665  0.00  0.00    +0.000 C 
ATOM     25  F   UNL     1       1.620   3.421  19.744  0.00  0.00    +0.000 F 
ATOM     26  F   UNL     1       1.860   3.804  21.875  0.00  0.00    +0.000 F 
ATOM     27  F   UNL     1       0.574   5.095  20.680  0.00  0.00    +0.000 F 
ENDBRANCH  23  24
ENDBRANCH  15  23
TORSDOF 4
ENDMDL
MODEL 5
REMARK VINA RESULT:      -6.9      4.882      7.615
REMARK  Name = 
REMARK  4 active torsions:
REMARK  status: ('A' for Active; 'I' for Inactive)
REMARK    1  A    between atoms: C_4  and  C_5
REMARK    2  A    between atoms: C_18  and  C_19
REMARK    3  A    between atoms: N_21  and  C_22
REMARK    4  A    between atoms: C_22  and  C_23
REMARK                            x       y       z     vdW  Elec       q    Type
REMARK                         _______ _______ _______ _____ _____    ______ ____
ROOT
ATOM      1  O   UNL     1       8.947   5.936  12.534  0.00  0.00    +0.000 OA
ATOM      2  C   UNL     1       8.062   5.438  13.216  0.00  0.00    +0.000 A 
ATOM      3  C   UNL     1       6.962   4.678  12.596  0.00  0.00    +0.000 A 
ATOM      4  C   UNL     1       5.958   4.119  13.304  0.00  0.00    +0.000 A 
ATOM      5  C   UNL     1       5.961   4.279  14.781  0.00  0.00    +0.000 A 
ATOM      6  C   UNL     1       4.976   3.763  15.647  0.00  0.00    +0.000 A 
ATOM      7  C   UNL     1       5.029   3.912  17.048  0.00  0.00    +0.000 A 
ATOM      8  C   UNL     1       6.118   4.640  17.574  0.00  0.00    +0.000 A 
ATOM      9  C   UNL     1       7.104   5.171  16.748  0.00  0.00    +0.000 A 
ATOM     10  C   UNL     1       7.020   4.993  15.370  0.00  0.00    +0.000 A 
ATOM     11  N   UNL     1       8.028   5.547  14.572  0.00  0.00    +0.000 N 
ATOM     12  O   UNL     1       6.301   4.883  18.916  0.00  0.00    +0.000 OA
ATOM     13  C   UNL     1       5.122   4.627  19.689  0.00  0.00    +0.000 C 
ATOM     14  C   UNL     1       4.506   3.272  19.317  0.00  0.00    +0.000 C 
ATOM     15  N   UNL     1       4.066   3.361  17.902  0.00  0.00    +0.000 N 
ATOM     16  H   UNL     1       8.787   6.066  14.992  0.00  0.00    +0.000 HD
ENDROOT
BRANCH   4  17
ATOM     17  C   UNL     1       4.919   3.364  12.530  0.00  0.00    +0.000 C 
ATOM     18  F   UNL     1       3.739   3.167  13.157  0.00  0.00    +0.000 F 
ATOM     19  F   UNL     1       4.625   4.002  11.365  0.00  0.00    +0.000 F 
ATOM     20  F   UNL     1       5.371   2.129  12.182  0.00  0.00    +0.000 F 
ENDBRANCH   4  17
BRANCH  14  21
ATOM     21  C   UNL     1       3.430   2.914  20.343  0.00  0.00    +0.000 C 
ATOM     22  F   UNL     1       2.911   4.043  20.897  0.00  0.00    +0.000 F 
ENDBRANCH  14  21
BRANCH  15  23
ATOM     23  C   UNL     1       2.762   2.851  17.426  0.00  0.00    +0.000 C 
BRANCH  23  24
ATOM     24  C   UNL     1       1.517   3.697  17.750  0.00  0.00    +0.000 C 
ATOM     25  F   UNL     1       0.641   3.066  18.562  0.00  0.00    +0.000 F 
ATOM     26  F   UNL     1       1.873   4.852  18.365  0.00  0.00    +0.000 F 
ATOM     27  F   UNL     1       0.856   4.039  16.619  0.00  0.00    +0.000 F 
ENDBRANCH  23  24
ENDBRANCH  15  23
TORSDOF 4
ENDMDL
MODEL 6
REMARK VINA RESULT:      -6.9      1.494      6.135
REMARK  Name = 
REMARK  4 active torsions:
REMARK  status: ('A' for Active; 'I' for Inactive)
REMARK    1  A    between atoms: C_4  and  C_5
REMARK    2  A    between atoms: C_18  and  C_19
REMARK    3  A    between atoms: N_21  and  C_22
REMARK    4  A    between atoms: C_22  and  C_23
REMARK                            x       y       z     vdW  Elec       q    Type
REMARK                         _______ _______ _______ _____ _____    ______ ____
ROOT
ATOM      1  O   UNL     1       4.989   3.813  16.939  0.00  0.00    +0.000 OA
ATOM      2  C   UNL     1       4.274   4.562  17.590  0.00  0.00    +0.000 A 
ATOM      3  C   UNL     1       3.579   4.087  18.800  0.00  0.00    +0.000 A 
ATOM      4  C   UNL     1       2.773   4.872  19.546  0.00  0.00    +0.000 A 
ATOM      5  C   UNL     1       2.574   6.283  19.126  0.00  0.00    +0.000 A 
ATOM      6  C   UNL     1       1.755   7.214  19.797  0.00  0.00    +0.000 A 
ATOM      7  C   UNL     1       1.615   8.553  19.383  0.00  0.00    +0.000 A 
ATOM      8  C   UNL     1       2.321   8.943  18.223  0.00  0.00    +0.000 A 
ATOM      9  C   UNL     1       3.132   8.048  17.531  0.00  0.00    +0.000 A 
ATOM     10  C   UNL     1       3.251   6.736  17.979  0.00  0.00    +0.000 A 
ATOM     11  N   UNL     1       4.071   5.864  17.253  0.00  0.00    +0.000 N 
ATOM     12  O   UNL     1       2.274  10.209  17.686  0.00  0.00    +0.000 OA
ATOM     13  C   UNL     1       1.192  10.990  18.208  0.00  0.00    +0.000 C 
ATOM     14  C   UNL     1       1.132  10.893  19.738  0.00  0.00    +0.000 C 
ATOM     15  N   UNL     1       0.830   9.480  20.079  0.00  0.00    +0.000 N 
ATOM     16  H   UNL     1       4.554   6.186  16.425  0.00  0.00    +0.000 HD
ENDROOT
BRANCH   4  17
ATOM     17  C   UNL     1       2.148   4.246  20.757  0.00  0.00    +0.000 C 
ATOM     18  F   UNL     1       2.450   4.819  21.943  0.00  0.00    +0.000 F 
ATOM     19  F   UNL     1       0.790   4.264  20.665  0.00  0.00    +0.000 F 
ATOM     20  F   UNL     1       2.503   2.938  20.869  0.00  0.00    +0.000 F 
ENDBRANCH   4  17
BRANCH  14  21
ATOM     21  C   UNL     1       0.157  11.944  20.268  0.00  0.00    +0.000 C 
ATOM     22  F   UNL     1      -0.950  12.002  19.479  0.00  0.00    +0.000 F 
ENDBRANCH  14  21
BRANCH  15  23
ATOM     23  C   UNL     1      -0.157   9.089  21.109  0.00  0.00    +0.000 C 
BRANCH  23  24
ATOM     24  C   UNL     1       0.215   9.365  22.577  0.00  0.00    +0.000 C 
ATOM     25  F   UNL     1       1.534   9.211  22.829  0.00  0.00    +0.000 F 
ATOM     26  F   UNL     1      -0.112  10.635  22.922  0.00  0.00    +0.000 F 
ATOM     27  F   UNL     1      -0.461   8.540  23.412  0.00  0.00    +0.000 F 
ENDBRANCH  23  24
ENDBRANCH  15  23
TORSDOF 4
ENDMDL
MODEL 7
REMARK VINA RESULT:      -6.9      1.509      6.081
REMARK  Name = 
REMARK  4 active torsions:
REMARK  status: ('A' for Active; 'I' for Inactive)
REMARK    1  A    between atoms: C_4  and  C_5
REMARK    2  A    between atoms: C_18  and  C_19
REMARK    3  A    between atoms: N_21  and  C_22
REMARK    4  A    between atoms: C_22  and  C_23
REMARK                            x       y       z     vdW  Elec       q    Type
REMARK                         _______ _______ _______ _____ _____    ______ ____
ROOT
ATOM      1  O   UNL     1       4.912   3.653  16.956  0.00  0.00    +0.000 OA
ATOM      2  C   UNL     1       4.212   4.420  17.604  0.00  0.00    +0.000 A 
ATOM      3  C   UNL     1       3.510   3.965  18.817  0.00  0.00    +0.000 A 
ATOM      4  C   UNL     1       2.720   4.769  19.560  0.00  0.00    +0.000 A 
ATOM      5  C   UNL     1       2.549   6.182  19.133  0.00  0.00    +0.000 A 
ATOM      6  C   UNL     1       1.750   7.133  19.800  0.00  0.00    +0.000 A 
ATOM      7  C   UNL     1       1.637   8.473  19.380  0.00  0.00    +0.000 A 
ATOM      8  C   UNL     1       2.349   8.842  18.218  0.00  0.00    +0.000 A 
ATOM      9  C   UNL     1       3.141   7.928  17.529  0.00  0.00    +0.000 A 
ATOM     10  C   UNL     1       3.234   6.616  17.984  0.00  0.00    +0.000 A 
ATOM     11  N   UNL     1       4.036   5.724  17.261  0.00  0.00    +0.000 N 
ATOM     12  O   UNL     1       2.328  10.106  17.675  0.00  0.00    +0.000 OA
ATOM     13  C   UNL     1       1.261  10.912  18.193  0.00  0.00    +0.000 C 
ATOM     14  C   UNL     1       1.202  10.823  19.724  0.00  0.00    +0.000 C 
ATOM     15  N   UNL     1       0.871   9.419  20.072  0.00  0.00    +0.000 N 
ATOM     16  H   UNL     1       4.524   6.032  16.431  0.00  0.00    +0.000 HD
ENDROOT
BRANCH   4  17
ATOM     17  C   UNL     1       2.084   4.163  20.775  0.00  0.00    +0.000 C 
ATOM     18  F   UNL     1       0.732   4.166  20.801  0.00  0.00    +0.000 F 
ATOM     19  F   UNL     1       2.460   2.863  20.920  0.00  0.00    +0.000 F 
ATOM     20  F   UNL     1       2.483   4.802  21.907  0.00  0.00    +0.000 F 
ENDBRANCH   4  17
BRANCH  14  21
ATOM     21  C   UNL     1       0.248  11.897  20.250  0.00  0.00    +0.000 C 
ATOM     22  F   UNL     1      -0.994  11.725  19.723  0.00  0.00    +0.000 F 
ENDBRANCH  14  21
BRANCH  15  23
ATOM     23  C   UNL     1      -0.123   9.053  21.105  0.00  0.00    +0.000 C 
BRANCH  23  24
ATOM     24  C   UNL     1       0.237   9.371  22.568  0.00  0.00    +0.000 C 
ATOM     25  F   UNL     1      -0.400   8.578  23.457  0.00  0.00    +0.000 F 
ATOM     26  F   UNL     1       1.568   9.216  22.776  0.00  0.00    +0.000 F 
ATOM     27  F   UNL     1      -0.065  10.655  22.873  0.00  0.00    +0.000 F 
ENDBRANCH  23  24
ENDBRANCH  15  23
TORSDOF 4
ENDMDL
MODEL 8
REMARK VINA RESULT:      -6.8      4.850      7.566
REMARK  Name = 
REMARK  4 active torsions:
REMARK  status: ('A' for Active; 'I' for Inactive)
REMARK    1  A    between atoms: C_4  and  C_5
REMARK    2  A    between atoms: C_18  and  C_19
REMARK    3  A    between atoms: N_21  and  C_22
REMARK    4  A    between atoms: C_22  and  C_23
REMARK                            x       y       z     vdW  Elec       q    Type
REMARK                         _______ _______ _______ _____ _____    ______ ____
ROOT
ATOM      1  O   UNL     1       8.995   5.962  12.549  0.00  0.00    +0.000 OA
ATOM      2  C   UNL     1       8.102   5.470  13.224  0.00  0.00    +0.000 A 
ATOM      3  C   UNL     1       6.994   4.730  12.595  0.00  0.00    +0.000 A 
ATOM      4  C   UNL     1       5.980   4.178  13.296  0.00  0.00    +0.000 A 
ATOM      5  C   UNL     1       5.981   4.326  14.774  0.00  0.00    +0.000 A 
ATOM      6  C   UNL     1       4.987   3.815  15.633  0.00  0.00    +0.000 A 
ATOM      7  C   UNL     1       5.038   3.951  17.035  0.00  0.00    +0.000 A 
ATOM      8  C   UNL     1       6.135   4.661  17.570  0.00  0.00    +0.000 A 
ATOM      9  C   UNL     1       7.131   5.186  16.751  0.00  0.00    +0.000 A 
ATOM     10  C   UNL     1       7.048   5.020  15.371  0.00  0.00    +0.000 A 
ATOM     11  N   UNL     1       8.065   5.568  14.581  0.00  0.00    +0.000 N 
ATOM     12  O   UNL     1       6.318   4.890  18.914  0.00  0.00    +0.000 OA
ATOM     13  C   UNL     1       5.134   4.643  19.683  0.00  0.00    +0.000 C 
ATOM     14  C   UNL     1       4.500   3.300  19.297  0.00  0.00    +0.000 C 
ATOM     15  N   UNL     1       4.066   3.406  17.882  0.00  0.00    +0.000 N 
ATOM     16  H   UNL     1       8.830   6.073  15.008  0.00  0.00    +0.000 HD
ENDROOT
BRANCH   4  17
ATOM     17  C   UNL     1       4.934   3.444  12.512  0.00  0.00    +0.000 C 
ATOM     18  F   UNL     1       4.487   4.061  11.396  0.00  0.00    +0.000 F 
ATOM     19  F   UNL     1       5.393   2.227  12.112  0.00  0.00    +0.000 F 
ATOM     20  F   UNL     1       3.833   3.202  13.274  0.00  0.00    +0.000 F 
ENDBRANCH   4  17
BRANCH  14  21
ATOM     21  C   UNL     1       3.417   2.947  20.317  0.00  0.00    +0.000 C 
ATOM     22  F   UNL     1       2.941   4.076  20.910  0.00  0.00    +0.000 F 
ENDBRANCH  14  21
BRANCH  15  23
ATOM     23  C   UNL     1       2.756   2.917  17.398  0.00  0.00    +0.000 C 
BRANCH  23  24
ATOM     24  C   UNL     1       1.523   3.781  17.720  0.00  0.00    +0.000 C 
ATOM     25  F   UNL     1       0.809   4.118  16.624  0.00  0.00    +0.000 F 
ATOM     26  F   UNL     1       0.684   3.122  18.557  0.00  0.00    +0.000 F 
ATOM     27  F   UNL     1       1.884   4.928  18.343  0.00  0.00    +0.000 F 
ENDBRANCH  23  24
ENDBRANCH  15  23
TORSDOF 4
ENDMDL
MODEL 9
REMARK VINA RESULT:      -6.5      7.167     10.179
REMARK  Name = 
REMARK  4 active torsions:
REMARK  status: ('A' for Active; 'I' for Inactive)
REMARK    1  A    between atoms: C_4  and  C_5
REMARK    2  A    between atoms: C_18  and  C_19
REMARK    3  A    between atoms: N_21  and  C_22
REMARK    4  A    between atoms: C_22  and  C_23
REMARK                            x       y       z     vdW  Elec       q    Type
REMARK                         _______ _______ _______ _____ _____    ______ ____
ROOT
ATOM      1  O   UNL     1      -3.000  10.195  15.797  0.00  0.00    +0.000 OA
ATOM      2  C   UNL     1      -3.191  10.773  16.858  0.00  0.00    +0.000 A 
ATOM      3  C   UNL     1      -2.080  11.412  17.585  0.00  0.00    +0.000 A 
ATOM      4  C   UNL     1      -2.237  12.054  18.762  0.00  0.00    +0.000 A 
ATOM      5  C   UNL     1      -3.598  12.116  19.356  0.00  0.00    +0.000 A 
ATOM      6  C   UNL     1      -3.912  12.739  20.581  0.00  0.00    +0.000 A 
ATOM      7  C   UNL     1      -5.222  12.803  21.097  0.00  0.00    +0.000 A 
ATOM      8  C   UNL     1      -6.239  12.181  20.341  0.00  0.00    +0.000 A 
ATOM      9  C   UNL     1      -5.964  11.549  19.132  0.00  0.00    +0.000 A 
ATOM     10  C   UNL     1      -4.658  11.518  18.652  0.00  0.00    +0.000 A 
ATOM     11  N   UNL     1      -4.419  10.868  17.435  0.00  0.00    +0.000 N 
ATOM     12  O   UNL     1      -7.562  12.145  20.719  0.00  0.00    +0.000 OA
ATOM     13  C   UNL     1      -7.753  12.493  22.096  0.00  0.00    +0.000 C 
ATOM     14  C   UNL     1      -6.973  13.766  22.453  0.00  0.00    +0.000 C 
ATOM     15  N   UNL     1      -5.530  13.458  22.295  0.00  0.00    +0.000 N 
ATOM     16  H   UNL     1      -5.179  10.431  16.930  0.00  0.00    +0.000 HD
ENDROOT
BRANCH   4  17
ATOM     17  C   UNL     1      -1.011  12.665  19.372  0.00  0.00    +0.000 C 
ATOM     18  F   UNL     1      -0.693  12.241  20.615  0.00  0.00    +0.000 F 
ATOM     19  F   UNL     1       0.084  12.426  18.600  0.00  0.00    +0.000 F 
ATOM     20  F   UNL     1      -1.129  14.017  19.454  0.00  0.00    +0.000 F 
ENDBRANCH   4  17
BRANCH  14  21
ATOM     21  C   UNL     1      -7.418  14.254  23.831  0.00  0.00    +0.000 C 
ATOM     22  F   UNL     1      -7.764  13.199  24.618  0.00  0.00    +0.000 F 
ENDBRANCH  14  21
BRANCH  15  23
ATOM     23  C   UNL     1      -4.503  13.868  23.278  0.00  0.00    +0.000 C 
BRANCH  23  24
ATOM     24  C   UNL     1      -4.079  12.823  24.326  0.00  0.00    +0.000 C 
ATOM     25  F   UNL     1      -5.104  12.057  24.759  0.00  0.00    +0.000 F 
ATOM     26  F   UNL     1      -3.143  11.986  23.814  0.00  0.00    +0.000 F 
ATOM     27  F   UNL     1      -3.526  13.420  25.409  0.00  0.00    +0.000 F 
ENDBRANCH  23  24
ENDBRANCH  15  23
TORSDOF 4
ENDMDL
