MODEL 1
REMARK VINA RESULT:      -7.3      0.000      0.000
REMARK  Name = 
REMARK  3 active torsions:
REMARK  status: ('A' for Active; 'I' for Inactive)
REMARK    1  A    between atoms: N_1  and  N_2
REMARK    2  A    between atoms: C_3  and  C_5
REMARK    3  A    between atoms: C_8  and  C_9
REMARK                            x       y       z     vdW  Elec       q    Type
REMARK                         _______ _______ _______ _____ _____    ______ ____
ROOT
ATOM      1  C   UNL     1       6.640   5.183  16.237  0.00  0.00    +0.000 A 
ATOM      2  C   UNL     1       7.279   6.053  17.094  0.00  0.00    +0.000 A 
ATOM      3  C   UNL     1       6.600   5.984  18.331  0.00  0.00    +0.000 A 
ATOM      4  C   UNL     1       5.575   5.071  18.178  0.00  0.00    +0.000 A 
ATOM      5  O   UNL     1       5.583   4.596  16.894  0.00  0.00    +0.000 OA
ENDROOT
BRANCH   4   6
ATOM      6  C   UNL     1       4.570   4.520  19.088  0.00  0.00    +0.000 A 
ATOM      7  C   UNL     1       4.563   3.144  19.375  0.00  0.00    +0.000 A 
ATOM      8  C   UNL     1       3.572   2.578  20.184  0.00  0.00    +0.000 A 
ATOM      9  C   UNL     1       2.575   3.387  20.720  0.00  0.00    +0.000 A 
ATOM     10 CL   UNL     1       1.334   2.685  21.682  0.00  0.00    +0.000 Cl
ATOM     11  C   UNL     1       2.573   4.756  20.471  0.00  0.00    +0.000 A 
ATOM     12  C   UNL     1       3.568   5.319  19.660  0.00  0.00    +0.000 A 
ENDBRANCH   4   6
BRANCH   1  14
ATOM     13  N   UNL     1       6.239   3.684  14.433  0.00  0.00    +0.000 N 
ATOM     14  C   UNL     1       6.927   4.819  14.868  0.00  0.00    +0.000 C 
ATOM     15  O   UNL     1       7.725   5.430  14.158  0.00  0.00    +0.000 OA
ATOM     16  H   UNL     1       5.525   3.305  15.050  0.00  0.00    +0.000 HD
BRANCH  13  17
ATOM     17  N   UNL     1       6.347   3.231  13.103  0.00  0.00    +0.000 NA
ATOM     18  H   UNL     1       7.323   3.260  12.807  0.00  0.00    +0.000 HD
ATOM     19  H   UNL     1       5.850   3.909  12.508  0.00  0.00    +0.000 HD
ENDBRANCH  13  17
ENDBRANCH   1  14
TORSDOF 3
ENDMDL
MODEL 2
REMARK VINA RESULT:      -7.2      0.157      1.213
REMARK  Name = 
REMARK  3 active torsions:
REMARK  status: ('A' for Active; 'I' for Inactive)
REMARK    1  A    between atoms: N_1  and  N_2
REMARK    2  A    between atoms: C_3  and  C_5
REMARK    3  A    between atoms: C_8  and  C_9
REMARK                            x       y       z     vdW  Elec       q    Type
REMARK                         _______ _______ _______ _____ _____    ______ ____
ROOT
ATOM      1  C   UNL     1       6.607   5.154  16.150  0.00  0.00    +0.000 A 
ATOM      2  C   UNL     1       7.219   6.003  17.048  0.00  0.00    +0.000 A 
ATOM      3  C   UNL     1       6.503   5.902  18.262  0.00  0.00    +0.000 A 
ATOM      4  C   UNL     1       5.484   4.993  18.054  0.00  0.00    +0.000 A 
ATOM      5  O   UNL     1       5.532   4.550  16.760  0.00  0.00    +0.000 OA
ENDROOT
BRANCH   4   6
ATOM      6  C   UNL     1       4.452   4.418  18.920  0.00  0.00    +0.000 A 
ATOM      7  C   UNL     1       3.546   5.260  19.586  0.00  0.00    +0.000 A 
ATOM      8  C   UNL     1       2.597   4.744  20.474  0.00  0.00    +0.000 A 
ATOM      9  C   UNL     1       2.543   3.373  20.704  0.00  0.00    +0.000 A 
ATOM     10 CL   UNL     1       1.402   2.742  21.826  0.00  0.00    +0.000 Cl
ATOM     11  C   UNL     1       3.413   2.515  20.038  0.00  0.00    +0.000 A 
ATOM     12  C   UNL     1       4.362   3.036  19.149  0.00  0.00    +0.000 A 
ENDBRANCH   4   6
BRANCH   1  14
ATOM     13  N   UNL     1       6.263   3.701  14.298  0.00  0.00    +0.000 N 
ATOM     14  C   UNL     1       6.937   4.824  14.782  0.00  0.00    +0.000 C 
ATOM     15  O   UNL     1       7.755   5.453  14.112  0.00  0.00    +0.000 OA
ATOM     16  H   UNL     1       5.531   3.306  14.883  0.00  0.00    +0.000 HD
BRANCH  13  17
ATOM     17  N   UNL     1       6.413   3.281  12.961  0.00  0.00    +0.000 NA
ATOM     18  H   UNL     1       7.192   3.776  12.529  0.00  0.00    +0.000 HD
ATOM     19  H   UNL     1       5.569   3.579  12.452  0.00  0.00    +0.000 HD
ENDBRANCH  13  17
ENDBRANCH   1  14
TORSDOF 3
ENDMDL
MODEL 3
REMARK VINA RESULT:      -7.1      1.253      1.740
REMARK  Name = 
REMARK  3 active torsions:
REMARK  status: ('A' for Active; 'I' for Inactive)
REMARK    1  A    between atoms: N_1  and  N_2
REMARK    2  A    between atoms: C_3  and  C_5
REMARK    3  A    between atoms: C_8  and  C_9
REMARK                            x       y       z     vdW  Elec       q    Type
REMARK                         _______ _______ _______ _____ _____    ______ ____
ROOT
ATOM      1  C   UNL     1       5.504   5.433  15.654  0.00  0.00    +0.000 A 
ATOM      2  C   UNL     1       5.207   6.731  16.013  0.00  0.00    +0.000 A 
ATOM      3  C   UNL     1       4.335   6.662  17.122  0.00  0.00    +0.000 A 
ATOM      4  C   UNL     1       4.138   5.322  17.396  0.00  0.00    +0.000 A 
ATOM      5  O   UNL     1       4.834   4.569  16.489  0.00  0.00    +0.000 OA
ENDROOT
BRANCH   4   6
ATOM      6  C   UNL     1       3.404   4.603  18.439  0.00  0.00    +0.000 A 
ATOM      7  C   UNL     1       2.412   5.265  19.182  0.00  0.00    +0.000 A 
ATOM      8  C   UNL     1       1.745   4.624  20.231  0.00  0.00    +0.000 A 
ATOM      9  C   UNL     1       2.063   3.308  20.548  0.00  0.00    +0.000 A 
ATOM     10 CL   UNL     1       1.272   2.532  21.864  0.00  0.00    +0.000 Cl
ATOM     11  C   UNL     1       3.025   2.622  19.812  0.00  0.00    +0.000 A 
ATOM     12  C   UNL     1       3.690   3.267  18.761  0.00  0.00    +0.000 A 
ENDBRANCH   4   6
BRANCH   1  14
ATOM     13  N   UNL     1       5.789   3.899  13.859  0.00  0.00    +0.000 N 
ATOM     14  C   UNL     1       6.374   4.910  14.625  0.00  0.00    +0.000 C 
ATOM     15  O   UNL     1       7.530   5.294  14.456  0.00  0.00    +0.000 OA
ATOM     16  H   UNL     1       4.799   3.718  13.999  0.00  0.00    +0.000 HD
BRANCH  13  17
ATOM     17  N   UNL     1       6.471   3.327  12.766  0.00  0.00    +0.000 NA
ATOM     18  H   UNL     1       7.437   3.654  12.752  0.00  0.00    +0.000 HD
ATOM     19  H   UNL     1       6.035   3.693  11.908  0.00  0.00    +0.000 HD
ENDBRANCH  13  17
ENDBRANCH   1  14
TORSDOF 3
ENDMDL
MODEL 4
REMARK VINA RESULT:      -7.0      1.163      1.198
REMARK  Name = 
REMARK  3 active torsions:
REMARK  status: ('A' for Active; 'I' for Inactive)
REMARK    1  A    between atoms: N_1  and  N_2
REMARK    2  A    between atoms: C_3  and  C_5
REMARK    3  A    between atoms: C_8  and  C_9
REMARK                            x       y       z     vdW  Elec       q    Type
REMARK                         _______ _______ _______ _____ _____    ______ ____
ROOT
ATOM      1  C   UNL     1       5.513   5.474  15.748  0.00  0.00    +0.000 A 
ATOM      2  C   UNL     1       5.160   6.778  16.028  0.00  0.00    +0.000 A 
ATOM      3  C   UNL     1       4.331   6.743  17.171  0.00  0.00    +0.000 A 
ATOM      4  C   UNL     1       4.214   5.418  17.544  0.00  0.00    +0.000 A 
ATOM      5  O   UNL     1       4.917   4.639  16.665  0.00  0.00    +0.000 OA
ENDROOT
BRANCH   4   6
ATOM      6  C   UNL     1       3.554   4.739  18.660  0.00  0.00    +0.000 A 
ATOM      7  C   UNL     1       3.714   3.353  18.831  0.00  0.00    +0.000 A 
ATOM      8  C   UNL     1       3.039   2.666  19.845  0.00  0.00    +0.000 A 
ATOM      9  C   UNL     1       2.196   3.362  20.705  0.00  0.00    +0.000 A 
ATOM     10 CL   UNL     1       1.335   2.511  21.927  0.00  0.00    +0.000 Cl
ATOM     11  C   UNL     1       2.039   4.738  20.572  0.00  0.00    +0.000 A 
ATOM     12  C   UNL     1       2.717   5.422  19.555  0.00  0.00    +0.000 A 
ENDBRANCH   4   6
BRANCH   1  14
ATOM     13  N   UNL     1       5.750   3.965  13.926  0.00  0.00    +0.000 N 
ATOM     14  C   UNL     1       6.373   4.924  14.726  0.00  0.00    +0.000 C 
ATOM     15  O   UNL     1       7.553   5.245  14.588  0.00  0.00    +0.000 OA
ATOM     16  H   UNL     1       4.748   3.837  14.042  0.00  0.00    +0.000 HD
BRANCH  13  17
ATOM     17  N   UNL     1       6.422   3.377  12.835  0.00  0.00    +0.000 NA
ATOM     18  H   UNL     1       7.275   3.899  12.634  0.00  0.00    +0.000 HD
ATOM     19  H   UNL     1       5.819   3.490  12.008  0.00  0.00    +0.000 HD
ENDBRANCH  13  17
ENDBRANCH   1  14
TORSDOF 3
ENDMDL
MODEL 5
REMARK VINA RESULT:      -6.9      1.132      1.132
REMARK  Name = 
REMARK  3 active torsions:
REMARK  status: ('A' for Active; 'I' for Inactive)
REMARK    1  A    between atoms: N_1  and  N_2
REMARK    2  A    between atoms: C_3  and  C_5
REMARK    3  A    between atoms: C_8  and  C_9
REMARK                            x       y       z     vdW  Elec       q    Type
REMARK                         _______ _______ _______ _____ _____    ______ ____
ROOT
ATOM      1  C   UNL     1       6.694   5.003  16.502  0.00  0.00    +0.000 A 
ATOM      2  C   UNL     1       7.425   5.722  17.424  0.00  0.00    +0.000 A 
ATOM      3  C   UNL     1       6.738   5.630  18.655  0.00  0.00    +0.000 A 
ATOM      4  C   UNL     1       5.615   4.856  18.433  0.00  0.00    +0.000 A 
ATOM      5  O   UNL     1       5.575   4.489  17.115  0.00  0.00    +0.000 OA
ENDROOT
BRANCH   4   6
ATOM      6  C   UNL     1       4.551   4.350  19.301  0.00  0.00    +0.000 A 
ATOM      7  C   UNL     1       4.502   2.984  19.629  0.00  0.00    +0.000 A 
ATOM      8  C   UNL     1       3.457   2.461  20.397  0.00  0.00    +0.000 A 
ATOM      9  C   UNL     1       2.447   3.302  20.850  0.00  0.00    +0.000 A 
ATOM     10 CL   UNL     1       1.141   2.652  21.761  0.00  0.00    +0.000 Cl
ATOM     11  C   UNL     1       2.484   4.663  20.560  0.00  0.00    +0.000 A 
ATOM     12  C   UNL     1       3.533   5.183  19.791  0.00  0.00    +0.000 A 
ENDBRANCH   4   6
BRANCH   1  14
ATOM     13  N   UNL     1       7.835   5.612  14.506  0.00  0.00    +0.000 N 
ATOM     14  C   UNL     1       6.944   4.721  15.107  0.00  0.00    +0.000 C 
ATOM     15  O   UNL     1       6.402   3.801  14.494  0.00  0.00    +0.000 OA
ATOM     16  H   UNL     1       8.312   6.275  15.110  0.00  0.00    +0.000 HD
BRANCH  13  17
ATOM     17  N   UNL     1       8.246   5.442  13.168  0.00  0.00    +0.000 NA
ATOM     18  H   UNL     1       8.431   6.351  12.746  0.00  0.00    +0.000 HD
ATOM     19  H   UNL     1       7.448   5.046  12.652  0.00  0.00    +0.000 HD
ENDBRANCH  13  17
ENDBRANCH   1  14
TORSDOF 3
ENDMDL
MODEL 6
REMARK VINA RESULT:      -6.9      3.160      3.991
REMARK  Name = 
REMARK  3 active torsions:
REMARK  status: ('A' for Active; 'I' for Inactive)
REMARK    1  A    between atoms: N_1  and  N_2
REMARK    2  A    between atoms: C_3  and  C_5
REMARK    3  A    between atoms: C_8  and  C_9
REMARK                            x       y       z     vdW  Elec       q    Type
REMARK                         _______ _______ _______ _____ _____    ______ ____
ROOT
ATOM      1  C   UNL     1       5.380   4.885  16.785  0.00  0.00    +0.000 A 
ATOM      2  C   UNL     1       4.460   3.862  16.891  0.00  0.00    +0.000 A 
ATOM      3  C   UNL     1       3.325   4.395  17.540  0.00  0.00    +0.000 A 
ATOM      4  C   UNL     1       3.598   5.724  17.803  0.00  0.00    +0.000 A 
ATOM      5  O   UNL     1       4.860   6.020  17.362  0.00  0.00    +0.000 OA
ENDROOT
BRANCH   4   6
ATOM      6  C   UNL     1       2.821   6.817  18.389  0.00  0.00    +0.000 A 
ATOM      7  C   UNL     1       2.538   7.964  17.627  0.00  0.00    +0.000 A 
ATOM      8  C   UNL     1       1.860   9.053  18.183  0.00  0.00    +0.000 A 
ATOM      9  C   UNL     1       1.452   9.005  19.512  0.00  0.00    +0.000 A 
ATOM     10 CL   UNL     1       0.652  10.360  20.208  0.00  0.00    +0.000 Cl
ATOM     11  C   UNL     1       1.697   7.872  20.281  0.00  0.00    +0.000 A 
ATOM     12  C   UNL     1       2.377   6.782  19.720  0.00  0.00    +0.000 A 
ENDBRANCH   4   6
BRANCH   1  14
ATOM     13  N   UNL     1       6.678   5.345  14.846  0.00  0.00    +0.000 N 
ATOM     14  C   UNL     1       6.690   4.922  16.177  0.00  0.00    +0.000 C 
ATOM     15  O   UNL     1       7.719   4.585  16.762  0.00  0.00    +0.000 OA
ATOM     16  H   UNL     1       5.800   5.702  14.476  0.00  0.00    +0.000 HD
BRANCH  13  17
ATOM     17  N   UNL     1       7.876   5.508  14.122  0.00  0.00    +0.000 NA
ATOM     18  H   UNL     1       7.865   6.403  13.634  0.00  0.00    +0.000 HD
ATOM     19  H   UNL     1       7.890   4.786  13.389  0.00  0.00    +0.000 HD
ENDBRANCH  13  17
ENDBRANCH   1  14
TORSDOF 3
ENDMDL
MODEL 7
REMARK VINA RESULT:      -6.9      1.037      1.068
REMARK  Name = 
REMARK  3 active torsions:
REMARK  status: ('A' for Active; 'I' for Inactive)
REMARK    1  A    between atoms: N_1  and  N_2
REMARK    2  A    between atoms: C_3  and  C_5
REMARK    3  A    between atoms: C_8  and  C_9
REMARK                            x       y       z     vdW  Elec       q    Type
REMARK                         _______ _______ _______ _____ _____    ______ ____
ROOT
ATOM      1  C   UNL     1       6.692   4.571  15.650  0.00  0.00    +0.000 A 
ATOM      2  C   UNL     1       7.598   4.809  16.663  0.00  0.00    +0.000 A 
ATOM      3  C   UNL     1       6.887   4.717  17.880  0.00  0.00    +0.000 A 
ATOM      4  C   UNL     1       5.575   4.423  17.559  0.00  0.00    +0.000 A 
ATOM      5  O   UNL     1       5.449   4.354  16.198  0.00  0.00    +0.000 OA
ENDROOT
BRANCH   4   6
ATOM      6  C   UNL     1       4.379   4.147  18.357  0.00  0.00    +0.000 A 
ATOM      7  C   UNL     1       4.451   3.260  19.444  0.00  0.00    +0.000 A 
ATOM      8  C   UNL     1       3.310   2.922  20.179  0.00  0.00    +0.000 A 
ATOM      9  C   UNL     1       2.080   3.473  19.834  0.00  0.00    +0.000 A 
ATOM     10 CL   UNL     1       0.670   3.027  20.712  0.00  0.00    +0.000 Cl
ATOM     11  C   UNL     1       1.987   4.373  18.777  0.00  0.00    +0.000 A 
ATOM     12  C   UNL     1       3.132   4.709  18.044  0.00  0.00    +0.000 A 
ENDBRANCH   4   6
BRANCH   1  14
ATOM     13  N   UNL     1       6.299   3.361  13.640  0.00  0.00    +0.000 N 
ATOM     14  C   UNL     1       6.870   4.497  14.218  0.00  0.00    +0.000 C 
ATOM     15  O   UNL     1       7.491   5.338  13.568  0.00  0.00    +0.000 OA
ATOM     16  H   UNL     1       5.719   2.776  14.234  0.00  0.00    +0.000 HD
BRANCH  13  17
ATOM     17  N   UNL     1       6.317   3.167  12.244  0.00  0.00    +0.000 NA
ATOM     18  H   UNL     1       6.765   3.962  11.790  0.00  0.00    +0.000 HD
ATOM     19  H   UNL     1       5.339   3.170  11.923  0.00  0.00    +0.000 HD
ENDBRANCH  13  17
ENDBRANCH   1  14
TORSDOF 3
ENDMDL
MODEL 8
REMARK VINA RESULT:      -6.8      1.505      2.005
REMARK  Name = 
REMARK  3 active torsions:
REMARK  status: ('A' for Active; 'I' for Inactive)
REMARK    1  A    between atoms: N_1  and  N_2
REMARK    2  A    between atoms: C_3  and  C_5
REMARK    3  A    between atoms: C_8  and  C_9
REMARK                            x       y       z     vdW  Elec       q    Type
REMARK                         _______ _______ _______ _____ _____    ______ ____
ROOT
ATOM      1  C   UNL     1       5.727   5.532  16.514  0.00  0.00    +0.000 A 
ATOM      2  C   UNL     1       5.020   6.716  16.543  0.00  0.00    +0.000 A 
ATOM      3  C   UNL     1       3.962   6.540  17.462  0.00  0.00    +0.000 A 
ATOM      4  C   UNL     1       4.068   5.255  17.958  0.00  0.00    +0.000 A 
ATOM      5  O   UNL     1       5.133   4.630  17.366  0.00  0.00    +0.000 OA
ENDROOT
BRANCH   4   6
ATOM      6  C   UNL     1       3.327   4.499  18.969  0.00  0.00    +0.000 A 
ATOM      7  C   UNL     1       2.088   4.974  19.432  0.00  0.00    +0.000 A 
ATOM      8  C   UNL     1       1.393   4.311  20.449  0.00  0.00    +0.000 A 
ATOM      9  C   UNL     1       1.930   3.158  21.012  0.00  0.00    +0.000 A 
ATOM     10 CL   UNL     1       1.094   2.364  22.289  0.00  0.00    +0.000 Cl
ATOM     11  C   UNL     1       3.143   2.653  20.555  0.00  0.00    +0.000 A 
ATOM     12  C   UNL     1       3.837   3.321  19.537  0.00  0.00    +0.000 A 
ENDBRANCH   4   6
BRANCH   1  14
ATOM     13  N   UNL     1       6.913   5.556  14.452  0.00  0.00    +0.000 N 
ATOM     14  C   UNL     1       6.921   5.159  15.791  0.00  0.00    +0.000 C 
ATOM     15  O   UNL     1       7.849   4.526  16.294  0.00  0.00    +0.000 OA
ATOM     16  H   UNL     1       6.155   6.163  14.149  0.00  0.00    +0.000 HD
BRANCH  13  17
ATOM     17  N   UNL     1       8.029   5.337  13.619  0.00  0.00    +0.000 NA
ATOM     18  H   UNL     1       8.561   6.201  13.522  0.00  0.00    +0.000 HD
ATOM     19  H   UNL     1       7.670   5.118  12.680  0.00  0.00    +0.000 HD
ENDBRANCH  13  17
ENDBRANCH   1  14
TORSDOF 3
ENDMDL
MODEL 9
REMARK VINA RESULT:      -6.8      4.157      5.266
REMARK  Name = 
REMARK  3 active torsions:
REMARK  status: ('A' for Active; 'I' for Inactive)
REMARK    1  A    between atoms: N_1  and  N_2
REMARK    2  A    between atoms: C_3  and  C_5
REMARK    3  A    between atoms: C_8  and  C_9
REMARK                            x       y       z     vdW  Elec       q    Type
REMARK                         _______ _______ _______ _____ _____    ______ ____
ROOT
ATOM      1  C   UNL     1       4.062   4.498  17.995  0.00  0.00    +0.000 A 
ATOM      2  C   UNL     1       4.812   5.238  17.106  0.00  0.00    +0.000 A 
ATOM      3  C   UNL     1       4.313   6.559  17.146  0.00  0.00    +0.000 A 
ATOM      4  C   UNL     1       3.279   6.571  18.062  0.00  0.00    +0.000 A 
ATOM      5  O   UNL     1       3.110   5.309  18.567  0.00  0.00    +0.000 OA
ENDROOT
BRANCH   4   6
ATOM      6  C   UNL     1       2.413   7.625  18.593  0.00  0.00    +0.000 A 
ATOM      7  C   UNL     1       2.026   8.696  17.769  0.00  0.00    +0.000 A 
ATOM      8  C   UNL     1       1.260   9.753  18.269  0.00  0.00    +0.000 A 
ATOM      9  C   UNL     1       0.867   9.749  19.603  0.00  0.00    +0.000 A 
ATOM     10 CL   UNL     1      -0.042  11.068  20.229  0.00  0.00    +0.000 Cl
ATOM     11  C   UNL     1       1.216   8.689  20.434  0.00  0.00    +0.000 A 
ATOM     12  C   UNL     1       1.984   7.631  19.929  0.00  0.00    +0.000 A 
ENDBRANCH   4   6
BRANCH   1  14
ATOM     13  N   UNL     1       5.004   2.896  19.480  0.00  0.00    +0.000 N 
ATOM     14  C   UNL     1       4.157   3.111  18.391  0.00  0.00    +0.000 C 
ATOM     15  O   UNL     1       3.572   2.199  17.808  0.00  0.00    +0.000 OA
ATOM     16  H   UNL     1       5.363   3.715  19.963  0.00  0.00    +0.000 HD
BRANCH  13  17
ATOM     17  N   UNL     1       5.157   1.612  20.042  0.00  0.00    +0.000 NA
ATOM     18  H   UNL     1       5.606   1.687  20.954  0.00  0.00    +0.000 HD
ATOM     19  H   UNL     1       5.815   1.093  19.443  0.00  0.00    +0.000 HD
ENDBRANCH  13  17
ENDBRANCH   1  14
TORSDOF 3
ENDMDL
