MODEL 1
REMARK VINA RESULT:      -9.1      0.000      0.000
REMARK  Name = 
REMARK  5 active torsions:
REMARK  status: ('A' for Active; 'I' for Inactive)
REMARK    1  A    between atoms: C_1  and  C_2
REMARK    2  A    between atoms: C_7  and  N_8
REMARK    3  A    between atoms: C_9  and  C_11
REMARK    4  A    between atoms: C_12  and  N_13
REMARK    5  A    between atoms: C_14  and  C_16
REMARK                            x       y       z     vdW  Elec       q    Type
REMARK                         _______ _______ _______ _____ _____    ______ ____
ROOT
ATOM      1  C   UNL     1       3.066   4.847  18.395  0.00  0.00    +0.000 A 
ATOM      2  C   UNL     1       3.507   3.869  17.492  0.00  0.00    +0.000 A 
ATOM      3  S   UNL     1       3.135   2.277  18.053  0.00  0.00    +0.000 S 
ATOM      4  C   UNL     1       2.600   2.861  19.509  0.00  0.00    +0.000 A 
ATOM      5  C   UNL     1       2.650   4.219  19.610  0.00  0.00    +0.000 A 
ATOM      6  C   UNL     1       2.171   4.666  20.946  0.00  0.00    +0.000 C 
ATOM      7  C   UNL     1       2.104   3.322  21.746  0.00  0.00    +0.000 C 
ATOM      8  C   UNL     1       2.051   2.174  20.697  0.00  0.00    +0.000 C 
ENDROOT
BRANCH   1  10
ATOM      9  N   UNL     1       2.159   6.973  18.977  0.00  0.00    +0.000 N 
ATOM     10  C   UNL     1       3.085   6.293  18.196  0.00  0.00    +0.000 C 
ATOM     11  O   UNL     1       3.922   6.803  17.460  0.00  0.00    +0.000 OA
ATOM     12  H   UNL     1       1.728   6.431  19.713  0.00  0.00    +0.000 HD
BRANCH   9  19
ATOM     13  C   UNL     1       0.886   8.247  21.316  0.00  0.00    +0.000 C 
ATOM     14  C   UNL     1       1.238   8.978  20.048  0.00  0.00    +0.000 A 
ATOM     15  C   UNL     1       0.949  10.357  19.994  0.00  0.00    +0.000 A 
ATOM     16  C   UNL     1       1.279  11.119  18.877  0.00  0.00    +0.000 A 
ATOM     17  C   UNL     1       1.918  10.519  17.803  0.00  0.00    +0.000 A 
ATOM     18  C   UNL     1       2.217   9.156  17.842  0.00  0.00    +0.000 A 
ATOM     19  C   UNL     1       1.887   8.365  18.953  0.00  0.00    +0.000 A 
ENDBRANCH   9  19
ENDBRANCH   1  10
BRANCH   2  20
ATOM     20  N   UNL     1       4.143   4.040  16.255  0.00  0.00    +0.000 N 
ATOM     21  C   UNL     1       5.520   4.146  16.088  0.00  0.00    +0.000 C 
ATOM     22  O   UNL     1       6.368   4.158  16.977  0.00  0.00    +0.000 OA
ATOM     23  H   UNL     1       3.554   4.302  15.473  0.00  0.00    +0.000 HD
BRANCH  21  24
ATOM     24  C   UNL     1       6.041   4.294  14.700  0.00  0.00    +0.000 A 
ATOM     25  C   UNL     1       7.173   5.108  14.522  0.00  0.00    +0.000 A 
ATOM     26  C   UNL     1       7.800   5.201  13.279  0.00  0.00    +0.000 A 
ATOM     27  C   UNL     1       7.294   4.481  12.199  0.00  0.00    +0.000 A 
ATOM     28  C   UNL     1       6.160   3.682  12.364  0.00  0.00    +0.000 A 
ATOM     29  C   UNL     1       5.528   3.586  13.612  0.00  0.00    +0.000 A 
ENDBRANCH  21  24
ENDBRANCH   2  20
TORSDOF 4
ENDMDL
MODEL 2
REMARK VINA RESULT:      -7.8      3.704      5.922
REMARK  Name = 
REMARK  5 active torsions:
REMARK  status: ('A' for Active; 'I' for Inactive)
REMARK    1  A    between atoms: C_1  and  C_2
REMARK    2  A    between atoms: C_7  and  N_8
REMARK    3  A    between atoms: C_9  and  C_11
REMARK    4  A    between atoms: C_12  and  N_13
REMARK    5  A    between atoms: C_14  and  C_16
REMARK                            x       y       z     vdW  Elec       q    Type
REMARK                         _______ _______ _______ _____ _____    ______ ____
ROOT
ATOM      1  C   UNL     1       0.250   9.568  19.847  0.00  0.00    +0.000 A 
ATOM      2  C   UNL     1       1.291   8.654  20.070  0.00  0.00    +0.000 A 
ATOM      3  S   UNL     1       1.453   8.280  21.750  0.00  0.00    +0.000 S 
ATOM      4  C   UNL     1       0.332   9.428  22.165  0.00  0.00    +0.000 A 
ATOM      5  C   UNL     1      -0.205  10.085  21.099  0.00  0.00    +0.000 A 
ATOM      6  C   UNL     1      -1.187  11.108  21.550  0.00  0.00    +0.000 C 
ATOM      7  C   UNL     1      -0.930  11.163  23.094  0.00  0.00    +0.000 C 
ATOM      8  C   UNL     1      -0.207   9.840  23.478  0.00  0.00    +0.000 C 
ENDROOT
BRANCH   1  10
ATOM      9  N   UNL     1      -1.649   9.984  18.468  0.00  0.00    +0.000 N 
ATOM     10  C   UNL     1      -0.263  10.009  18.553  0.00  0.00    +0.000 C 
ATOM     11  O   UNL     1       0.505  10.431  17.696  0.00  0.00    +0.000 OA
ATOM     12  H   UNL     1      -2.137   9.857  19.344  0.00  0.00    +0.000 HD
BRANCH   9  19
ATOM     13  C   UNL     1      -3.914  11.862  18.708  0.00  0.00    +0.000 C 
ATOM     14  C   UNL     1      -3.548  11.142  17.437  0.00  0.00    +0.000 A 
ATOM     15  C   UNL     1      -4.337  11.402  16.297  0.00  0.00    +0.000 A 
ATOM     16  C   UNL     1      -4.045  10.813  15.070  0.00  0.00    +0.000 A 
ATOM     17  C   UNL     1      -2.950   9.968  14.959  0.00  0.00    +0.000 A 
ATOM     18  C   UNL     1      -2.156   9.706  16.077  0.00  0.00    +0.000 A 
ATOM     19  C   UNL     1      -2.435  10.280  17.325  0.00  0.00    +0.000 A 
ENDBRANCH   9  19
ENDBRANCH   1  10
BRANCH   2  20
ATOM     20  N   UNL     1       2.129   8.033  19.135  0.00  0.00    +0.000 N 
ATOM     21  C   UNL     1       2.411   6.671  19.115  0.00  0.00    +0.000 C 
ATOM     22  O   UNL     1       2.023   5.829  19.922  0.00  0.00    +0.000 OA
ATOM     23  H   UNL     1       2.715   8.641  18.575  0.00  0.00    +0.000 HD
BRANCH  21  24
ATOM     24  C   UNL     1       3.300   6.162  18.033  0.00  0.00    +0.000 A 
ATOM     25  C   UNL     1       4.139   7.095  17.399  0.00  0.00    +0.000 A 
ATOM     26  C   UNL     1       5.091   6.684  16.466  0.00  0.00    +0.000 A 
ATOM     27  C   UNL     1       5.208   5.331  16.155  0.00  0.00    +0.000 A 
ATOM     28  C   UNL     1       4.368   4.399  16.769  0.00  0.00    +0.000 A 
ATOM     29  C   UNL     1       3.411   4.809  17.708  0.00  0.00    +0.000 A 
ENDBRANCH  21  24
ENDBRANCH   2  20
TORSDOF 4
ENDMDL
MODEL 3
REMARK VINA RESULT:      -7.6      5.622     10.367
REMARK  Name = 
REMARK  5 active torsions:
REMARK  status: ('A' for Active; 'I' for Inactive)
REMARK    1  A    between atoms: C_1  and  C_2
REMARK    2  A    between atoms: C_7  and  N_8
REMARK    3  A    between atoms: C_9  and  C_11
REMARK    4  A    between atoms: C_12  and  N_13
REMARK    5  A    between atoms: C_14  and  C_16
REMARK                            x       y       z     vdW  Elec       q    Type
REMARK                         _______ _______ _______ _____ _____    ______ ____
ROOT
ATOM      1  C   UNL     1       0.434  10.814  19.652  0.00  0.00    +0.000 A 
ATOM      2  C   UNL     1      -0.078  10.433  20.901  0.00  0.00    +0.000 A 
ATOM      3  S   UNL     1       0.584   8.923  21.422  0.00  0.00    +0.000 S 
ATOM      4  C   UNL     1       1.351   8.702  19.969  0.00  0.00    +0.000 A 
ATOM      5  C   UNL     1       1.171   9.726  19.089  0.00  0.00    +0.000 A 
ATOM      6  C   UNL     1       1.873   9.448  17.807  0.00  0.00    +0.000 C 
ATOM      7  C   UNL     1       2.263   7.939  17.956  0.00  0.00    +0.000 C 
ATOM      8  C   UNL     1       2.218   7.611  19.477  0.00  0.00    +0.000 C 
ENDROOT
BRANCH   1  10
ATOM      9  N   UNL     1       1.083  13.088  19.355  0.00  0.00    +0.000 N 
ATOM     10  C   UNL     1       0.209  12.082  18.964  0.00  0.00    +0.000 C 
ATOM     11  O   UNL     1      -0.631  12.161  18.076  0.00  0.00    +0.000 OA
ATOM     12  H   UNL     1       1.875  12.787  19.905  0.00  0.00    +0.000 HD
BRANCH   9  19
ATOM     13  C   UNL     1       3.563  14.316  18.326  0.00  0.00    +0.000 C 
ATOM     14  C   UNL     1       2.258  15.052  18.474  0.00  0.00    +0.000 A 
ATOM     15  C   UNL     1       2.230  16.406  18.081  0.00  0.00    +0.000 A 
ATOM     16  C   UNL     1       1.056  17.151  18.144  0.00  0.00    +0.000 A 
ATOM     17  C   UNL     1      -0.113  16.549  18.585  0.00  0.00    +0.000 A 
ATOM     18  C   UNL     1      -0.105  15.208  18.973  0.00  0.00    +0.000 A 
ATOM     19  C   UNL     1       1.068  14.440  18.926  0.00  0.00    +0.000 A 
ENDBRANCH   9  19
ENDBRANCH   1  10
BRANCH   2  20
ATOM     20  N   UNL     1      -0.981  11.118  21.725  0.00  0.00    +0.000 N 
ATOM     21  C   UNL     1      -0.728  12.355  22.310  0.00  0.00    +0.000 C 
ATOM     22  O   UNL     1       0.316  12.998  22.242  0.00  0.00    +0.000 OA
ATOM     23  H   UNL     1      -1.773  10.588  22.071  0.00  0.00    +0.000 HD
BRANCH  21  24
ATOM     24  C   UNL     1      -1.807  12.964  23.136  0.00  0.00    +0.000 A 
ATOM     25  C   UNL     1      -2.958  12.190  23.364  0.00  0.00    +0.000 A 
ATOM     26  C   UNL     1      -3.959  12.632  24.228  0.00  0.00    +0.000 A 
ATOM     27  C   UNL     1      -3.820  13.861  24.871  0.00  0.00    +0.000 A 
ATOM     28  C   UNL     1      -2.686  14.644  24.638  0.00  0.00    +0.000 A 
ATOM     29  C   UNL     1      -1.677  14.201  23.770  0.00  0.00    +0.000 A 
ENDBRANCH  21  24
ENDBRANCH   2  20
TORSDOF 4
ENDMDL
MODEL 4
REMARK VINA RESULT:      -7.6      5.974      9.529
REMARK  Name = 
REMARK  5 active torsions:
REMARK  status: ('A' for Active; 'I' for Inactive)
REMARK    1  A    between atoms: C_1  and  C_2
REMARK    2  A    between atoms: C_7  and  N_8
REMARK    3  A    between atoms: C_9  and  C_11
REMARK    4  A    between atoms: C_12  and  N_13
REMARK    5  A    between atoms: C_14  and  C_16
REMARK                            x       y       z     vdW  Elec       q    Type
REMARK                         _______ _______ _______ _____ _____    ______ ____
ROOT
ATOM      1  C   UNL     1      -0.391  13.604  22.319  0.00  0.00    +0.000 A 
ATOM      2  C   UNL     1      -0.717  12.241  22.243  0.00  0.00    +0.000 A 
ATOM      3  S   UNL     1      -2.197  11.898  23.066  0.00  0.00    +0.000 S 
ATOM      4  C   UNL     1      -2.285  13.445  23.657  0.00  0.00    +0.000 A 
ATOM      5  C   UNL     1      -1.264  14.250  23.249  0.00  0.00    +0.000 A 
ATOM      6  C   UNL     1      -1.401  15.611  23.831  0.00  0.00    +0.000 C 
ATOM      7  C   UNL     1      -2.522  15.406  24.906  0.00  0.00    +0.000 C 
ATOM      8  C   UNL     1      -3.287  14.108  24.517  0.00  0.00    +0.000 C 
ENDROOT
BRANCH   1  10
ATOM      9  N   UNL     1       0.426  14.595  20.311  0.00  0.00    +0.000 N 
ATOM     10  C   UNL     1       0.707  14.280  21.635  0.00  0.00    +0.000 C 
ATOM     11  O   UNL     1       1.720  14.589  22.250  0.00  0.00    +0.000 OA
ATOM     12  H   UNL     1      -0.543  14.502  20.038  0.00  0.00    +0.000 HD
BRANCH   9  19
ATOM     13  C   UNL     1       2.402  12.899  18.919  0.00  0.00    +0.000 C 
ATOM     14  C   UNL     1       2.291  14.389  18.732  0.00  0.00    +0.000 A 
ATOM     15  C   UNL     1       3.182  14.995  17.823  0.00  0.00    +0.000 A 
ATOM     16  C   UNL     1       3.123  16.361  17.558  0.00  0.00    +0.000 A 
ATOM     17  C   UNL     1       2.160  17.139  18.184  0.00  0.00    +0.000 A 
ATOM     18  C   UNL     1       1.266  16.553  19.081  0.00  0.00    +0.000 A 
ATOM     19  C   UNL     1       1.312  15.181  19.371  0.00  0.00    +0.000 A 
ENDBRANCH   9  19
ENDBRANCH   1  10
BRANCH   2  20
ATOM     20  N   UNL     1      -0.030  11.211  21.587  0.00  0.00    +0.000 N 
ATOM     21  C   UNL     1      -0.298  10.792  20.287  0.00  0.00    +0.000 C 
ATOM     22  O   UNL     1      -1.187  11.211  19.550  0.00  0.00    +0.000 OA
ATOM     23  H   UNL     1       0.550  10.612  22.163  0.00  0.00    +0.000 HD
BRANCH  21  24
ATOM     24  C   UNL     1       0.545   9.701  19.723  0.00  0.00    +0.000 A 
ATOM     25  C   UNL     1       0.851   9.767  18.352  0.00  0.00    +0.000 A 
ATOM     26  C   UNL     1       1.734   8.859  17.771  0.00  0.00    +0.000 A 
ATOM     27  C   UNL     1       2.319   7.869  18.558  0.00  0.00    +0.000 A 
ATOM     28  C   UNL     1       2.009   7.786  19.918  0.00  0.00    +0.000 A 
ATOM     29  C   UNL     1       1.121   8.698  20.506  0.00  0.00    +0.000 A 
ENDBRANCH  21  24
ENDBRANCH   2  20
TORSDOF 4
ENDMDL
MODEL 5
REMARK VINA RESULT:      -7.3      5.754      9.439
REMARK  Name = 
REMARK  5 active torsions:
REMARK  status: ('A' for Active; 'I' for Inactive)
REMARK    1  A    between atoms: C_1  and  C_2
REMARK    2  A    between atoms: C_7  and  N_8
REMARK    3  A    between atoms: C_9  and  C_11
REMARK    4  A    between atoms: C_12  and  N_13
REMARK    5  A    between atoms: C_14  and  C_16
REMARK                            x       y       z     vdW  Elec       q    Type
REMARK                         _______ _______ _______ _____ _____    ______ ____
ROOT
ATOM      1  C   UNL     1      -0.247  13.580  22.104  0.00  0.00    +0.000 A 
ATOM      2  C   UNL     1      -0.723  12.292  21.817  0.00  0.00    +0.000 A 
ATOM      3  S   UNL     1      -2.207  11.967  22.643  0.00  0.00    +0.000 S 
ATOM      4  C   UNL     1      -2.104  13.390  23.489  0.00  0.00    +0.000 A 
ATOM      5  C   UNL     1      -1.014  14.143  23.171  0.00  0.00    +0.000 A 
ATOM      6  C   UNL     1      -0.982  15.391  23.980  0.00  0.00    +0.000 C 
ATOM      7  C   UNL     1      -2.084  15.121  25.059  0.00  0.00    +0.000 C 
ATOM      8  C   UNL     1      -2.999  13.995  24.497  0.00  0.00    +0.000 C 
ENDROOT
BRANCH   1  10
ATOM      9  N   UNL     1       0.730  14.499  20.134  0.00  0.00    +0.000 N 
ATOM     10  C   UNL     1       0.897  14.247  21.489  0.00  0.00    +0.000 C 
ATOM     11  O   UNL     1       1.847  14.601  22.177  0.00  0.00    +0.000 OA
ATOM     12  H   UNL     1      -0.210  14.377  19.781  0.00  0.00    +0.000 HD
BRANCH   9  19
ATOM     13  C   UNL     1       0.383  17.275  19.190  0.00  0.00    +0.000 C 
ATOM     14  C   UNL     1       1.507  16.373  18.757  0.00  0.00    +0.000 A 
ATOM     15  C   UNL     1       2.452  16.904  17.855  0.00  0.00    +0.000 A 
ATOM     16  C   UNL     1       3.548  16.155  17.434  0.00  0.00    +0.000 A 
ATOM     17  C   UNL     1       3.724  14.868  17.920  0.00  0.00    +0.000 A 
ATOM     18  C   UNL     1       2.801  14.329  18.818  0.00  0.00    +0.000 A 
ATOM     19  C   UNL     1       1.686  15.061  19.250  0.00  0.00    +0.000 A 
ENDBRANCH   9  19
ENDBRANCH   1  10
BRANCH   2  20
ATOM     20  N   UNL     1      -0.176  11.325  20.964  0.00  0.00    +0.000 N 
ATOM     21  C   UNL     1       0.615  10.262  21.387  0.00  0.00    +0.000 C 
ATOM     22  O   UNL     1       0.992  10.040  22.536  0.00  0.00    +0.000 OA
ATOM     23  H   UNL     1      -0.193  11.531  19.972  0.00  0.00    +0.000 HD
BRANCH  21  24
ATOM     24  C   UNL     1       1.096   9.301  20.355  0.00  0.00    +0.000 A 
ATOM     25  C   UNL     1       1.134   9.752  19.024  0.00  0.00    +0.000 A 
ATOM     26  C   UNL     1       1.687   8.963  18.016  0.00  0.00    +0.000 A 
ATOM     27  C   UNL     1       2.204   7.708  18.331  0.00  0.00    +0.000 A 
ATOM     28  C   UNL     1       2.156   7.246  19.649  0.00  0.00    +0.000 A 
ATOM     29  C   UNL     1       1.601   8.037  20.665  0.00  0.00    +0.000 A 
ENDBRANCH  21  24
ENDBRANCH   2  20
TORSDOF 4
ENDMDL
MODEL 6
REMARK VINA RESULT:      -7.3      8.156     10.968
REMARK  Name = 
REMARK  5 active torsions:
REMARK  status: ('A' for Active; 'I' for Inactive)
REMARK    1  A    between atoms: C_1  and  C_2
REMARK    2  A    between atoms: C_7  and  N_8
REMARK    3  A    between atoms: C_9  and  C_11
REMARK    4  A    between atoms: C_12  and  N_13
REMARK    5  A    between atoms: C_14  and  C_16
REMARK                            x       y       z     vdW  Elec       q    Type
REMARK                         _______ _______ _______ _____ _____    ______ ____
ROOT
ATOM      1  C   UNL     1      -1.111  12.539  21.309  0.00  0.00    +0.000 A 
ATOM      2  C   UNL     1      -0.240  12.846  20.253  0.00  0.00    +0.000 A 
ATOM      3  S   UNL     1       0.873  11.557  19.956  0.00  0.00    +0.000 S 
ATOM      4  C   UNL     1       0.348  10.730  21.293  0.00  0.00    +0.000 A 
ATOM      5  C   UNL     1      -0.662  11.351  21.965  0.00  0.00    +0.000 A 
ATOM      6  C   UNL     1      -1.067  10.559  23.157  0.00  0.00    +0.000 C 
ATOM      7  C   UNL     1       0.079   9.496  23.260  0.00  0.00    +0.000 C 
ATOM      8  C   UNL     1       0.758   9.429  21.862  0.00  0.00    +0.000 C 
ENDROOT
BRANCH   1  10
ATOM      9  N   UNL     1      -3.426  12.580  21.873  0.00  0.00    +0.000 N 
ATOM     10  C   UNL     1      -2.259  13.324  21.751  0.00  0.00    +0.000 C 
ATOM     11  O   UNL     1      -2.121  14.504  22.051  0.00  0.00    +0.000 OA
ATOM     12  H   UNL     1      -3.308  11.577  21.837  0.00  0.00    +0.000 HD
BRANCH   9  19
ATOM     13  C   UNL     1      -4.347  12.454  24.675  0.00  0.00    +0.000 C 
ATOM     14  C   UNL     1      -5.184  12.974  23.537  0.00  0.00    +0.000 A 
ATOM     15  C   UNL     1      -6.479  13.438  23.845  0.00  0.00    +0.000 A 
ATOM     16  C   UNL     1      -7.306  13.974  22.861  0.00  0.00    +0.000 A 
ATOM     17  C   UNL     1      -6.844  14.070  21.557  0.00  0.00    +0.000 A 
ATOM     18  C   UNL     1      -5.562  13.621  21.236  0.00  0.00    +0.000 A 
ATOM     19  C   UNL     1      -4.714  13.069  22.208  0.00  0.00    +0.000 A 
ENDBRANCH   9  19
ENDBRANCH   1  10
BRANCH   2  20
ATOM     20  N   UNL     1      -0.204  13.995  19.451  0.00  0.00    +0.000 N 
ATOM     21  C   UNL     1       0.657  15.068  19.655  0.00  0.00    +0.000 C 
ATOM     22  O   UNL     1       1.461  15.199  20.574  0.00  0.00    +0.000 OA
ATOM     23  H   UNL     1      -0.983  14.131  18.817  0.00  0.00    +0.000 HD
BRANCH  21  24
ATOM     24  C   UNL     1       0.590  16.203  18.692  0.00  0.00    +0.000 A 
ATOM     25  C   UNL     1      -0.669  16.795  18.482  0.00  0.00    +0.000 A 
ATOM     26  C   UNL     1      -0.799  17.939  17.696  0.00  0.00    +0.000 A 
ATOM     27  C   UNL     1       0.332  18.502  17.107  0.00  0.00    +0.000 A 
ATOM     28  C   UNL     1       1.583  17.911  17.298  0.00  0.00    +0.000 A 
ATOM     29  C   UNL     1       1.718  16.761  18.089  0.00  0.00    +0.000 A 
ENDBRANCH  21  24
ENDBRANCH   2  20
TORSDOF 4
ENDMDL
MODEL 7
REMARK VINA RESULT:      -7.3      6.747     11.195
REMARK  Name = 
REMARK  5 active torsions:
REMARK  status: ('A' for Active; 'I' for Inactive)
REMARK    1  A    between atoms: C_1  and  C_2
REMARK    2  A    between atoms: C_7  and  N_8
REMARK    3  A    between atoms: C_9  and  C_11
REMARK    4  A    between atoms: C_12  and  N_13
REMARK    5  A    between atoms: C_14  and  C_16
REMARK                            x       y       z     vdW  Elec       q    Type
REMARK                         _______ _______ _______ _____ _____    ______ ____
ROOT
ATOM      1  C   UNL     1      -1.417  13.658  21.409  0.00  0.00    +0.000 A 
ATOM      2  C   UNL     1      -1.807  14.937  20.982  0.00  0.00    +0.000 A 
ATOM      3  S   UNL     1      -3.009  15.612  22.024  0.00  0.00    +0.000 S 
ATOM      4  C   UNL     1      -3.140  14.194  22.873  0.00  0.00    +0.000 A 
ATOM      5  C   UNL     1      -2.299  13.213  22.442  0.00  0.00    +0.000 A 
ATOM      6  C   UNL     1      -2.486  11.970  23.237  0.00  0.00    +0.000 C 
ATOM      7  C   UNL     1      -3.801  12.274  24.032  0.00  0.00    +0.000 C 
ATOM      8  C   UNL     1      -3.982  13.820  24.029  0.00  0.00    +0.000 C 
ENDROOT
BRANCH   1  10
ATOM      9  N   UNL     1      -0.744  11.578  20.459  0.00  0.00    +0.000 N 
ATOM     10  C   UNL     1      -0.337  12.845  20.859  0.00  0.00    +0.000 C 
ATOM     11  O   UNL     1       0.782  13.323  20.711  0.00  0.00    +0.000 OA
ATOM     12  H   UNL     1      -1.744  11.437  20.412  0.00  0.00    +0.000 HD
BRANCH   9  19
ATOM     13  C   UNL     1       0.095   9.394  22.260  0.00  0.00    +0.000 C 
ATOM     14  C   UNL     1       0.526   9.512  20.822  0.00  0.00    +0.000 A 
ATOM     15  C   UNL     1       1.371   8.504  20.315  0.00  0.00    +0.000 A 
ATOM     16  C   UNL     1       1.784   8.511  18.985  0.00  0.00    +0.000 A 
ATOM     17  C   UNL     1       1.346   9.518  18.138  0.00  0.00    +0.000 A 
ATOM     18  C   UNL     1       0.504  10.520  18.622  0.00  0.00    +0.000 A 
ATOM     19  C   UNL     1       0.081  10.539  19.959  0.00  0.00    +0.000 A 
ENDBRANCH   9  19
ENDBRANCH   1  10
BRANCH   2  20
ATOM     20  N   UNL     1      -1.331  15.681  19.894  0.00  0.00    +0.000 N 
ATOM     21  C   UNL     1      -0.353  16.666  19.984  0.00  0.00    +0.000 C 
ATOM     22  O   UNL     1       0.194  17.065  21.009  0.00  0.00    +0.000 OA
ATOM     23  H   UNL     1      -1.875  15.636  19.040  0.00  0.00    +0.000 HD
BRANCH  21  24
ATOM     24  C   UNL     1       0.064  17.346  18.725  0.00  0.00    +0.000 A 
ATOM     25  C   UNL     1       1.395  17.169  18.309  0.00  0.00    +0.000 A 
ATOM     26  C   UNL     1       1.834  17.664  17.082  0.00  0.00    +0.000 A 
ATOM     27  C   UNL     1       0.942  18.348  16.258  0.00  0.00    +0.000 A 
ATOM     28  C   UNL     1      -0.379  18.542  16.671  0.00  0.00    +0.000 A 
ATOM     29  C   UNL     1      -0.823  18.044  17.905  0.00  0.00    +0.000 A 
ENDBRANCH  21  24
ENDBRANCH   2  20
TORSDOF 4
ENDMDL
MODEL 8
REMARK VINA RESULT:      -7.2      5.427      9.182
REMARK  Name = 
REMARK  5 active torsions:
REMARK  status: ('A' for Active; 'I' for Inactive)
REMARK    1  A    between atoms: C_1  and  C_2
REMARK    2  A    between atoms: C_7  and  N_8
REMARK    3  A    between atoms: C_9  and  C_11
REMARK    4  A    between atoms: C_12  and  N_13
REMARK    5  A    between atoms: C_14  and  C_16
REMARK                            x       y       z     vdW  Elec       q    Type
REMARK                         _______ _______ _______ _____ _____    ______ ____
ROOT
ATOM      1  C   UNL     1      -0.668  13.230  21.024  0.00  0.00    +0.000 A 
ATOM      2  C   UNL     1      -0.423  11.928  21.486  0.00  0.00    +0.000 A 
ATOM      3  S   UNL     1      -1.364  11.568  22.891  0.00  0.00    +0.000 S 
ATOM      4  C   UNL     1      -1.909  13.130  22.986  0.00  0.00    +0.000 A 
ATOM      5  C   UNL     1      -1.448  13.937  21.991  0.00  0.00    +0.000 A 
ATOM      6  C   UNL     1      -1.965  15.323  22.153  0.00  0.00    +0.000 C 
ATOM      7  C   UNL     1      -2.580  15.286  23.592  0.00  0.00    +0.000 C 
ATOM      8  C   UNL     1      -2.828  13.789  23.938  0.00  0.00    +0.000 C 
ENDROOT
BRANCH   1  10
ATOM      9  N   UNL     1       0.927  14.673  19.997  0.00  0.00    +0.000 N 
ATOM     10  C   UNL     1      -0.160  13.831  19.795  0.00  0.00    +0.000 C 
ATOM     11  O   UNL     1      -0.636  13.515  18.711  0.00  0.00    +0.000 OA
ATOM     12  H   UNL     1       1.353  14.621  20.912  0.00  0.00    +0.000 HD
BRANCH   9  19
ATOM     13  C   UNL     1      -0.126  17.346  19.316  0.00  0.00    +0.000 C 
ATOM     14  C   UNL     1       1.069  16.717  18.649  0.00  0.00    +0.000 A 
ATOM     15  C   UNL     1       1.723  17.467  17.651  0.00  0.00    +0.000 A 
ATOM     16  C   UNL     1       2.861  16.981  17.012  0.00  0.00    +0.000 A 
ATOM     17  C   UNL     1       3.372  15.743  17.374  0.00  0.00    +0.000 A 
ATOM     18  C   UNL     1       2.740  14.990  18.365  0.00  0.00    +0.000 A 
ATOM     19  C   UNL     1       1.588  15.455  19.016  0.00  0.00    +0.000 A 
ENDBRANCH   9  19
ENDBRANCH   1  10
BRANCH   2  20
ATOM     20  N   UNL     1       0.422  10.949  20.945  0.00  0.00    +0.000 N 
ATOM     21  C   UNL     1       0.116  10.179  19.828  0.00  0.00    +0.000 C 
ATOM     22  O   UNL     1      -0.933  10.197  19.189  0.00  0.00    +0.000 OA
ATOM     23  H   UNL     1       1.202  10.653  21.520  0.00  0.00    +0.000 HD
BRANCH  21  24
ATOM     24  C   UNL     1       1.138   9.200  19.360  0.00  0.00    +0.000 A 
ATOM     25  C   UNL     1       1.454   8.138  20.225  0.00  0.00    +0.000 A 
ATOM     26  C   UNL     1       2.303   7.110  19.816  0.00  0.00    +0.000 A 
ATOM     27  C   UNL     1       2.849   7.139  18.534  0.00  0.00    +0.000 A 
ATOM     28  C   UNL     1       2.552   8.199  17.674  0.00  0.00    +0.000 A 
ATOM     29  C   UNL     1       1.698   9.234  18.082  0.00  0.00    +0.000 A 
ENDBRANCH  21  24
ENDBRANCH   2  20
TORSDOF 4
ENDMDL
MODEL 9
REMARK VINA RESULT:      -7.2      8.412     12.410
REMARK  Name = 
REMARK  5 active torsions:
REMARK  status: ('A' for Active; 'I' for Inactive)
REMARK    1  A    between atoms: C_1  and  C_2
REMARK    2  A    between atoms: C_7  and  N_8
REMARK    3  A    between atoms: C_9  and  C_11
REMARK    4  A    between atoms: C_12  and  N_13
REMARK    5  A    between atoms: C_14  and  C_16
REMARK                            x       y       z     vdW  Elec       q    Type
REMARK                         _______ _______ _______ _____ _____    ______ ____
ROOT
ATOM      1  C   UNL     1      -4.574  14.169  23.137  0.00  0.00    +0.000 A 
ATOM      2  C   UNL     1      -3.332  13.806  23.679  0.00  0.00    +0.000 A 
ATOM      3  S   UNL     1      -2.845  14.898  24.928  0.00  0.00    +0.000 S 
ATOM      4  C   UNL     1      -4.125  15.904  24.616  0.00  0.00    +0.000 A 
ATOM      5  C   UNL     1      -4.947  15.459  23.625  0.00  0.00    +0.000 A 
ATOM      6  C   UNL     1      -6.058  16.420  23.392  0.00  0.00    +0.000 C 
ATOM      7  C   UNL     1      -5.598  17.673  24.211  0.00  0.00    +0.000 C 
ATOM      8  C   UNL     1      -4.545  17.175  25.243  0.00  0.00    +0.000 C 
ENDROOT
BRANCH   1  10
ATOM      9  N   UNL     1      -5.130  13.798  20.849  0.00  0.00    +0.000 N 
ATOM     10  C   UNL     1      -5.357  13.413  22.164  0.00  0.00    +0.000 C 
ATOM     11  O   UNL     1      -6.064  12.482  22.532  0.00  0.00    +0.000 OA
ATOM     12  H   UNL     1      -4.331  14.399  20.703  0.00  0.00    +0.000 HD
BRANCH   9  19
ATOM     13  C   UNL     1      -3.739  11.885  19.082  0.00  0.00    +0.000 C 
ATOM     14  C   UNL     1      -5.119  12.425  18.817  0.00  0.00    +0.000 A 
ATOM     15  C   UNL     1      -5.780  11.971  17.658  0.00  0.00    +0.000 A 
ATOM     16  C   UNL     1      -7.075  12.386  17.357  0.00  0.00    +0.000 A 
ATOM     17  C   UNL     1      -7.735  13.249  18.219  0.00  0.00    +0.000 A 
ATOM     18  C   UNL     1      -7.096  13.704  19.374  0.00  0.00    +0.000 A 
ATOM     19  C   UNL     1      -5.790  13.306  19.694  0.00  0.00    +0.000 A 
ENDBRANCH   9  19
ENDBRANCH   1  10
BRANCH   2  20
ATOM     20  N   UNL     1      -2.520  12.711  23.357  0.00  0.00    +0.000 N 
ATOM     21  C   UNL     1      -1.779  12.600  22.185  0.00  0.00    +0.000 C 
ATOM     22  O   UNL     1      -1.760  13.398  21.251  0.00  0.00    +0.000 OA
ATOM     23  H   UNL     1      -2.643  11.874  23.916  0.00  0.00    +0.000 HD
BRANCH  21  24
ATOM     24  C   UNL     1      -0.940  11.381  22.007  0.00  0.00    +0.000 A 
ATOM     25  C   UNL     1      -0.808  10.524  23.115  0.00  0.00    +0.000 A 
ATOM     26  C   UNL     1      -0.148   9.302  22.999  0.00  0.00    +0.000 A 
ATOM     27  C   UNL     1       0.393   8.926  21.771  0.00  0.00    +0.000 A 
ATOM     28  C   UNL     1       0.279   9.778  20.669  0.00  0.00    +0.000 A 
ATOM     29  C   UNL     1      -0.385  11.008  20.782  0.00  0.00    +0.000 A 
ENDBRANCH  21  24
ENDBRANCH   2  20
TORSDOF 4
ENDMDL
