MODEL 1
REMARK VINA RESULT:      -6.2      0.000      0.000
REMARK  Name = 
REMARK  8 active torsions:
REMARK  status: ('A' for Active; 'I' for Inactive)
REMARK    1  A    between atoms: C_1  and  O_2
REMARK    2  A    between atoms: O_2  and  C_3
REMARK    3  A    between atoms: C_6  and  C_7
REMARK    4  A    between atoms: C_7  and  N_8
REMARK    5  A    between atoms: N_8  and  C_9
REMARK    6  A    between atoms: C_9  and  C_10
REMARK    7  A    between atoms: C_9  and  C_11
REMARK    8  A    between atoms: C_9  and  C_12
REMARK                            x       y       z     vdW  Elec       q    Type
REMARK                         _______ _______ _______ _____ _____    ______ ____
ROOT
ATOM      1  C   UNL     1       6.361   5.869  17.061  0.00  0.00    +0.000 A 
ATOM      2  C   UNL     1       5.871   5.873  18.370  0.00  0.00    +0.000 A 
ATOM      3  C   UNL     1       4.955   4.919  18.801  0.00  0.00    +0.000 A 
ATOM      4  C   UNL     1       4.489   3.928  17.928  0.00  0.00    +0.000 A 
ATOM      5  C   UNL     1       4.960   3.913  16.605  0.00  0.00    +0.000 A 
ATOM      6  C   UNL     1       5.897   4.864  16.161  0.00  0.00    +0.000 A 
ATOM      7 CL   UNL     1       6.416   4.721  14.484  0.00  0.00    +0.000 Cl
ENDROOT
BRANCH   1   9
ATOM      8  C   UNL     1       7.717   7.885  17.544  0.00  0.00    +0.000 C 
ATOM      9  O   UNL     1       7.260   6.849  16.764  0.00  0.00    +0.000 OA
ENDBRANCH   1   9
BRANCH   4  10
ATOM     10  C   UNL     1       3.459   2.941  18.432  0.00  0.00    +0.000 C 
BRANCH  10  11
ATOM     11  N   UNL     1       3.235   3.027  19.890  0.00  0.00    +0.000 NA
ATOM     12  H   UNL     1       3.872   3.758  20.286  0.00  0.00    +0.000 HD
BRANCH  11  13
ATOM     13  C   UNL     1       1.833   3.321  20.297  0.00  0.00    +0.000 C 
ATOM     14  C   UNL     1       0.815   2.799  19.256  0.00  0.00    +0.000 C 
ATOM     15  C   UNL     1       1.554   2.595  21.628  0.00  0.00    +0.000 C 
ATOM     16  C   UNL     1       1.611   4.835  20.522  0.00  0.00    +0.000 C 
ENDBRANCH  11  13
ENDBRANCH  10  11
ENDBRANCH   4  10
TORSDOF 4
ENDMDL
MODEL 2
REMARK VINA RESULT:      -6.2      1.631      2.192
REMARK  Name = 
REMARK  8 active torsions:
REMARK  status: ('A' for Active; 'I' for Inactive)
REMARK    1  A    between atoms: C_1  and  O_2
REMARK    2  A    between atoms: O_2  and  C_3
REMARK    3  A    between atoms: C_6  and  C_7
REMARK    4  A    between atoms: C_7  and  N_8
REMARK    5  A    between atoms: N_8  and  C_9
REMARK    6  A    between atoms: C_9  and  C_10
REMARK    7  A    between atoms: C_9  and  C_11
REMARK    8  A    between atoms: C_9  and  C_12
REMARK                            x       y       z     vdW  Elec       q    Type
REMARK                         _______ _______ _______ _____ _____    ______ ____
ROOT
ATOM      1  C   UNL     1       6.520   6.537  17.415  0.00  0.00    +0.000 A 
ATOM      2  C   UNL     1       5.365   6.432  16.635  0.00  0.00    +0.000 A 
ATOM      3  C   UNL     1       4.369   5.511  16.939  0.00  0.00    +0.000 A 
ATOM      4  C   UNL     1       4.499   4.652  18.037  0.00  0.00    +0.000 A 
ATOM      5  C   UNL     1       5.657   4.732  18.828  0.00  0.00    +0.000 A 
ATOM      6  C   UNL     1       6.666   5.669  18.538  0.00  0.00    +0.000 A 
ATOM      7 CL   UNL     1       8.057   5.674  19.619  0.00  0.00    +0.000 Cl
ENDROOT
BRANCH   1   9
ATOM      8  C   UNL     1       7.856   8.605  17.681  0.00  0.00    +0.000 C 
ATOM      9  O   UNL     1       7.418   7.483  17.019  0.00  0.00    +0.000 OA
ENDBRANCH   1   9
BRANCH   4  10
ATOM     10  C   UNL     1       3.408   3.637  18.300  0.00  0.00    +0.000 C 
BRANCH  10  11
ATOM     11  N   UNL     1       3.287   3.269  19.725  0.00  0.00    +0.000 NA
ATOM     12  H   UNL     1       3.987   3.819  20.276  0.00  0.00    +0.000 HD
BRANCH  11  13
ATOM     13  C   UNL     1       1.933   3.462  20.315  0.00  0.00    +0.000 C 
ATOM     14  C   UNL     1       1.611   4.961  20.527  0.00  0.00    +0.000 C 
ATOM     15  C   UNL     1       0.891   2.895  19.330  0.00  0.00    +0.000 C 
ATOM     16  C   UNL     1       1.784   2.708  21.657  0.00  0.00    +0.000 C 
ENDBRANCH  11  13
ENDBRANCH  10  11
ENDBRANCH   4  10
TORSDOF 4
ENDMDL
MODEL 3
REMARK VINA RESULT:      -6.2      0.849      1.140
REMARK  Name = 
REMARK  8 active torsions:
REMARK  status: ('A' for Active; 'I' for Inactive)
REMARK    1  A    between atoms: C_1  and  O_2
REMARK    2  A    between atoms: O_2  and  C_3
REMARK    3  A    between atoms: C_6  and  C_7
REMARK    4  A    between atoms: C_7  and  N_8
REMARK    5  A    between atoms: N_8  and  C_9
REMARK    6  A    between atoms: C_9  and  C_10
REMARK    7  A    between atoms: C_9  and  C_11
REMARK    8  A    between atoms: C_9  and  C_12
REMARK                            x       y       z     vdW  Elec       q    Type
REMARK                         _______ _______ _______ _____ _____    ______ ____
ROOT
ATOM      1  C   UNL     1       6.743   5.900  16.953  0.00  0.00    +0.000 A 
ATOM      2  C   UNL     1       6.155   5.813  18.218  0.00  0.00    +0.000 A 
ATOM      3  C   UNL     1       5.232   4.819  18.519  0.00  0.00    +0.000 A 
ATOM      4  C   UNL     1       4.856   3.874  17.555  0.00  0.00    +0.000 A 
ATOM      5  C   UNL     1       5.426   3.950  16.274  0.00  0.00    +0.000 A 
ATOM      6  C   UNL     1       6.372   4.943  15.961  0.00  0.00    +0.000 A 
ATOM      7 CL   UNL     1       7.020   4.913  14.324  0.00  0.00    +0.000 Cl
ENDROOT
BRANCH   1   9
ATOM      8  C   UNL     1       7.856   8.027  17.560  0.00  0.00    +0.000 C 
ATOM      9  O   UNL     1       7.639   6.913  16.785  0.00  0.00    +0.000 OA
ENDBRANCH   1   9
BRANCH   4  10
ATOM     10  C   UNL     1       3.814   2.839  17.918  0.00  0.00    +0.000 C 
BRANCH  10  11
ATOM     11  N   UNL     1       3.102   3.147  19.175  0.00  0.00    +0.000 NA
ATOM     12  H   UNL     1       3.616   3.909  19.676  0.00  0.00    +0.000 HD
BRANCH  11  13
ATOM     13  C   UNL     1       1.674   3.539  19.012  0.00  0.00    +0.000 C 
ATOM     14  C   UNL     1       1.475   4.479  17.800  0.00  0.00    +0.000 C 
ATOM     15  C   UNL     1       0.848   2.263  18.755  0.00  0.00    +0.000 C 
ATOM     16  C   UNL     1       1.122   4.218  20.288  0.00  0.00    +0.000 C 
ENDBRANCH  11  13
ENDBRANCH  10  11
ENDBRANCH   4  10
TORSDOF 4
ENDMDL
MODEL 4
REMARK VINA RESULT:      -6.1      0.423      1.214
REMARK  Name = 
REMARK  8 active torsions:
REMARK  status: ('A' for Active; 'I' for Inactive)
REMARK    1  A    between atoms: C_1  and  O_2
REMARK    2  A    between atoms: O_2  and  C_3
REMARK    3  A    between atoms: C_6  and  C_7
REMARK    4  A    between atoms: C_7  and  N_8
REMARK    5  A    between atoms: N_8  and  C_9
REMARK    6  A    between atoms: C_9  and  C_10
REMARK    7  A    between atoms: C_9  and  C_11
REMARK    8  A    between atoms: C_9  and  C_12
REMARK                            x       y       z     vdW  Elec       q    Type
REMARK                         _______ _______ _______ _____ _____    ______ ____
ROOT
ATOM      1  C   UNL     1       6.480   5.867  17.221  0.00  0.00    +0.000 A 
ATOM      2  C   UNL     1       6.344   5.667  18.598  0.00  0.00    +0.000 A 
ATOM      3  C   UNL     1       5.510   4.677  19.104  0.00  0.00    +0.000 A 
ATOM      4  C   UNL     1       4.773   3.852  18.246  0.00  0.00    +0.000 A 
ATOM      5  C   UNL     1       4.886   4.044  16.859  0.00  0.00    +0.000 A 
ATOM      6  C   UNL     1       5.737   5.034  16.333  0.00  0.00    +0.000 A 
ATOM      7 CL   UNL     1       5.797   5.155  14.577  0.00  0.00    +0.000 Cl
ENDROOT
BRANCH   1   9
ATOM      8  C   UNL     1       7.725   7.984  17.541  0.00  0.00    +0.000 C 
ATOM      9  O   UNL     1       7.334   6.862  16.849  0.00  0.00    +0.000 OA
ENDBRANCH   1   9
BRANCH   4  10
ATOM     10  C   UNL     1       3.846   2.819  18.848  0.00  0.00    +0.000 C 
BRANCH  10  11
ATOM     11  N   UNL     1       3.436   3.140  20.230  0.00  0.00    +0.000 NA
ATOM     12  H   UNL     1       4.013   3.943  20.575  0.00  0.00    +0.000 HD
BRANCH  11  13
ATOM     13  C   UNL     1       1.992   3.460  20.403  0.00  0.00    +0.000 C 
ATOM     14  C   UNL     1       1.762   4.978  20.592  0.00  0.00    +0.000 C 
ATOM     15  C   UNL     1       1.245   3.029  19.126  0.00  0.00    +0.000 C 
ATOM     16  C   UNL     1       1.379   2.693  21.599  0.00  0.00    +0.000 C 
ENDBRANCH  11  13
ENDBRANCH  10  11
ENDBRANCH   4  10
TORSDOF 4
ENDMDL
MODEL 5
REMARK VINA RESULT:      -6.1      1.714      2.610
REMARK  Name = 
REMARK  8 active torsions:
REMARK  status: ('A' for Active; 'I' for Inactive)
REMARK    1  A    between atoms: C_1  and  O_2
REMARK    2  A    between atoms: O_2  and  C_3
REMARK    3  A    between atoms: C_6  and  C_7
REMARK    4  A    between atoms: C_7  and  N_8
REMARK    5  A    between atoms: N_8  and  C_9
REMARK    6  A    between atoms: C_9  and  C_10
REMARK    7  A    between atoms: C_9  and  C_11
REMARK    8  A    between atoms: C_9  and  C_12
REMARK                            x       y       z     vdW  Elec       q    Type
REMARK                         _______ _______ _______ _____ _____    ______ ____
ROOT
ATOM      1  C   UNL     1       6.447   5.321  15.929  0.00  0.00    +0.000 A 
ATOM      2  C   UNL     1       5.427   4.387  15.728  0.00  0.00    +0.000 A 
ATOM      3  C   UNL     1       4.343   4.304  16.595  0.00  0.00    +0.000 A 
ATOM      4  C   UNL     1       4.245   5.154  17.703  0.00  0.00    +0.000 A 
ATOM      5  C   UNL     1       5.265   6.093  17.930  0.00  0.00    +0.000 A 
ATOM      6  C   UNL     1       6.360   6.195  17.053  0.00  0.00    +0.000 A 
ATOM      7 CL   UNL     1       7.559   7.426  17.446  0.00  0.00    +0.000 Cl
ENDROOT
BRANCH   1   9
ATOM      8  C   UNL     1       7.422   4.924  13.687  0.00  0.00    +0.000 C 
ATOM      9  O   UNL     1       7.450   5.309  15.007  0.00  0.00    +0.000 OA
ENDBRANCH   1   9
BRANCH   4  10
ATOM     10  C   UNL     1       3.068   4.994  18.641  0.00  0.00    +0.000 C 
BRANCH  10  11
ATOM     11  N   UNL     1       3.349   4.095  19.778  0.00  0.00    +0.000 NA
ATOM     12  H   UNL     1       3.663   4.672  20.594  0.00  0.00    +0.000 HD
BRANCH  11  13
ATOM     13  C   UNL     1       2.211   3.229  20.195  0.00  0.00    +0.000 C 
ATOM     14  C   UNL     1       2.430   2.640  21.609  0.00  0.00    +0.000 C 
ATOM     15  C   UNL     1       0.936   4.094  20.240  0.00  0.00    +0.000 C 
ATOM     16  C   UNL     1       1.975   2.078  19.188  0.00  0.00    +0.000 C 
ENDBRANCH  11  13
ENDBRANCH  10  11
ENDBRANCH   4  10
TORSDOF 4
ENDMDL
MODEL 6
REMARK VINA RESULT:      -6.0      1.742      2.179
REMARK  Name = 
REMARK  8 active torsions:
REMARK  status: ('A' for Active; 'I' for Inactive)
REMARK    1  A    between atoms: C_1  and  O_2
REMARK    2  A    between atoms: O_2  and  C_3
REMARK    3  A    between atoms: C_6  and  C_7
REMARK    4  A    between atoms: C_7  and  N_8
REMARK    5  A    between atoms: N_8  and  C_9
REMARK    6  A    between atoms: C_9  and  C_10
REMARK    7  A    between atoms: C_9  and  C_11
REMARK    8  A    between atoms: C_9  and  C_12
REMARK                            x       y       z     vdW  Elec       q    Type
REMARK                         _______ _______ _______ _____ _____    ______ ____
ROOT
ATOM      1  C   UNL     1       6.828   6.148  17.158  0.00  0.00    +0.000 A 
ATOM      2  C   UNL     1       5.911   5.850  16.145  0.00  0.00    +0.000 A 
ATOM      3  C   UNL     1       4.949   4.860  16.310  0.00  0.00    +0.000 A 
ATOM      4  C   UNL     1       4.876   4.123  17.498  0.00  0.00    +0.000 A 
ATOM      5  C   UNL     1       5.794   4.398  18.525  0.00  0.00    +0.000 A 
ATOM      6  C   UNL     1       6.764   5.407  18.375  0.00  0.00    +0.000 A 
ATOM      7 CL   UNL     1       7.842   5.659  19.745  0.00  0.00    +0.000 Cl
ENDROOT
BRANCH   1   9
ATOM      8  C   UNL     1       7.957   8.316  17.555  0.00  0.00    +0.000 C 
ATOM      9  O   UNL     1       7.715   7.144  16.879  0.00  0.00    +0.000 OA
ENDBRANCH   1   9
BRANCH   4  10
ATOM     10  C   UNL     1       3.840   3.026  17.611  0.00  0.00    +0.000 C 
BRANCH  10  11
ATOM     11  N   UNL     1       3.139   3.020  18.911  0.00  0.00    +0.000 NA
ATOM     12  H   UNL     1       3.673   3.616  19.585  0.00  0.00    +0.000 HD
BRANCH  11  13
ATOM     13  C   UNL     1       1.720   3.473  18.867  0.00  0.00    +0.000 C 
ATOM     14  C   UNL     1       0.741   2.277  18.811  0.00  0.00    +0.000 C 
ATOM     15  C   UNL     1       1.424   4.261  20.158  0.00  0.00    +0.000 C 
ATOM     16  C   UNL     1       1.460   4.409  17.663  0.00  0.00    +0.000 C 
ENDBRANCH  11  13
ENDBRANCH  10  11
ENDBRANCH   4  10
TORSDOF 4
ENDMDL
MODEL 7
REMARK VINA RESULT:      -6.0      1.713      2.688
REMARK  Name = 
REMARK  8 active torsions:
REMARK  status: ('A' for Active; 'I' for Inactive)
REMARK    1  A    between atoms: C_1  and  O_2
REMARK    2  A    between atoms: O_2  and  C_3
REMARK    3  A    between atoms: C_6  and  C_7
REMARK    4  A    between atoms: C_7  and  N_8
REMARK    5  A    between atoms: N_8  and  C_9
REMARK    6  A    between atoms: C_9  and  C_10
REMARK    7  A    between atoms: C_9  and  C_11
REMARK    8  A    between atoms: C_9  and  C_12
REMARK                            x       y       z     vdW  Elec       q    Type
REMARK                         _______ _______ _______ _____ _____    ______ ____
ROOT
ATOM      1  C   UNL     1       6.743   5.344  16.115  0.00  0.00    +0.000 A 
ATOM      2  C   UNL     1       5.916   4.219  16.054  0.00  0.00    +0.000 A 
ATOM      3  C   UNL     1       5.148   3.828  17.145  0.00  0.00    +0.000 A 
ATOM      4  C   UNL     1       5.187   4.549  18.344  0.00  0.00    +0.000 A 
ATOM      5  C   UNL     1       6.019   5.677  18.431  0.00  0.00    +0.000 A 
ATOM      6  C   UNL     1       6.791   6.091  17.329  0.00  0.00    +0.000 A 
ATOM      7 CL   UNL     1       7.778   7.531  17.568  0.00  0.00    +0.000 Cl
ENDROOT
BRANCH   1   9
ATOM      8  C   UNL     1       7.433   4.986  13.763  0.00  0.00    +0.000 C 
ATOM      9  O   UNL     1       7.439   5.629  14.978  0.00  0.00    +0.000 OA
ENDBRANCH   1   9
BRANCH   4  10
ATOM     10  C   UNL     1       4.366   4.057  19.516  0.00  0.00    +0.000 C 
BRANCH  10  11
ATOM     11  N   UNL     1       3.226   3.210  19.113  0.00  0.00    +0.000 NA
ATOM     12  H   UNL     1       3.218   2.349  19.708  0.00  0.00    +0.000 HD
BRANCH  11  13
ATOM     13  C   UNL     1       1.892   3.871  19.183  0.00  0.00    +0.000 C 
ATOM     14  C   UNL     1       1.910   5.091  20.134  0.00  0.00    +0.000 C 
ATOM     15  C   UNL     1       1.530   4.381  17.774  0.00  0.00    +0.000 C 
ATOM     16  C   UNL     1       0.791   2.882  19.633  0.00  0.00    +0.000 C 
ENDBRANCH  11  13
ENDBRANCH  10  11
ENDBRANCH   4  10
TORSDOF 4
ENDMDL
MODEL 8
REMARK VINA RESULT:      -6.0      1.517      1.879
REMARK  Name = 
REMARK  8 active torsions:
REMARK  status: ('A' for Active; 'I' for Inactive)
REMARK    1  A    between atoms: C_1  and  O_2
REMARK    2  A    between atoms: O_2  and  C_3
REMARK    3  A    between atoms: C_6  and  C_7
REMARK    4  A    between atoms: C_7  and  N_8
REMARK    5  A    between atoms: N_8  and  C_9
REMARK    6  A    between atoms: C_9  and  C_10
REMARK    7  A    between atoms: C_9  and  C_11
REMARK    8  A    between atoms: C_9  and  C_12
REMARK                            x       y       z     vdW  Elec       q    Type
REMARK                         _______ _______ _______ _____ _____    ______ ____
ROOT
ATOM      1  C   UNL     1       6.536   5.826  17.281  0.00  0.00    +0.000 A 
ATOM      2  C   UNL     1       5.558   5.446  16.358  0.00  0.00    +0.000 A 
ATOM      3  C   UNL     1       4.585   4.508  16.683  0.00  0.00    +0.000 A 
ATOM      4  C   UNL     1       4.561   3.907  17.947  0.00  0.00    +0.000 A 
ATOM      5  C   UNL     1       5.543   4.265  18.886  0.00  0.00    +0.000 A 
ATOM      6  C   UNL     1       6.525   5.224  18.575  0.00  0.00    +0.000 A 
ATOM      7 CL   UNL     1       7.684   5.593  19.849  0.00  0.00    +0.000 Cl
ENDROOT
BRANCH   1   9
ATOM      8  C   UNL     1       7.755   7.979  17.391  0.00  0.00    +0.000 C 
ATOM      9  O   UNL     1       7.428   6.760  16.847  0.00  0.00    +0.000 OA
ENDBRANCH   1   9
BRANCH   4  10
ATOM     10  C   UNL     1       3.509   2.859  18.236  0.00  0.00    +0.000 C 
BRANCH  10  11
ATOM     11  N   UNL     1       3.188   2.738  19.672  0.00  0.00    +0.000 NA
ATOM     12  H   UNL     1       3.907   3.262  20.224  0.00  0.00    +0.000 HD
BRANCH  11  13
ATOM     13  C   UNL     1       1.829   3.209  20.058  0.00  0.00    +0.000 C 
ATOM     14  C   UNL     1       0.744   2.670  19.096  0.00  0.00    +0.000 C 
ATOM     15  C   UNL     1       1.513   2.671  21.468  0.00  0.00    +0.000 C 
ATOM     16  C   UNL     1       1.754   4.753  20.106  0.00  0.00    +0.000 C 
ENDBRANCH  11  13
ENDBRANCH  10  11
ENDBRANCH   4  10
TORSDOF 4
ENDMDL
MODEL 9
REMARK VINA RESULT:      -6.0      1.476      2.292
REMARK  Name = 
REMARK  8 active torsions:
REMARK  status: ('A' for Active; 'I' for Inactive)
REMARK    1  A    between atoms: C_1  and  O_2
REMARK    2  A    between atoms: O_2  and  C_3
REMARK    3  A    between atoms: C_6  and  C_7
REMARK    4  A    between atoms: C_7  and  N_8
REMARK    5  A    between atoms: N_8  and  C_9
REMARK    6  A    between atoms: C_9  and  C_10
REMARK    7  A    between atoms: C_9  and  C_11
REMARK    8  A    between atoms: C_9  and  C_12
REMARK                            x       y       z     vdW  Elec       q    Type
REMARK                         _______ _______ _______ _____ _____    ______ ____
ROOT
ATOM      1  C   UNL     1       6.047   5.260  16.077  0.00  0.00    +0.000 A 
ATOM      2  C   UNL     1       4.998   4.340  16.164  0.00  0.00    +0.000 A 
ATOM      3  C   UNL     1       4.251   4.205  17.329  0.00  0.00    +0.000 A 
ATOM      4  C   UNL     1       4.534   4.986  18.456  0.00  0.00    +0.000 A 
ATOM      5  C   UNL     1       5.591   5.909  18.394  0.00  0.00    +0.000 A 
ATOM      6  C   UNL     1       6.346   6.065  17.217  0.00  0.00    +0.000 A 
ATOM      7 CL   UNL     1       7.630   7.269  17.270  0.00  0.00    +0.000 Cl
ENDROOT
BRANCH   1   9
ATOM      8  C   UNL     1       6.634   4.435  13.817  0.00  0.00    +0.000 C 
ATOM      9  O   UNL     1       6.697   5.304  14.880  0.00  0.00    +0.000 OA
ENDBRANCH   1   9
BRANCH   4  10
ATOM     10  C   UNL     1       3.721   4.770  19.714  0.00  0.00    +0.000 C 
BRANCH  10  11
ATOM     11  N   UNL     1       3.150   3.411  19.811  0.00  0.00    +0.000 NA
ATOM     12  H   UNL     1       3.721   2.853  20.487  0.00  0.00    +0.000 HD
BRANCH  11  13
ATOM     13  C   UNL     1       1.716   3.355  20.211  0.00  0.00    +0.000 C 
ATOM     14  C   UNL     1       0.856   2.631  19.148  0.00  0.00    +0.000 C 
ATOM     15  C   UNL     1       1.611   2.554  21.523  0.00  0.00    +0.000 C 
ATOM     16  C   UNL     1       1.141   4.769  20.463  0.00  0.00    +0.000 C 
ENDBRANCH  11  13
ENDBRANCH  10  11
ENDBRANCH   4  10
TORSDOF 4
ENDMDL
