MODEL 1
REMARK VINA RESULT:      -8.0      0.000      0.000
REMARK  Name = 
REMARK  7 active torsions:
REMARK  status: ('A' for Active; 'I' for Inactive)
REMARK    1  A    between atoms: C_3  and  O_4
REMARK    2  A    between atoms: O_4  and  C_5
REMARK    3  A    between atoms: C_5  and  C_6
REMARK    4  A    between atoms: C_9  and  C_10
REMARK    5  A    between atoms: C_10  and  O_11
REMARK    6  A    between atoms: C_20  and  C_21
REMARK    7  A    between atoms: C_21  and  C_22
REMARK                            x       y       z     vdW  Elec       q    Type
REMARK                         _______ _______ _______ _____ _____    ______ ____
ROOT
ATOM      1  O   UNL     1       3.204   7.169  17.756  0.00  0.00    +0.000 OA
ATOM      2  C   UNL     1       2.607   6.863  18.778  0.00  0.00    +0.000 A 
ATOM      3  C   UNL     1       1.875   7.919  19.575  0.00  0.00    +0.000 A 
ATOM      4  C   UNL     1       1.325   7.528  20.729  0.00  0.00    +0.000 A 
ATOM      5  O   UNL     1       1.354   6.274  21.272  0.00  0.00    +0.000 OA
ATOM      6  C   UNL     1       1.947   5.274  20.550  0.00  0.00    +0.000 A 
ATOM      7  C   UNL     1       1.839   4.009  21.139  0.00  0.00    +0.000 A 
ATOM      8  C   UNL     1       2.397   2.906  20.520  0.00  0.00    +0.000 A 
ATOM      9  C   UNL     1       3.034   3.063  19.295  0.00  0.00    +0.000 A 
ATOM     10  C   UNL     1       3.105   4.321  18.647  0.00  0.00    +0.000 A 
ATOM     11  C   UNL     1       2.581   5.461  19.313  0.00  0.00    +0.000 A 
ENDROOT
BRANCH   3  12
ATOM     12  O   UNL     1       1.803   9.209  19.059  0.00  0.00    +0.000 OA
BRANCH  12  13
ATOM     13  C   UNL     1       0.896  10.110  19.720  0.00  0.00    +0.000 C 
BRANCH  13  14
ATOM     14  C   UNL     1      -0.301  10.485  18.869  0.00  0.00    +0.000 A 
ATOM     15  C   UNL     1      -0.650   9.744  17.735  0.00  0.00    +0.000 A 
ATOM     16  C   UNL     1      -1.826  10.023  17.033  0.00  0.00    +0.000 A 
ATOM     17  C   UNL     1      -2.685  11.045  17.452  0.00  0.00    +0.000 A 
ATOM     18  C   UNL     1      -2.329  11.812  18.569  0.00  0.00    +0.000 A 
ATOM     19  C   UNL     1      -1.149  11.532  19.272  0.00  0.00    +0.000 A 
BRANCH  17  20
ATOM     20  C   UNL     1      -3.980  11.298  16.725  0.00  0.00    +0.000 C 
BRANCH  20  21
ATOM     21  O   UNL     1      -3.724  11.731  15.395  0.00  0.00    +0.000 OA
ATOM     22  H   UNL     1      -4.146  11.085  14.803  0.00  0.00    +0.000 HD
ENDBRANCH  20  21
ENDBRANCH  17  20
ENDBRANCH  13  14
ENDBRANCH  12  13
ENDBRANCH   3  12
BRANCH  10  23
ATOM     23  C   UNL     1       3.586   4.273  17.201  0.00  0.00    +0.000 C 
BRANCH  23  24
ATOM     24  C   UNL     1       5.060   3.783  17.134  0.00  0.00    +0.000 C 
ATOM     25  C   UNL     1       5.670   3.892  15.730  0.00  0.00    +0.000 C 
ATOM     26  C   UNL     1       6.163   5.279  15.344  0.00  0.00    +0.000 C 
ATOM     27  C   UNL     1       6.903   6.044  16.434  0.00  0.00    +0.000 C 
ATOM     28  C   UNL     1       6.376   5.861  17.852  0.00  0.00    +0.000 C 
ATOM     29  C   UNL     1       5.961   4.437  18.185  0.00  0.00    +0.000 C 
ENDBRANCH  23  24
ENDBRANCH  10  23
TORSDOF 7
ENDMDL
MODEL 2
REMARK VINA RESULT:      -8.0      0.473      1.025
REMARK  Name = 
REMARK  7 active torsions:
REMARK  status: ('A' for Active; 'I' for Inactive)
REMARK    1  A    between atoms: C_3  and  O_4
REMARK    2  A    between atoms: O_4  and  C_5
REMARK    3  A    between atoms: C_5  and  C_6
REMARK    4  A    between atoms: C_9  and  C_10
REMARK    5  A    between atoms: C_10  and  O_11
REMARK    6  A    between atoms: C_20  and  C_21
REMARK    7  A    between atoms: C_21  and  C_22
REMARK                            x       y       z     vdW  Elec       q    Type
REMARK                         _______ _______ _______ _____ _____    ______ ____
ROOT
ATOM      1  O   UNL     1       3.097   7.176  17.529  0.00  0.00    +0.000 OA
ATOM      2  C   UNL     1       2.554   6.964  18.604  0.00  0.00    +0.000 A 
ATOM      3  C   UNL     1       1.846   8.084  19.331  0.00  0.00    +0.000 A 
ATOM      4  C   UNL     1       1.357   7.800  20.543  0.00  0.00    +0.000 A 
ATOM      5  O   UNL     1       1.431   6.605  21.201  0.00  0.00    +0.000 OA
ATOM      6  C   UNL     1       2.003   5.546  20.549  0.00  0.00    +0.000 A 
ATOM      7  C   UNL     1       1.942   4.343  21.262  0.00  0.00    +0.000 A 
ATOM      8  C   UNL     1       2.486   3.190  20.723  0.00  0.00    +0.000 A 
ATOM      9  C   UNL     1       3.062   3.235  19.460  0.00  0.00    +0.000 A 
ATOM     10  C   UNL     1       3.082   4.426  18.692  0.00  0.00    +0.000 A 
ATOM     11  C   UNL     1       2.574   5.619  19.270  0.00  0.00    +0.000 A 
ENDROOT
BRANCH   3  12
ATOM     12  O   UNL     1       1.730   9.318  18.699  0.00  0.00    +0.000 OA
BRANCH  12  13
ATOM     13  C   UNL     1       0.912  10.299  19.361  0.00  0.00    +0.000 C 
BRANCH  13  14
ATOM     14  C   UNL     1      -0.470  10.435  18.753  0.00  0.00    +0.000 A 
ATOM     15  C   UNL     1      -1.399  11.353  19.254  0.00  0.00    +0.000 A 
ATOM     16  C   UNL     1      -2.621  11.558  18.607  0.00  0.00    +0.000 A 
ATOM     17  C   UNL     1      -2.941  10.855  17.440  0.00  0.00    +0.000 A 
ATOM     18  C   UNL     1      -2.029   9.913  16.948  0.00  0.00    +0.000 A 
ATOM     19  C   UNL     1      -0.804   9.708  17.598  0.00  0.00    +0.000 A 
BRANCH  17  20
ATOM     20  C   UNL     1      -4.234  11.127  16.717  0.00  0.00    +0.000 C 
BRANCH  20  21
ATOM     21  O   UNL     1      -4.721  12.423  17.044  0.00  0.00    +0.000 OA
ATOM     22  H   UNL     1      -4.834  12.446  18.009  0.00  0.00    +0.000 HD
ENDBRANCH  20  21
ENDBRANCH  17  20
ENDBRANCH  13  14
ENDBRANCH  12  13
ENDBRANCH   3  12
BRANCH  10  23
ATOM     23  C   UNL     1       3.494   4.244  17.235  0.00  0.00    +0.000 C 
BRANCH  23  24
ATOM     24  C   UNL     1       4.992   3.835  17.140  0.00  0.00    +0.000 C 
ATOM     25  C   UNL     1       5.594   4.068  15.748  0.00  0.00    +0.000 C 
ATOM     26  C   UNL     1       6.017   5.501  15.457  0.00  0.00    +0.000 C 
ATOM     27  C   UNL     1       6.717   6.227  16.598  0.00  0.00    +0.000 C 
ATOM     28  C   UNL     1       6.200   5.923  17.999  0.00  0.00    +0.000 C 
ATOM     29  C   UNL     1       5.859   4.462  18.235  0.00  0.00    +0.000 C 
ENDBRANCH  23  24
ENDBRANCH  10  23
TORSDOF 7
ENDMDL
MODEL 3
REMARK VINA RESULT:      -7.9      1.272      3.697
REMARK  Name = 
REMARK  7 active torsions:
REMARK  status: ('A' for Active; 'I' for Inactive)
REMARK    1  A    between atoms: C_3  and  O_4
REMARK    2  A    between atoms: O_4  and  C_5
REMARK    3  A    between atoms: C_5  and  C_6
REMARK    4  A    between atoms: C_9  and  C_10
REMARK    5  A    between atoms: C_10  and  O_11
REMARK    6  A    between atoms: C_20  and  C_21
REMARK    7  A    between atoms: C_21  and  C_22
REMARK                            x       y       z     vdW  Elec       q    Type
REMARK                         _______ _______ _______ _____ _____    ______ ____
ROOT
ATOM      1  O   UNL     1       1.976   6.450  20.296  0.00  0.00    +0.000 OA
ATOM      2  C   UNL     1       2.423   7.020  19.311  0.00  0.00    +0.000 A 
ATOM      3  C   UNL     1       1.884   8.373  18.906  0.00  0.00    +0.000 A 
ATOM      4  C   UNL     1       2.355   8.892  17.767  0.00  0.00    +0.000 A 
ATOM      5  O   UNL     1       3.271   8.330  16.923  0.00  0.00    +0.000 OA
ATOM      6  C   UNL     1       3.835   7.137  17.288  0.00  0.00    +0.000 A 
ATOM      7  C   UNL     1       4.832   6.692  16.413  0.00  0.00    +0.000 A 
ATOM      8  C   UNL     1       5.485   5.497  16.657  0.00  0.00    +0.000 A 
ATOM      9  C   UNL     1       5.162   4.764  17.792  0.00  0.00    +0.000 A 
ATOM     10  C   UNL     1       4.200   5.222  18.726  0.00  0.00    +0.000 A 
ATOM     11  C   UNL     1       3.492   6.420  18.443  0.00  0.00    +0.000 A 
ENDROOT
BRANCH   3  12
ATOM     12  O   UNL     1       0.960   8.996  19.739  0.00  0.00    +0.000 OA
BRANCH  12  13
ATOM     13  C   UNL     1       0.774  10.409  19.541  0.00  0.00    +0.000 C 
BRANCH  13  14
ATOM     14  C   UNL     1      -0.595  10.762  18.994  0.00  0.00    +0.000 A 
ATOM     15  C   UNL     1      -1.157  10.057  17.924  0.00  0.00    +0.000 A 
ATOM     16  C   UNL     1      -2.469  10.308  17.513  0.00  0.00    +0.000 A 
ATOM     17  C   UNL     1      -3.253  11.266  18.166  0.00  0.00    +0.000 A 
ATOM     18  C   UNL     1      -2.689  11.997  19.219  0.00  0.00    +0.000 A 
ATOM     19  C   UNL     1      -1.374  11.745  19.630  0.00  0.00    +0.000 A 
BRANCH  17  20
ATOM     20  C   UNL     1      -4.685  11.486  17.754  0.00  0.00    +0.000 C 
BRANCH  20  21
ATOM     21  O   UNL     1      -4.861  11.163  16.380  0.00  0.00    +0.000 OA
ATOM     22  H   UNL     1      -5.217  10.258  16.347  0.00  0.00    +0.000 HD
ENDBRANCH  20  21
ENDBRANCH  17  20
ENDBRANCH  13  14
ENDBRANCH  12  13
ENDBRANCH   3  12
BRANCH  10  23
ATOM     23  C   UNL     1       4.163   4.452  20.041  0.00  0.00    +0.000 C 
BRANCH  23  24
ATOM     24  C   UNL     1       3.582   3.026  19.821  0.00  0.00    +0.000 C 
ATOM     25  C   UNL     1       2.838   2.481  21.048  0.00  0.00    +0.000 C 
ATOM     26  C   UNL     1       1.412   2.984  21.217  0.00  0.00    +0.000 C 
ATOM     27  C   UNL     1       0.585   3.067  19.940  0.00  0.00    +0.000 C 
ATOM     28  C   UNL     1       1.335   3.505  18.687  0.00  0.00    +0.000 C 
ATOM     29  C   UNL     1       2.728   2.913  18.555  0.00  0.00    +0.000 C 
ENDBRANCH  23  24
ENDBRANCH  10  23
TORSDOF 7
ENDMDL
MODEL 4
REMARK VINA RESULT:      -7.8      1.279      3.793
REMARK  Name = 
REMARK  7 active torsions:
REMARK  status: ('A' for Active; 'I' for Inactive)
REMARK    1  A    between atoms: C_3  and  O_4
REMARK    2  A    between atoms: O_4  and  C_5
REMARK    3  A    between atoms: C_5  and  C_6
REMARK    4  A    between atoms: C_9  and  C_10
REMARK    5  A    between atoms: C_10  and  O_11
REMARK    6  A    between atoms: C_20  and  C_21
REMARK    7  A    between atoms: C_21  and  C_22
REMARK                            x       y       z     vdW  Elec       q    Type
REMARK                         _______ _______ _______ _____ _____    ______ ____
ROOT
ATOM      1  O   UNL     1       2.040   6.354  20.325  0.00  0.00    +0.000 OA
ATOM      2  C   UNL     1       2.499   6.939  19.353  0.00  0.00    +0.000 A 
ATOM      3  C   UNL     1       1.990   8.312  18.983  0.00  0.00    +0.000 A 
ATOM      4  C   UNL     1       2.470   8.849  17.857  0.00  0.00    +0.000 A 
ATOM      5  O   UNL     1       3.371   8.287  16.997  0.00  0.00    +0.000 OA
ATOM      6  C   UNL     1       3.908   7.074  17.330  0.00  0.00    +0.000 A 
ATOM      7  C   UNL     1       4.893   6.627  16.442  0.00  0.00    +0.000 A 
ATOM      8  C   UNL     1       5.519   5.412  16.654  0.00  0.00    +0.000 A 
ATOM      9  C   UNL     1       5.182   4.659  17.772  0.00  0.00    +0.000 A 
ATOM     10  C   UNL     1       4.233   5.116  18.719  0.00  0.00    +0.000 A 
ATOM     11  C   UNL     1       3.552   6.336  18.469  0.00  0.00    +0.000 A 
ENDROOT
BRANCH   3  12
ATOM     12  O   UNL     1       1.082   8.936  19.834  0.00  0.00    +0.000 OA
BRANCH  12  13
ATOM     13  C   UNL     1       0.796  10.319  19.558  0.00  0.00    +0.000 C 
BRANCH  13  14
ATOM     14  C   UNL     1      -0.572  10.536  18.941  0.00  0.00    +0.000 A 
ATOM     15  C   UNL     1      -1.459  11.489  19.452  0.00  0.00    +0.000 A 
ATOM     16  C   UNL     1      -2.663  11.767  18.798  0.00  0.00    +0.000 A 
ATOM     17  C   UNL     1      -3.006  11.104  17.615  0.00  0.00    +0.000 A 
ATOM     18  C   UNL     1      -2.137  10.126  17.112  0.00  0.00    +0.000 A 
ATOM     19  C   UNL     1      -0.931   9.847  17.769  0.00  0.00    +0.000 A 
BRANCH  17  20
ATOM     20  C   UNL     1      -4.276  11.454  16.886  0.00  0.00    +0.000 C 
BRANCH  20  21
ATOM     21  O   UNL     1      -5.053  12.366  17.653  0.00  0.00    +0.000 OA
ATOM     22  H   UNL     1      -5.978  12.249  17.378  0.00  0.00    +0.000 HD
ENDBRANCH  20  21
ENDBRANCH  17  20
ENDBRANCH  13  14
ENDBRANCH  12  13
ENDBRANCH   3  12
BRANCH  10  23
ATOM     23  C   UNL     1       4.181   4.314  20.016  0.00  0.00    +0.000 C 
BRANCH  23  24
ATOM     24  C   UNL     1       3.530   2.923  19.770  0.00  0.00    +0.000 C 
ATOM     25  C   UNL     1       2.711   2.420  20.966  0.00  0.00    +0.000 C 
ATOM     26  C   UNL     1       1.309   3.002  21.081  0.00  0.00    +0.000 C 
ATOM     27  C   UNL     1       0.538   3.132  19.774  0.00  0.00    +0.000 C 
ATOM     28  C   UNL     1       1.359   3.527  18.552  0.00  0.00    +0.000 C 
ATOM     29  C   UNL     1       2.720   2.858  18.472  0.00  0.00    +0.000 C 
ENDBRANCH  23  24
ENDBRANCH  10  23
TORSDOF 7
ENDMDL
MODEL 5
REMARK VINA RESULT:      -7.8      2.529      3.330
REMARK  Name = 
REMARK  7 active torsions:
REMARK  status: ('A' for Active; 'I' for Inactive)
REMARK    1  A    between atoms: C_3  and  O_4
REMARK    2  A    between atoms: O_4  and  C_5
REMARK    3  A    between atoms: C_5  and  C_6
REMARK    4  A    between atoms: C_9  and  C_10
REMARK    5  A    between atoms: C_10  and  O_11
REMARK    6  A    between atoms: C_20  and  C_21
REMARK    7  A    between atoms: C_21  and  C_22
REMARK                            x       y       z     vdW  Elec       q    Type
REMARK                         _______ _______ _______ _____ _____    ______ ____
ROOT
ATOM      1  O   UNL     1       3.629   6.817  19.264  0.00  0.00    +0.000 OA
ATOM      2  C   UNL     1       2.793   5.946  19.462  0.00  0.00    +0.000 A 
ATOM      3  C   UNL     1       1.723   6.145  20.511  0.00  0.00    +0.000 A 
ATOM      4  C   UNL     1       0.903   5.114  20.737  0.00  0.00    +0.000 A 
ATOM      5  O   UNL     1       0.928   3.893  20.124  0.00  0.00    +0.000 OA
ATOM      6  C   UNL     1       1.837   3.695  19.120  0.00  0.00    +0.000 A 
ATOM      7  C   UNL     1       1.719   2.453  18.486  0.00  0.00    +0.000 A 
ATOM      8  C   UNL     1       2.578   2.117  17.455  0.00  0.00    +0.000 A 
ATOM      9  C   UNL     1       3.532   3.036  17.037  0.00  0.00    +0.000 A 
ATOM     10  C   UNL     1       3.633   4.323  17.621  0.00  0.00    +0.000 A 
ATOM     11  C   UNL     1       2.788   4.643  18.716  0.00  0.00    +0.000 A 
ENDROOT
BRANCH   3  12
ATOM     12  O   UNL     1       1.645   7.376  21.155  0.00  0.00    +0.000 OA
BRANCH  12  13
ATOM     13  C   UNL     1       1.191   8.485  20.358  0.00  0.00    +0.000 C 
BRANCH  13  14
ATOM     14  C   UNL     1       0.256   9.416  21.105  0.00  0.00    +0.000 A 
ATOM     15  C   UNL     1       0.043   9.284  22.482  0.00  0.00    +0.000 A 
ATOM     16  C   UNL     1      -0.721  10.224  23.179  0.00  0.00    +0.000 A 
ATOM     17  C   UNL     1      -1.284  11.322  22.520  0.00  0.00    +0.000 A 
ATOM     18  C   UNL     1      -1.100  11.446  21.136  0.00  0.00    +0.000 A 
ATOM     19  C   UNL     1      -0.335  10.502  20.437  0.00  0.00    +0.000 A 
BRANCH  17  20
ATOM     20  C   UNL     1      -2.053  12.362  23.291  0.00  0.00    +0.000 C 
BRANCH  20  21
ATOM     21  O   UNL     1      -3.383  11.917  23.531  0.00  0.00    +0.000 OA
ATOM     22  H   UNL     1      -3.751  11.651  22.671  0.00  0.00    +0.000 HD
ENDBRANCH  20  21
ENDBRANCH  17  20
ENDBRANCH  13  14
ENDBRANCH  12  13
ENDBRANCH   3  12
BRANCH  10  23
ATOM     23  C   UNL     1       4.534   5.300  16.872  0.00  0.00    +0.000 C 
BRANCH  23  24
ATOM     24  C   UNL     1       6.005   4.795  16.876  0.00  0.00    +0.000 C 
ATOM     25  C   UNL     1       6.980   5.770  16.202  0.00  0.00    +0.000 C 
ATOM     26  C   UNL     1       7.429   6.939  17.068  0.00  0.00    +0.000 C 
ATOM     27  C   UNL     1       7.747   6.601  18.520  0.00  0.00    +0.000 C 
ATOM     28  C   UNL     1       6.853   5.553  19.171  0.00  0.00    +0.000 C 
ATOM     29  C   UNL     1       6.498   4.385  18.267  0.00  0.00    +0.000 C 
ENDBRANCH  23  24
ENDBRANCH  10  23
TORSDOF 7
ENDMDL
MODEL 6
REMARK VINA RESULT:      -7.7      1.197      1.614
REMARK  Name = 
REMARK  7 active torsions:
REMARK  status: ('A' for Active; 'I' for Inactive)
REMARK    1  A    between atoms: C_3  and  O_4
REMARK    2  A    between atoms: O_4  and  C_5
REMARK    3  A    between atoms: C_5  and  C_6
REMARK    4  A    between atoms: C_9  and  C_10
REMARK    5  A    between atoms: C_10  and  O_11
REMARK    6  A    between atoms: C_20  and  C_21
REMARK    7  A    between atoms: C_21  and  C_22
REMARK                            x       y       z     vdW  Elec       q    Type
REMARK                         _______ _______ _______ _____ _____    ______ ____
ROOT
ATOM      1  O   UNL     1       3.336   7.208  17.649  0.00  0.00    +0.000 OA
ATOM      2  C   UNL     1       2.701   6.949  18.661  0.00  0.00    +0.000 A 
ATOM      3  C   UNL     1       1.977   8.048  19.405  0.00  0.00    +0.000 A 
ATOM      4  C   UNL     1       1.381   7.707  20.552  0.00  0.00    +0.000 A 
ATOM      5  O   UNL     1       1.359   6.470  21.132  0.00  0.00    +0.000 OA
ATOM      6  C   UNL     1       1.944   5.433  20.457  0.00  0.00    +0.000 A 
ATOM      7  C   UNL     1       1.783   4.190  21.080  0.00  0.00    +0.000 A 
ATOM      8  C   UNL     1       2.328   3.053  20.510  0.00  0.00    +0.000 A 
ATOM      9  C   UNL     1       3.005   3.156  19.301  0.00  0.00    +0.000 A 
ATOM     10  C   UNL     1       3.130   4.391  18.620  0.00  0.00    +0.000 A 
ATOM     11  C   UNL     1       2.620   5.565  19.235  0.00  0.00    +0.000 A 
ENDROOT
BRANCH   3  12
ATOM     12  O   UNL     1       1.956   9.324  18.850  0.00  0.00    +0.000 OA
BRANCH  12  13
ATOM     13  C   UNL     1       0.918   9.585  17.888  0.00  0.00    +0.000 C 
BRANCH  13  14
ATOM     14  C   UNL     1      -0.285  10.290  18.482  0.00  0.00    +0.000 A 
ATOM     15  C   UNL     1      -0.178  11.058  19.646  0.00  0.00    +0.000 A 
ATOM     16  C   UNL     1      -1.265  11.805  20.112  0.00  0.00    +0.000 A 
ATOM     17  C   UNL     1      -2.482  11.806  19.422  0.00  0.00    +0.000 A 
ATOM     18  C   UNL     1      -2.607  11.016  18.271  0.00  0.00    +0.000 A 
ATOM     19  C   UNL     1      -1.518  10.268  17.806  0.00  0.00    +0.000 A 
BRANCH  17  20
ATOM     20  C   UNL     1      -3.627  12.661  19.898  0.00  0.00    +0.000 C 
BRANCH  20  21
ATOM     21  O   UNL     1      -3.164  13.960  20.245  0.00  0.00    +0.000 OA
ATOM     22  H   UNL     1      -3.798  14.595  19.869  0.00  0.00    +0.000 HD
ENDBRANCH  20  21
ENDBRANCH  17  20
ENDBRANCH  13  14
ENDBRANCH  12  13
ENDBRANCH   3  12
BRANCH  10  23
ATOM     23  C   UNL     1       3.653   4.287  17.191  0.00  0.00    +0.000 C 
BRANCH  23  24
ATOM     24  C   UNL     1       5.130   3.802  17.185  0.00  0.00    +0.000 C 
ATOM     25  C   UNL     1       5.788   3.885  15.801  0.00  0.00    +0.000 C 
ATOM     26  C   UNL     1       6.290   5.266  15.406  0.00  0.00    +0.000 C 
ATOM     27  C   UNL     1       6.989   6.055  16.506  0.00  0.00    +0.000 C 
ATOM     28  C   UNL     1       6.413   5.898  17.908  0.00  0.00    +0.000 C 
ATOM     29  C   UNL     1       5.991   4.480  18.254  0.00  0.00    +0.000 C 
ENDBRANCH  23  24
ENDBRANCH  10  23
TORSDOF 7
ENDMDL
MODEL 7
REMARK VINA RESULT:      -7.7      2.500      4.620
REMARK  Name = 
REMARK  7 active torsions:
REMARK  status: ('A' for Active; 'I' for Inactive)
REMARK    1  A    between atoms: C_3  and  O_4
REMARK    2  A    between atoms: O_4  and  C_5
REMARK    3  A    between atoms: C_5  and  C_6
REMARK    4  A    between atoms: C_9  and  C_10
REMARK    5  A    between atoms: C_10  and  O_11
REMARK    6  A    between atoms: C_20  and  C_21
REMARK    7  A    between atoms: C_21  and  C_22
REMARK                            x       y       z     vdW  Elec       q    Type
REMARK                         _______ _______ _______ _____ _____    ______ ____
ROOT
ATOM      1  O   UNL     1       1.996   6.453  20.418  0.00  0.00    +0.000 OA
ATOM      2  C   UNL     1       2.376   7.067  19.431  0.00  0.00    +0.000 A 
ATOM      3  C   UNL     1       1.799   8.426  19.112  0.00  0.00    +0.000 A 
ATOM      4  C   UNL     1       2.194   8.995  17.969  0.00  0.00    +0.000 A 
ATOM      5  O   UNL     1       3.063   8.478  17.050  0.00  0.00    +0.000 OA
ATOM      6  C   UNL     1       3.661   7.280  17.333  0.00  0.00    +0.000 A 
ATOM      7  C   UNL     1       4.609   6.882  16.383  0.00  0.00    +0.000 A 
ATOM      8  C   UNL     1       5.289   5.687  16.540  0.00  0.00    +0.000 A 
ATOM      9  C   UNL     1       5.043   4.908  17.664  0.00  0.00    +0.000 A 
ATOM     10  C   UNL     1       4.134   5.317  18.671  0.00  0.00    +0.000 A 
ATOM     11  C   UNL     1       3.397   6.515  18.478  0.00  0.00    +0.000 A 
ENDROOT
BRANCH   3  12
ATOM     12  O   UNL     1       0.920   9.005  20.023  0.00  0.00    +0.000 OA
BRANCH  12  13
ATOM     13  C   UNL     1       0.088  10.066  19.521  0.00  0.00    +0.000 C 
BRANCH  13  14
ATOM     14  C   UNL     1      -0.614  10.845  20.615  0.00  0.00    +0.000 A 
ATOM     15  C   UNL     1      -1.522  11.866  20.315  0.00  0.00    +0.000 A 
ATOM     16  C   UNL     1      -2.256  12.490  21.327  0.00  0.00    +0.000 A 
ATOM     17  C   UNL     1      -2.106  12.103  22.664  0.00  0.00    +0.000 A 
ATOM     18  C   UNL     1      -1.177  11.102  22.977  0.00  0.00    +0.000 A 
ATOM     19  C   UNL     1      -0.441  10.478  21.961  0.00  0.00    +0.000 A 
BRANCH  17  20
ATOM     20  C   UNL     1      -2.946  12.739  23.740  0.00  0.00    +0.000 C 
BRANCH  20  21
ATOM     21  O   UNL     1      -4.106  11.955  23.991  0.00  0.00    +0.000 OA
ATOM     22  H   UNL     1      -4.598  11.904  23.154  0.00  0.00    +0.000 HD
ENDBRANCH  20  21
ENDBRANCH  17  20
ENDBRANCH  13  14
ENDBRANCH  12  13
ENDBRANCH   3  12
BRANCH  10  23
ATOM     23  C   UNL     1       4.186   4.496  19.955  0.00  0.00    +0.000 C 
BRANCH  23  24
ATOM     24  C   UNL     1       3.601   3.075  19.717  0.00  0.00    +0.000 C 
ATOM     25  C   UNL     1       2.927   2.482  20.962  0.00  0.00    +0.000 C 
ATOM     26  C   UNL     1       1.509   2.970  21.224  0.00  0.00    +0.000 C 
ATOM     27  C   UNL     1       0.615   3.091  19.996  0.00  0.00    +0.000 C 
ATOM     28  C   UNL     1       1.295   3.576  18.721  0.00  0.00    +0.000 C 
ATOM     29  C   UNL     1       2.682   2.999  18.495  0.00  0.00    +0.000 C 
ENDBRANCH  23  24
ENDBRANCH  10  23
TORSDOF 7
ENDMDL
MODEL 8
REMARK VINA RESULT:      -7.6      1.001      1.448
REMARK  Name = 
REMARK  7 active torsions:
REMARK  status: ('A' for Active; 'I' for Inactive)
REMARK    1  A    between atoms: C_3  and  O_4
REMARK    2  A    between atoms: O_4  and  C_5
REMARK    3  A    between atoms: C_5  and  C_6
REMARK    4  A    between atoms: C_9  and  C_10
REMARK    5  A    between atoms: C_10  and  O_11
REMARK    6  A    between atoms: C_20  and  C_21
REMARK    7  A    between atoms: C_21  and  C_22
REMARK                            x       y       z     vdW  Elec       q    Type
REMARK                         _______ _______ _______ _____ _____    ______ ____
ROOT
ATOM      1  O   UNL     1       3.097   8.082  17.903  0.00  0.00    +0.000 OA
ATOM      2  C   UNL     1       2.485   7.648  18.868  0.00  0.00    +0.000 A 
ATOM      3  C   UNL     1       1.539   8.544  19.633  0.00  0.00    +0.000 A 
ATOM      4  C   UNL     1       0.977   8.028  20.731  0.00  0.00    +0.000 A 
ATOM      5  O   UNL     1       1.168   6.775  21.243  0.00  0.00    +0.000 OA
ATOM      6  C   UNL     1       1.964   5.909  20.543  0.00  0.00    +0.000 A 
ATOM      7  C   UNL     1       2.019   4.622  21.091  0.00  0.00    +0.000 A 
ATOM      8  C   UNL     1       2.789   3.644  20.488  0.00  0.00    +0.000 A 
ATOM      9  C   UNL     1       3.480   3.946  19.320  0.00  0.00    +0.000 A 
ATOM     10  C   UNL     1       3.393   5.223  18.712  0.00  0.00    +0.000 A 
ATOM     11  C   UNL     1       2.647   6.240  19.363  0.00  0.00    +0.000 A 
ENDROOT
BRANCH   3  12
ATOM     12  O   UNL     1       1.297   9.825  19.147  0.00  0.00    +0.000 OA
BRANCH  12  13
ATOM     13  C   UNL     1       0.588   9.910  17.898  0.00  0.00    +0.000 C 
BRANCH  13  14
ATOM     14  C   UNL     1      -0.857  10.342  18.058  0.00  0.00    +0.000 A 
ATOM     15  C   UNL     1      -1.230  11.294  19.013  0.00  0.00    +0.000 A 
ATOM     16  C   UNL     1      -2.541  11.777  19.065  0.00  0.00    +0.000 A 
ATOM     17  C   UNL     1      -3.508  11.324  18.161  0.00  0.00    +0.000 A 
ATOM     18  C   UNL     1      -3.150  10.348  17.221  0.00  0.00    +0.000 A 
ATOM     19  C   UNL     1      -1.836   9.865  17.170  0.00  0.00    +0.000 A 
BRANCH  17  20
ATOM     20  C   UNL     1      -4.902  11.894  18.186  0.00  0.00    +0.000 C 
BRANCH  20  21
ATOM     21  O   UNL     1      -5.726  11.231  17.235  0.00  0.00    +0.000 OA
ATOM     22  H   UNL     1      -5.302  11.344  16.367  0.00  0.00    +0.000 HD
ENDBRANCH  20  21
ENDBRANCH  17  20
ENDBRANCH  13  14
ENDBRANCH  12  13
ENDBRANCH   3  12
BRANCH  10  23
ATOM     23  C   UNL     1       3.978   5.305  17.306  0.00  0.00    +0.000 C 
BRANCH  23  24
ATOM     24  C   UNL     1       5.082   4.228  17.111  0.00  0.00    +0.000 C 
ATOM     25  C   UNL     1       5.046   3.569  15.726  0.00  0.00    +0.000 C 
ATOM     26  C   UNL     1       5.699   4.371  14.610  0.00  0.00    +0.000 C 
ATOM     27  C   UNL     1       7.013   5.054  14.969  0.00  0.00    +0.000 C 
ATOM     28  C   UNL     1       7.105   5.621  16.381  0.00  0.00    +0.000 C 
ATOM     29  C   UNL     1       6.486   4.736  17.450  0.00  0.00    +0.000 C 
ENDBRANCH  23  24
ENDBRANCH  10  23
TORSDOF 7
ENDMDL
MODEL 9
REMARK VINA RESULT:      -7.6      2.203      2.810
REMARK  Name = 
REMARK  7 active torsions:
REMARK  status: ('A' for Active; 'I' for Inactive)
REMARK    1  A    between atoms: C_3  and  O_4
REMARK    2  A    between atoms: O_4  and  C_5
REMARK    3  A    between atoms: C_5  and  C_6
REMARK    4  A    between atoms: C_9  and  C_10
REMARK    5  A    between atoms: C_10  and  O_11
REMARK    6  A    between atoms: C_20  and  C_21
REMARK    7  A    between atoms: C_21  and  C_22
REMARK                            x       y       z     vdW  Elec       q    Type
REMARK                         _______ _______ _______ _____ _____    ______ ____
ROOT
ATOM      1  O   UNL     1       3.694   6.901  18.564  0.00  0.00    +0.000 OA
ATOM      2  C   UNL     1       2.965   6.065  19.077  0.00  0.00    +0.000 A 
ATOM      3  C   UNL     1       1.934   6.481  20.101  0.00  0.00    +0.000 A 
ATOM      4  C   UNL     1       1.238   5.502  20.687  0.00  0.00    +0.000 A 
ATOM      5  O   UNL     1       1.360   4.159  20.465  0.00  0.00    +0.000 OA
ATOM      6  C   UNL     1       2.234   3.743  19.497  0.00  0.00    +0.000 A 
ATOM      7  C   UNL     1       2.215   2.362  19.273  0.00  0.00    +0.000 A 
ATOM      8  C   UNL     1       3.052   1.803  18.324  0.00  0.00    +0.000 A 
ATOM      9  C   UNL     1       3.883   2.629  17.578  0.00  0.00    +0.000 A 
ATOM     10  C   UNL     1       3.878   4.036  17.742  0.00  0.00    +0.000 A 
ATOM     11  C   UNL     1       3.059   4.601  18.756  0.00  0.00    +0.000 A 
ENDROOT
BRANCH   3  12
ATOM     12  O   UNL     1       1.759   7.838  20.353  0.00  0.00    +0.000 OA
BRANCH  12  13
ATOM     13  C   UNL     1       1.213   8.183  21.639  0.00  0.00    +0.000 C 
BRANCH  13  14
ATOM     14  C   UNL     1       0.433   9.483  21.629  0.00  0.00    +0.000 A 
ATOM     15  C   UNL     1       0.194  10.180  20.440  0.00  0.00    +0.000 A 
ATOM     16  C   UNL     1      -0.632  11.308  20.427  0.00  0.00    +0.000 A 
ATOM     17  C   UNL     1      -1.244  11.762  21.601  0.00  0.00    +0.000 A 
ATOM     18  C   UNL     1      -0.986  11.087  22.802  0.00  0.00    +0.000 A 
ATOM     19  C   UNL     1      -0.157   9.957  22.814  0.00  0.00    +0.000 A 
BRANCH  17  20
ATOM     20  C   UNL     1      -2.180  12.941  21.566  0.00  0.00    +0.000 C 
BRANCH  20  21
ATOM     21  O   UNL     1      -3.519  12.505  21.365  0.00  0.00    +0.000 OA
ATOM     22  H   UNL     1      -4.096  13.160  21.794  0.00  0.00    +0.000 HD
ENDBRANCH  20  21
ENDBRANCH  17  20
ENDBRANCH  13  14
ENDBRANCH  12  13
ENDBRANCH   3  12
BRANCH  10  23
ATOM     23  C   UNL     1       4.633   4.812  16.668  0.00  0.00    +0.000 C 
BRANCH  23  24
ATOM     24  C   UNL     1       6.158   4.519  16.757  0.00  0.00    +0.000 C 
ATOM     25  C   UNL     1       7.015   5.544  16.003  0.00  0.00    +0.000 C 
ATOM     26  C   UNL     1       7.271   6.847  16.748  0.00  0.00    +0.000 C 
ATOM     27  C   UNL     1       7.580   6.708  18.233  0.00  0.00    +0.000 C 
ATOM     28  C   UNL     1       6.814   5.619  18.975  0.00  0.00    +0.000 C 
ATOM     29  C   UNL     1       6.653   4.327  18.193  0.00  0.00    +0.000 C 
ENDBRANCH  23  24
ENDBRANCH  10  23
TORSDOF 7
ENDMDL
