MODEL 1
REMARK VINA RESULT:      -7.2      0.000      0.000
REMARK  Name = 
REMARK  6 active torsions:
REMARK  status: ('A' for Active; 'I' for Inactive)
REMARK    1  A    between atoms: C_1  and  C_2
REMARK    2  A    between atoms: C_3  and  C_4
REMARK    3  A    between atoms: N_7  and  C_8
REMARK    4  A    between atoms: C_8  and  C_9
REMARK    5  A    between atoms: C_9  and  C_10
REMARK    6  A    between atoms: C_10  and  C_11
REMARK                            x       y       z     vdW  Elec       q    Type
REMARK                         _______ _______ _______ _____ _____    ______ ____
ROOT
ATOM      1  C   UNL     1       8.001   7.897  17.535  0.00  0.00    +0.000 C 
ATOM      2  C   UNL     1       7.174   6.693  17.790  0.00  0.00    +0.000 C 
ATOM      3  C   UNL     1       7.231   5.779  18.765  0.00  0.00    +0.000 C 
ATOM      4  C   UNL     1       8.140   5.660  19.930  0.00  0.00    +0.000 C 
ATOM      5  C   UNL     1       6.101   4.850  18.569  0.00  0.00    +0.000 C 
ATOM      6  O   UNL     1       5.884   3.877  19.269  0.00  0.00    +0.000 OA
ATOM      7  N   UNL     1       5.381   5.307  17.515  0.00  0.00    +0.000 N 
ATOM      8  C   UNL     1       6.002   6.375  16.952  0.00  0.00    +0.000 C 
ATOM      9  O   UNL     1       5.675   7.003  15.961  0.00  0.00    +0.000 OA
ENDROOT
BRANCH   7  10
ATOM     10  C   UNL     1       4.118   4.750  17.062  0.00  0.00    +0.000 C 
BRANCH  10  11
ATOM     11  C   UNL     1       2.912   5.562  17.531  0.00  0.00    +0.000 C 
BRANCH  11  12
ATOM     12  C   UNL     1       1.667   4.684  17.721  0.00  0.00    +0.000 C 
BRANCH  12  13
ATOM     13  C   UNL     1       1.625   4.084  19.108  0.00  0.00    +0.000 A 
ATOM     14  C   UNL     1       2.108   4.798  20.213  0.00  0.00    +0.000 A 
ATOM     15  C   UNL     1       2.127   4.219  21.482  0.00  0.00    +0.000 A 
ATOM     16  C   UNL     1       1.658   2.915  21.661  0.00  0.00    +0.000 A 
ATOM     17  C   UNL     1       1.164   2.200  20.572  0.00  0.00    +0.000 A 
ATOM     18  C   UNL     1       1.147   2.781  19.302  0.00  0.00    +0.000 A 
ENDBRANCH  12  13
ENDBRANCH  11  12
ENDBRANCH  10  11
ENDBRANCH   7  10
TORSDOF 4
ENDMDL
MODEL 2
REMARK VINA RESULT:      -7.1      0.640      2.200
REMARK  Name = 
REMARK  6 active torsions:
REMARK  status: ('A' for Active; 'I' for Inactive)
REMARK    1  A    between atoms: C_1  and  C_2
REMARK    2  A    between atoms: C_3  and  C_4
REMARK    3  A    between atoms: N_7  and  C_8
REMARK    4  A    between atoms: C_8  and  C_9
REMARK    5  A    between atoms: C_9  and  C_10
REMARK    6  A    between atoms: C_10  and  C_11
REMARK                            x       y       z     vdW  Elec       q    Type
REMARK                         _______ _______ _______ _____ _____    ______ ____
ROOT
ATOM      1  C   UNL     1       7.890   5.705  19.768  0.00  0.00    +0.000 C 
ATOM      2  C   UNL     1       7.031   5.812  18.564  0.00  0.00    +0.000 C 
ATOM      3  C   UNL     1       6.939   6.768  17.634  0.00  0.00    +0.000 C 
ATOM      4  C   UNL     1       7.668   8.050  17.485  0.00  0.00    +0.000 C 
ATOM      5  C   UNL     1       5.979   6.303  16.612  0.00  0.00    +0.000 C 
ATOM      6  O   UNL     1       5.641   6.956  15.642  0.00  0.00    +0.000 OA
ATOM      7  N   UNL     1       5.601   5.047  16.957  0.00  0.00    +0.000 N 
ATOM      8  C   UNL     1       6.140   4.708  18.155  0.00  0.00    +0.000 C 
ATOM      9  O   UNL     1       5.974   3.686  18.797  0.00  0.00    +0.000 OA
ENDROOT
BRANCH   7  10
ATOM     10  C   UNL     1       4.755   4.180  16.154  0.00  0.00    +0.000 C 
BRANCH  10  11
ATOM     11  C   UNL     1       3.648   3.514  16.970  0.00  0.00    +0.000 C 
BRANCH  11  12
ATOM     12  C   UNL     1       2.688   4.543  17.582  0.00  0.00    +0.000 C 
BRANCH  12  13
ATOM     13  C   UNL     1       2.263   4.137  18.974  0.00  0.00    +0.000 A 
ATOM     14  C   UNL     1       2.738   4.825  20.099  0.00  0.00    +0.000 A 
ATOM     15  C   UNL     1       2.396   4.410  21.386  0.00  0.00    +0.000 A 
ATOM     16  C   UNL     1       1.567   3.298  21.563  0.00  0.00    +0.000 A 
ATOM     17  C   UNL     1       1.078   2.614  20.452  0.00  0.00    +0.000 A 
ATOM     18  C   UNL     1       1.423   3.030  19.165  0.00  0.00    +0.000 A 
ENDBRANCH  12  13
ENDBRANCH  11  12
ENDBRANCH  10  11
ENDBRANCH   7  10
TORSDOF 4
ENDMDL
MODEL 3
REMARK VINA RESULT:      -6.9      0.698      2.485
REMARK  Name = 
REMARK  6 active torsions:
REMARK  status: ('A' for Active; 'I' for Inactive)
REMARK    1  A    between atoms: C_1  and  C_2
REMARK    2  A    between atoms: C_3  and  C_4
REMARK    3  A    between atoms: N_7  and  C_8
REMARK    4  A    between atoms: C_8  and  C_9
REMARK    5  A    between atoms: C_9  and  C_10
REMARK    6  A    between atoms: C_10  and  C_11
REMARK                            x       y       z     vdW  Elec       q    Type
REMARK                         _______ _______ _______ _____ _____    ______ ____
ROOT
ATOM      1  C   UNL     1       7.902   5.745  19.808  0.00  0.00    +0.000 C 
ATOM      2  C   UNL     1       7.068   5.802  18.583  0.00  0.00    +0.000 C 
ATOM      3  C   UNL     1       6.971   6.736  17.631  0.00  0.00    +0.000 C 
ATOM      4  C   UNL     1       7.667   8.035  17.471  0.00  0.00    +0.000 C 
ATOM      5  C   UNL     1       6.048   6.222  16.599  0.00  0.00    +0.000 C 
ATOM      6  O   UNL     1       5.714   6.845  15.607  0.00  0.00    +0.000 OA
ATOM      7  N   UNL     1       5.696   4.964  16.962  0.00  0.00    +0.000 N 
ATOM      8  C   UNL     1       6.218   4.665  18.179  0.00  0.00    +0.000 C 
ATOM      9  O   UNL     1       6.066   3.653  18.839  0.00  0.00    +0.000 OA
ENDROOT
BRANCH   7  10
ATOM     10  C   UNL     1       4.894   4.057  16.159  0.00  0.00    +0.000 C 
BRANCH  10  11
ATOM     11  C   UNL     1       3.444   3.975  16.634  0.00  0.00    +0.000 C 
BRANCH  11  12
ATOM     12  C   UNL     1       3.132   5.023  17.710  0.00  0.00    +0.000 C 
BRANCH  12  13
ATOM     13  C   UNL     1       2.494   4.389  18.925  0.00  0.00    +0.000 A 
ATOM     14  C   UNL     1       1.461   3.452  18.786  0.00  0.00    +0.000 A 
ATOM     15  C   UNL     1       0.830   2.915  19.909  0.00  0.00    +0.000 A 
ATOM     16  C   UNL     1       1.230   3.309  21.189  0.00  0.00    +0.000 A 
ATOM     17  C   UNL     1       2.265   4.230  21.339  0.00  0.00    +0.000 A 
ATOM     18  C   UNL     1       2.894   4.767  20.215  0.00  0.00    +0.000 A 
ENDBRANCH  12  13
ENDBRANCH  11  12
ENDBRANCH  10  11
ENDBRANCH   7  10
TORSDOF 4
ENDMDL
MODEL 4
REMARK VINA RESULT:      -6.9      1.183      2.805
REMARK  Name = 
REMARK  6 active torsions:
REMARK  status: ('A' for Active; 'I' for Inactive)
REMARK    1  A    between atoms: C_1  and  C_2
REMARK    2  A    between atoms: C_3  and  C_4
REMARK    3  A    between atoms: N_7  and  C_8
REMARK    4  A    between atoms: C_8  and  C_9
REMARK    5  A    between atoms: C_9  and  C_10
REMARK    6  A    between atoms: C_10  and  C_11
REMARK                            x       y       z     vdW  Elec       q    Type
REMARK                         _______ _______ _______ _____ _____    ______ ____
ROOT
ATOM      1  C   UNL     1       7.926   5.730  19.776  0.00  0.00    +0.000 C 
ATOM      2  C   UNL     1       7.025   5.780  18.600  0.00  0.00    +0.000 C 
ATOM      3  C   UNL     1       6.919   6.676  17.613  0.00  0.00    +0.000 C 
ATOM      4  C   UNL     1       7.671   7.927  17.354  0.00  0.00    +0.000 C 
ATOM      5  C   UNL     1       5.910   6.171  16.661  0.00  0.00    +0.000 C 
ATOM      6  O   UNL     1       5.550   6.768  15.663  0.00  0.00    +0.000 OA
ATOM      7  N   UNL     1       5.516   4.950  17.102  0.00  0.00    +0.000 N 
ATOM      8  C   UNL     1       6.093   4.676  18.299  0.00  0.00    +0.000 C 
ATOM      9  O   UNL     1       5.928   3.702  19.012  0.00  0.00    +0.000 OA
ENDROOT
BRANCH   7  10
ATOM     10  C   UNL     1       4.620   4.055  16.389  0.00  0.00    +0.000 C 
BRANCH  10  11
ATOM     11  C   UNL     1       3.686   3.287  17.324  0.00  0.00    +0.000 C 
BRANCH  11  12
ATOM     12  C   UNL     1       2.273   3.887  17.343  0.00  0.00    +0.000 C 
BRANCH  12  13
ATOM     13  C   UNL     1       2.142   4.947  18.412  0.00  0.00    +0.000 A 
ATOM     14  C   UNL     1       2.444   6.288  18.134  0.00  0.00    +0.000 A 
ATOM     15  C   UNL     1       2.383   7.254  19.139  0.00  0.00    +0.000 A 
ATOM     16  C   UNL     1       2.014   6.890  20.437  0.00  0.00    +0.000 A 
ATOM     17  C   UNL     1       1.699   5.563  20.721  0.00  0.00    +0.000 A 
ATOM     18  C   UNL     1       1.762   4.597  19.715  0.00  0.00    +0.000 A 
ENDBRANCH  12  13
ENDBRANCH  11  12
ENDBRANCH  10  11
ENDBRANCH   7  10
TORSDOF 4
ENDMDL
MODEL 5
REMARK VINA RESULT:      -6.9      1.718      5.520
REMARK  Name = 
REMARK  6 active torsions:
REMARK  status: ('A' for Active; 'I' for Inactive)
REMARK    1  A    between atoms: C_1  and  C_2
REMARK    2  A    between atoms: C_3  and  C_4
REMARK    3  A    between atoms: N_7  and  C_8
REMARK    4  A    between atoms: C_8  and  C_9
REMARK    5  A    between atoms: C_9  and  C_10
REMARK    6  A    between atoms: C_10  and  C_11
REMARK                            x       y       z     vdW  Elec       q    Type
REMARK                         _______ _______ _______ _____ _____    ______ ____
ROOT
ATOM      1  C   UNL     1       1.710   6.307  20.833  0.00  0.00    +0.000 C 
ATOM      2  C   UNL     1       2.182   5.125  20.073  0.00  0.00    +0.000 C 
ATOM      3  C   UNL     1       2.167   3.823  20.376  0.00  0.00    +0.000 C 
ATOM      4  C   UNL     1       1.668   3.112  21.578  0.00  0.00    +0.000 C 
ATOM      5  C   UNL     1       2.686   3.088  19.205  0.00  0.00    +0.000 C 
ATOM      6  O   UNL     1       2.836   1.880  19.165  0.00  0.00    +0.000 OA
ATOM      7  N   UNL     1       2.919   4.000  18.228  0.00  0.00    +0.000 N 
ATOM      8  C   UNL     1       2.703   5.254  18.697  0.00  0.00    +0.000 C 
ATOM      9  O   UNL     1       2.865   6.315  18.121  0.00  0.00    +0.000 OA
ENDROOT
BRANCH   7  10
ATOM     10  C   UNL     1       3.322   3.681  16.869  0.00  0.00    +0.000 C 
BRANCH  10  11
ATOM     11  C   UNL     1       4.840   3.677  16.690  0.00  0.00    +0.000 C 
BRANCH  11  12
ATOM     12  C   UNL     1       5.348   4.990  16.077  0.00  0.00    +0.000 C 
BRANCH  12  13
ATOM     13  C   UNL     1       6.299   5.700  17.013  0.00  0.00    +0.000 A 
ATOM     14  C   UNL     1       6.652   7.039  16.797  0.00  0.00    +0.000 A 
ATOM     15  C   UNL     1       7.579   7.674  17.625  0.00  0.00    +0.000 A 
ATOM     16  C   UNL     1       8.163   6.974  18.684  0.00  0.00    +0.000 A 
ATOM     17  C   UNL     1       7.810   5.646  18.916  0.00  0.00    +0.000 A 
ATOM     18  C   UNL     1       6.884   5.012  18.086  0.00  0.00    +0.000 A 
ENDBRANCH  12  13
ENDBRANCH  11  12
ENDBRANCH  10  11
ENDBRANCH   7  10
TORSDOF 4
ENDMDL
MODEL 6
REMARK VINA RESULT:      -6.9      2.207      3.391
REMARK  Name = 
REMARK  6 active torsions:
REMARK  status: ('A' for Active; 'I' for Inactive)
REMARK    1  A    between atoms: C_1  and  C_2
REMARK    2  A    between atoms: C_3  and  C_4
REMARK    3  A    between atoms: N_7  and  C_8
REMARK    4  A    between atoms: C_8  and  C_9
REMARK    5  A    between atoms: C_9  and  C_10
REMARK    6  A    between atoms: C_10  and  C_11
REMARK                            x       y       z     vdW  Elec       q    Type
REMARK                         _______ _______ _______ _____ _____    ______ ____
ROOT
ATOM      1  C   UNL     1       7.697   7.838  17.368  0.00  0.00    +0.000 C 
ATOM      2  C   UNL     1       6.908   6.623  17.685  0.00  0.00    +0.000 C 
ATOM      3  C   UNL     1       7.039   5.723  18.666  0.00  0.00    +0.000 C 
ATOM      4  C   UNL     1       8.018   5.633  19.776  0.00  0.00    +0.000 C 
ATOM      5  C   UNL     1       5.916   4.771  18.548  0.00  0.00    +0.000 C 
ATOM      6  O   UNL     1       5.759   3.803  19.270  0.00  0.00    +0.000 OA
ATOM      7  N   UNL     1       5.127   5.203  17.533  0.00  0.00    +0.000 N 
ATOM      8  C   UNL     1       5.693   6.274  16.923  0.00  0.00    +0.000 C 
ATOM      9  O   UNL     1       5.297   6.885  15.946  0.00  0.00    +0.000 OA
ENDROOT
BRANCH   7  10
ATOM     10  C   UNL     1       3.849   4.618  17.164  0.00  0.00    +0.000 C 
BRANCH  10  11
ATOM     11  C   UNL     1       2.690   5.152  18.005  0.00  0.00    +0.000 C 
BRANCH  11  12
ATOM     12  C   UNL     1       3.170   6.120  19.094  0.00  0.00    +0.000 C 
BRANCH  12  13
ATOM     13  C   UNL     1       2.391   7.415  19.060  0.00  0.00    +0.000 A 
ATOM     14  C   UNL     1       2.358   8.201  17.900  0.00  0.00    +0.000 A 
ATOM     15  C   UNL     1       1.691   9.427  17.890  0.00  0.00    +0.000 A 
ATOM     16  C   UNL     1       1.044   9.880  19.043  0.00  0.00    +0.000 A 
ATOM     17  C   UNL     1       1.060   9.100  20.198  0.00  0.00    +0.000 A 
ATOM     18  C   UNL     1       1.729   7.875  20.207  0.00  0.00    +0.000 A 
ENDBRANCH  12  13
ENDBRANCH  11  12
ENDBRANCH  10  11
ENDBRANCH   7  10
TORSDOF 4
ENDMDL
MODEL 7
REMARK VINA RESULT:      -6.8      1.807      5.936
REMARK  Name = 
REMARK  6 active torsions:
REMARK  status: ('A' for Active; 'I' for Inactive)
REMARK    1  A    between atoms: C_1  and  C_2
REMARK    2  A    between atoms: C_3  and  C_4
REMARK    3  A    between atoms: N_7  and  C_8
REMARK    4  A    between atoms: C_8  and  C_9
REMARK    5  A    between atoms: C_9  and  C_10
REMARK    6  A    between atoms: C_10  and  C_11
REMARK                            x       y       z     vdW  Elec       q    Type
REMARK                         _______ _______ _______ _____ _____    ______ ____
ROOT
ATOM      1  C   UNL     1       1.817   3.233  21.702  0.00  0.00    +0.000 C 
ATOM      2  C   UNL     1       2.001   3.899  20.390  0.00  0.00    +0.000 C 
ATOM      3  C   UNL     1       1.920   5.188  20.041  0.00  0.00    +0.000 C 
ATOM      4  C   UNL     1       1.619   6.394  20.849  0.00  0.00    +0.000 C 
ATOM      5  C   UNL     1       2.290   5.286  18.616  0.00  0.00    +0.000 C 
ATOM      6  O   UNL     1       2.284   6.322  17.976  0.00  0.00    +0.000 OA
ATOM      7  N   UNL     1       2.646   4.043  18.205  0.00  0.00    +0.000 N 
ATOM      8  C   UNL     1       2.435   3.144  19.199  0.00  0.00    +0.000 C 
ATOM      9  O   UNL     1       2.588   1.935  19.170  0.00  0.00    +0.000 OA
ENDROOT
BRANCH   7  10
ATOM     10  C   UNL     1       3.192   3.721  16.898  0.00  0.00    +0.000 C 
BRANCH  10  11
ATOM     11  C   UNL     1       4.717   3.620  16.904  0.00  0.00    +0.000 C 
BRANCH  11  12
ATOM     12  C   UNL     1       5.371   4.773  16.131  0.00  0.00    +0.000 C 
BRANCH  12  13
ATOM     13  C   UNL     1       6.364   5.519  16.993  0.00  0.00    +0.000 A 
ATOM     14  C   UNL     1       6.970   4.895  18.092  0.00  0.00    +0.000 A 
ATOM     15  C   UNL     1       7.838   5.603  18.924  0.00  0.00    +0.000 A 
ATOM     16  C   UNL     1       8.114   6.948  18.662  0.00  0.00    +0.000 A 
ATOM     17  C   UNL     1       7.527   7.575  17.565  0.00  0.00    +0.000 A 
ATOM     18  C   UNL     1       6.657   6.865  16.734  0.00  0.00    +0.000 A 
ENDBRANCH  12  13
ENDBRANCH  11  12
ENDBRANCH  10  11
ENDBRANCH   7  10
TORSDOF 4
ENDMDL
MODEL 8
REMARK VINA RESULT:      -6.7      2.335      5.162
REMARK  Name = 
REMARK  6 active torsions:
REMARK  status: ('A' for Active; 'I' for Inactive)
REMARK    1  A    between atoms: C_1  and  C_2
REMARK    2  A    between atoms: C_3  and  C_4
REMARK    3  A    between atoms: N_7  and  C_8
REMARK    4  A    between atoms: C_8  and  C_9
REMARK    5  A    between atoms: C_9  and  C_10
REMARK    6  A    between atoms: C_10  and  C_11
REMARK                            x       y       z     vdW  Elec       q    Type
REMARK                         _______ _______ _______ _____ _____    ______ ____
ROOT
ATOM      1  C   UNL     1       2.723   2.636  21.483  0.00  0.00    +0.000 C 
ATOM      2  C   UNL     1       2.820   2.789  20.011  0.00  0.00    +0.000 C 
ATOM      3  C   UNL     1       1.871   2.893  19.075  0.00  0.00    +0.000 C 
ATOM      4  C   UNL     1       0.392   2.895  19.189  0.00  0.00    +0.000 C 
ATOM      5  C   UNL     1       2.545   3.116  17.781  0.00  0.00    +0.000 C 
ATOM      6  O   UNL     1       1.966   3.218  16.714  0.00  0.00    +0.000 OA
ATOM      7  N   UNL     1       3.876   3.205  18.030  0.00  0.00    +0.000 N 
ATOM      8  C   UNL     1       4.124   2.952  19.340  0.00  0.00    +0.000 C 
ATOM      9  O   UNL     1       5.201   2.890  19.907  0.00  0.00    +0.000 OA
ENDROOT
BRANCH   7  10
ATOM     10  C   UNL     1       4.888   3.541  17.044  0.00  0.00    +0.000 C 
BRANCH  10  11
ATOM     11  C   UNL     1       4.853   5.015  16.641  0.00  0.00    +0.000 C 
BRANCH  11  12
ATOM     12  C   UNL     1       5.131   5.942  17.832  0.00  0.00    +0.000 C 
BRANCH  12  13
ATOM     13  C   UNL     1       3.898   6.728  18.214  0.00  0.00    +0.000 A 
ATOM     14  C   UNL     1       3.427   7.766  17.397  0.00  0.00    +0.000 A 
ATOM     15  C   UNL     1       2.326   8.532  17.783  0.00  0.00    +0.000 A 
ATOM     16  C   UNL     1       1.679   8.265  18.992  0.00  0.00    +0.000 A 
ATOM     17  C   UNL     1       2.131   7.228  19.806  0.00  0.00    +0.000 A 
ATOM     18  C   UNL     1       3.233   6.464  19.420  0.00  0.00    +0.000 A 
ENDBRANCH  12  13
ENDBRANCH  11  12
ENDBRANCH  10  11
ENDBRANCH   7  10
TORSDOF 4
ENDMDL
MODEL 9
REMARK VINA RESULT:      -6.7      2.352      3.396
REMARK  Name = 
REMARK  6 active torsions:
REMARK  status: ('A' for Active; 'I' for Inactive)
REMARK    1  A    between atoms: C_1  and  C_2
REMARK    2  A    between atoms: C_3  and  C_4
REMARK    3  A    between atoms: N_7  and  C_8
REMARK    4  A    between atoms: C_8  and  C_9
REMARK    5  A    between atoms: C_9  and  C_10
REMARK    6  A    between atoms: C_10  and  C_11
REMARK                            x       y       z     vdW  Elec       q    Type
REMARK                         _______ _______ _______ _____ _____    ______ ____
ROOT
ATOM      1  C   UNL     1       7.801   7.871  17.462  0.00  0.00    +0.000 C 
ATOM      2  C   UNL     1       6.987   6.673  17.782  0.00  0.00    +0.000 C 
ATOM      3  C   UNL     1       7.114   5.758  18.749  0.00  0.00    +0.000 C 
ATOM      4  C   UNL     1       8.112   5.630  19.838  0.00  0.00    +0.000 C 
ATOM      5  C   UNL     1       5.965   4.837  18.642  0.00  0.00    +0.000 C 
ATOM      6  O   UNL     1       5.797   3.865  19.357  0.00  0.00    +0.000 OA
ATOM      7  N   UNL     1       5.167   5.301  17.649  0.00  0.00    +0.000 N 
ATOM      8  C   UNL     1       5.749   6.365  17.039  0.00  0.00    +0.000 C 
ATOM      9  O   UNL     1       5.350   6.997  16.078  0.00  0.00    +0.000 OA
ENDROOT
BRANCH   7  10
ATOM     10  C   UNL     1       3.868   4.754  17.298  0.00  0.00    +0.000 C 
BRANCH  10  11
ATOM     11  C   UNL     1       2.715   5.689  17.662  0.00  0.00    +0.000 C 
BRANCH  11  12
ATOM     12  C   UNL     1       2.873   6.272  19.073  0.00  0.00    +0.000 C 
BRANCH  12  13
ATOM     13  C   UNL     1       2.164   7.601  19.200  0.00  0.00    +0.000 A 
ATOM     14  C   UNL     1       1.680   8.040  20.441  0.00  0.00    +0.000 A 
ATOM     15  C   UNL     1       0.970   9.236  20.545  0.00  0.00    +0.000 A 
ATOM     16  C   UNL     1       0.738  10.012  19.406  0.00  0.00    +0.000 A 
ATOM     17  C   UNL     1       1.224   9.591  18.170  0.00  0.00    +0.000 A 
ATOM     18  C   UNL     1       1.933   8.393  18.067  0.00  0.00    +0.000 A 
ENDBRANCH  12  13
ENDBRANCH  11  12
ENDBRANCH  10  11
ENDBRANCH   7  10
TORSDOF 4
ENDMDL
