MODEL 1
REMARK VINA RESULT:      -8.6      0.000      0.000
REMARK  Name = 
REMARK  6 active torsions:
REMARK  status: ('A' for Active; 'I' for Inactive)
REMARK    1  A    between atoms: N_1  and  C_2
REMARK    2  A    between atoms: C_8  and  O_9
REMARK    3  A    between atoms: O_9  and  C_10
REMARK    4  A    between atoms: N_18  and  C_19
REMARK    5  A    between atoms: C_19  and  C_20
REMARK    6  A    between atoms: C_20  and  C_21
REMARK                            x       y       z     vdW  Elec       q    Type
REMARK                         _______ _______ _______ _____ _____    ______ ____
ROOT
ATOM      1  C   UNL     1       7.257   6.258  17.586  0.00  0.00    +0.000 A 
ATOM      2  N   UNL     1       7.852   6.345  18.792  0.00  0.00    +0.000 NA
ATOM      3  C   UNL     1       7.369   5.593  19.804  0.00  0.00    +0.000 A 
ATOM      4  N   UNL     1       6.334   4.728  19.782  0.00  0.00    +0.000 NA
ATOM      5  C   UNL     1       5.770   4.682  18.562  0.00  0.00    +0.000 A 
ATOM      6  C   UNL     1       6.154   5.413  17.453  0.00  0.00    +0.000 A 
ATOM      7  C   UNL     1       5.226   5.049  16.466  0.00  0.00    +0.000 A 
ATOM      8  N   UNL     1       4.339   4.132  16.874  0.00  0.00    +0.000 NA
ATOM      9  N   UNL     1       4.717   3.900  18.153  0.00  0.00    +0.000 N 
ENDROOT
BRANCH   1  10
ATOM     10  N   UNL     1       7.773   7.026  16.557  0.00  0.00    +0.000 N 
ATOM     11  H   UNL     1       8.748   7.262  16.697  0.00  0.00    +0.000 HD
ATOM     12  H   UNL     1       7.170   7.736  16.167  0.00  0.00    +0.000 HD
ENDBRANCH   1  10
BRANCH   7  13
ATOM     13  O   UNL     1       5.212   5.510  15.197  0.00  0.00    +0.000 OA
BRANCH  13  14
ATOM     14  C   UNL     1       5.857   4.873  14.164  0.00  0.00    +0.000 A 
ATOM     15  C   UNL     1       7.113   5.378  13.821  0.00  0.00    +0.000 A 
ATOM     16  C   UNL     1       7.817   4.829  12.750  0.00  0.00    +0.000 A 
ATOM     17  C   UNL     1       7.261   3.782  12.015  0.00  0.00    +0.000 A 
ATOM     18  C   UNL     1       5.997   3.296  12.349  0.00  0.00    +0.000 A 
ATOM     19 CL   UNL     1       5.307   2.016  11.429  0.00  0.00    +0.000 Cl
ATOM     20  C   UNL     1       5.286   3.844  13.414  0.00  0.00    +0.000 A 
ENDBRANCH  13  14
ENDBRANCH   7  13
BRANCH   9  21
ATOM     21  C   UNL     1       4.013   2.908  18.963  0.00  0.00    +0.000 C 
BRANCH  21  22
ATOM     22  C   UNL     1       2.664   3.361  19.484  0.00  0.00    +0.000 C 
ATOM     23  C   UNL     1       2.441   3.286  20.995  0.00  0.00    +0.000 C 
ATOM     24  C   UNL     1       2.587   4.623  20.343  0.00  0.00    +0.000 C 
BRANCH  22  25
ATOM     25  C   UNL     1       1.506   3.019  18.580  0.00  0.00    +0.000 C 
ATOM     26  F   UNL     1       1.112   4.068  17.822  0.00  0.00    +0.000 F 
ATOM     27  F   UNL     1       1.859   2.030  17.722  0.00  0.00    +0.000 F 
ATOM     28  F   UNL     1       0.435   2.582  19.281  0.00  0.00    +0.000 F 
ENDBRANCH  22  25
ENDBRANCH  21  22
ENDBRANCH   9  21
TORSDOF 6
ENDMDL
MODEL 2
REMARK VINA RESULT:      -8.3      4.638      7.236
REMARK  Name = 
REMARK  6 active torsions:
REMARK  status: ('A' for Active; 'I' for Inactive)
REMARK    1  A    between atoms: N_1  and  C_2
REMARK    2  A    between atoms: C_8  and  O_9
REMARK    3  A    between atoms: O_9  and  C_10
REMARK    4  A    between atoms: N_18  and  C_19
REMARK    5  A    between atoms: C_19  and  C_20
REMARK    6  A    between atoms: C_20  and  C_21
REMARK                            x       y       z     vdW  Elec       q    Type
REMARK                         _______ _______ _______ _____ _____    ______ ____
ROOT
ATOM      1  C   UNL     1       1.669   3.299  19.429  0.00  0.00    +0.000 A 
ATOM      2  N   UNL     1       1.706   2.086  18.841  0.00  0.00    +0.000 NA
ATOM      3  C   UNL     1       2.829   1.723  18.186  0.00  0.00    +0.000 A 
ATOM      4  N   UNL     1       3.969   2.426  18.028  0.00  0.00    +0.000 NA
ATOM      5  C   UNL     1       3.880   3.629  18.624  0.00  0.00    +0.000 A 
ATOM      6  C   UNL     1       2.786   4.127  19.306  0.00  0.00    +0.000 A 
ATOM      7  C   UNL     1       3.176   5.422  19.679  0.00  0.00    +0.000 A 
ATOM      8  N   UNL     1       4.426   5.733  19.315  0.00  0.00    +0.000 NA
ATOM      9  N   UNL     1       4.847   4.603  18.698  0.00  0.00    +0.000 N 
ENDROOT
BRANCH   1  10
ATOM     10  N   UNL     1       0.515   3.649  20.108  0.00  0.00    +0.000 N 
ATOM     11  H   UNL     1       0.637   4.470  20.688  0.00  0.00    +0.000 HD
ATOM     12  H   UNL     1      -0.048   2.895  20.476  0.00  0.00    +0.000 HD
ENDBRANCH   1  10
BRANCH   7  13
ATOM     13  O   UNL     1       2.421   6.294  20.381  0.00  0.00    +0.000 OA
BRANCH  13  14
ATOM     14  C   UNL     1       1.947   7.468  19.848  0.00  0.00    +0.000 A 
ATOM     15  C   UNL     1       2.239   7.692  18.500  0.00  0.00    +0.000 A 
ATOM     16  C   UNL     1       1.843   8.881  17.889  0.00  0.00    +0.000 A 
ATOM     17  C   UNL     1       1.167   9.852  18.627  0.00  0.00    +0.000 A 
ATOM     18  C   UNL     1       0.898   9.633  19.978  0.00  0.00    +0.000 A 
ATOM     19 CL   UNL     1       0.079  10.841  20.889  0.00  0.00    +0.000 Cl
ATOM     20  C   UNL     1       1.294   8.450  20.596  0.00  0.00    +0.000 A 
ENDBRANCH  13  14
ENDBRANCH   7  13
BRANCH   9  21
ATOM     21  C   UNL     1       6.208   4.509  18.176  0.00  0.00    +0.000 C 
BRANCH  21  22
ATOM     22  C   UNL     1       6.506   5.446  17.022  0.00  0.00    +0.000 C 
ATOM     23  C   UNL     1       6.939   4.807  15.702  0.00  0.00    +0.000 C 
ATOM     24  C   UNL     1       5.587   5.435  15.802  0.00  0.00    +0.000 C 
BRANCH  22  25
ATOM     25  C   UNL     1       7.165   6.739  17.431  0.00  0.00    +0.000 C 
ATOM     26  F   UNL     1       8.037   7.194  16.502  0.00  0.00    +0.000 F 
ATOM     27  F   UNL     1       6.232   7.709  17.595  0.00  0.00    +0.000 F 
ATOM     28  F   UNL     1       7.829   6.616  18.604  0.00  0.00    +0.000 F 
ENDBRANCH  22  25
ENDBRANCH  21  22
ENDBRANCH   9  21
TORSDOF 6
ENDMDL
MODEL 3
REMARK VINA RESULT:      -8.2      1.020      1.453
REMARK  Name = 
REMARK  6 active torsions:
REMARK  status: ('A' for Active; 'I' for Inactive)
REMARK    1  A    between atoms: N_1  and  C_2
REMARK    2  A    between atoms: C_8  and  O_9
REMARK    3  A    between atoms: O_9  and  C_10
REMARK    4  A    between atoms: N_18  and  C_19
REMARK    5  A    between atoms: C_19  and  C_20
REMARK    6  A    between atoms: C_20  and  C_21
REMARK                            x       y       z     vdW  Elec       q    Type
REMARK                         _______ _______ _______ _____ _____    ______ ____
ROOT
ATOM      1  C   UNL     1       7.278   6.282  17.593  0.00  0.00    +0.000 A 
ATOM      2  N   UNL     1       7.879   6.371  18.796  0.00  0.00    +0.000 NA
ATOM      3  C   UNL     1       7.400   5.622  19.812  0.00  0.00    +0.000 A 
ATOM      4  N   UNL     1       6.364   4.759  19.797  0.00  0.00    +0.000 NA
ATOM      5  C   UNL     1       5.794   4.711  18.580  0.00  0.00    +0.000 A 
ATOM      6  C   UNL     1       6.173   5.438  17.467  0.00  0.00    +0.000 A 
ATOM      7  C   UNL     1       5.240   5.074  16.485  0.00  0.00    +0.000 A 
ATOM      8  N   UNL     1       4.354   4.159  16.899  0.00  0.00    +0.000 NA
ATOM      9  N   UNL     1       4.737   3.930  18.178  0.00  0.00    +0.000 N 
ENDROOT
BRANCH   1  10
ATOM     10  N   UNL     1       7.791   7.046  16.560  0.00  0.00    +0.000 N 
ATOM     11  H   UNL     1       7.377   7.969  16.513  0.00  0.00    +0.000 HD
ATOM     12  H   UNL     1       7.979   6.573  15.687  0.00  0.00    +0.000 HD
ENDBRANCH   1  10
BRANCH   7  13
ATOM     13  O   UNL     1       5.221   5.532  15.216  0.00  0.00    +0.000 OA
BRANCH  13  14
ATOM     14  C   UNL     1       5.858   4.891  14.181  0.00  0.00    +0.000 A 
ATOM     15  C   UNL     1       7.120   5.382  13.839  0.00  0.00    +0.000 A 
ATOM     16  C   UNL     1       7.818   4.827  12.766  0.00  0.00    +0.000 A 
ATOM     17  C   UNL     1       7.249   3.789  12.028  0.00  0.00    +0.000 A 
ATOM     18  C   UNL     1       5.980   3.317  12.361  0.00  0.00    +0.000 A 
ATOM     19 CL   UNL     1       5.274   2.048  11.437  0.00  0.00    +0.000 Cl
ATOM     20  C   UNL     1       5.275   3.870  13.428  0.00  0.00    +0.000 A 
ENDBRANCH  13  14
ENDBRANCH   7  13
BRANCH   9  21
ATOM     21  C   UNL     1       4.036   2.941  18.993  0.00  0.00    +0.000 C 
BRANCH  21  22
ATOM     22  C   UNL     1       2.559   3.218  19.190  0.00  0.00    +0.000 C 
ATOM     23  C   UNL     1       1.593   2.583  18.188  0.00  0.00    +0.000 C 
ATOM     24  C   UNL     1       1.636   2.069  19.591  0.00  0.00    +0.000 C 
BRANCH  22  25
ATOM     25  C   UNL     1       2.252   4.610  19.683  0.00  0.00    +0.000 C 
ATOM     26  F   UNL     1       2.171   5.511  18.677  0.00  0.00    +0.000 F 
ATOM     27  F   UNL     1       1.054   4.628  20.318  0.00  0.00    +0.000 F 
ATOM     28  F   UNL     1       3.182   5.047  20.563  0.00  0.00    +0.000 F 
ENDBRANCH  22  25
ENDBRANCH  21  22
ENDBRANCH   9  21
TORSDOF 6
ENDMDL
MODEL 4
REMARK VINA RESULT:      -8.0      3.852      5.528
REMARK  Name = 
REMARK  6 active torsions:
REMARK  status: ('A' for Active; 'I' for Inactive)
REMARK    1  A    between atoms: N_1  and  C_2
REMARK    2  A    between atoms: C_8  and  O_9
REMARK    3  A    between atoms: O_9  and  C_10
REMARK    4  A    between atoms: N_18  and  C_19
REMARK    5  A    between atoms: C_19  and  C_20
REMARK    6  A    between atoms: C_20  and  C_21
REMARK                            x       y       z     vdW  Elec       q    Type
REMARK                         _______ _______ _______ _____ _____    ______ ____
ROOT
ATOM      1  C   UNL     1       6.221   6.549  17.332  0.00  0.00    +0.000 A 
ATOM      2  N   UNL     1       7.334   5.791  17.387  0.00  0.00    +0.000 NA
ATOM      3  C   UNL     1       7.281   4.617  18.050  0.00  0.00    +0.000 A 
ATOM      4  N   UNL     1       6.231   4.066  18.692  0.00  0.00    +0.000 NA
ATOM      5  C   UNL     1       5.149   4.861  18.616  0.00  0.00    +0.000 A 
ATOM      6  C   UNL     1       5.077   6.090  17.988  0.00  0.00    +0.000 A 
ATOM      7  C   UNL     1       3.769   6.528  18.241  0.00  0.00    +0.000 A 
ATOM      8  N   UNL     1       3.033   5.650  18.935  0.00  0.00    +0.000 NA
ATOM      9  N   UNL     1       3.894   4.622  19.123  0.00  0.00    +0.000 N 
ENDROOT
BRANCH   1  10
ATOM     10  N   UNL     1       6.289   7.743  16.636  0.00  0.00    +0.000 N 
ATOM     11  H   UNL     1       6.216   8.552  17.241  0.00  0.00    +0.000 HD
ATOM     12  H   UNL     1       5.820   7.782  15.743  0.00  0.00    +0.000 HD
ENDBRANCH   1  10
BRANCH   7  13
ATOM     13  O   UNL     1       3.235   7.690  17.809  0.00  0.00    +0.000 OA
BRANCH  13  14
ATOM     14  C   UNL     1       2.221   8.338  18.472  0.00  0.00    +0.000 A 
ATOM     15  C   UNL     1       1.451   9.217  17.707  0.00  0.00    +0.000 A 
ATOM     16  C   UNL     1       0.434   9.958  18.308  0.00  0.00    +0.000 A 
ATOM     17  C   UNL     1       0.193   9.829  19.676  0.00  0.00    +0.000 A 
ATOM     18  C   UNL     1       0.979   8.965  20.438  0.00  0.00    +0.000 A 
ATOM     19 CL   UNL     1       0.690   8.822  22.129  0.00  0.00    +0.000 Cl
ATOM     20  C   UNL     1       2.000   8.226  19.846  0.00  0.00    +0.000 A 
ENDBRANCH  13  14
ENDBRANCH   7  13
BRANCH   9  21
ATOM     21  C   UNL     1       3.461   3.413  19.820  0.00  0.00    +0.000 C 
BRANCH  21  22
ATOM     22  C   UNL     1       1.964   3.180  19.806  0.00  0.00    +0.000 C 
ATOM     23  C   UNL     1       1.330   2.661  21.098  0.00  0.00    +0.000 C 
ATOM     24  C   UNL     1       1.068   4.068  20.668  0.00  0.00    +0.000 C 
BRANCH  22  25
ATOM     25  C   UNL     1       1.432   2.654  18.497  0.00  0.00    +0.000 C 
ATOM     26  F   UNL     1       1.260   3.631  17.577  0.00  0.00    +0.000 F 
ATOM     27  F   UNL     1       2.305   1.765  17.960  0.00  0.00    +0.000 F 
ATOM     28  F   UNL     1       0.251   2.014  18.655  0.00  0.00    +0.000 F 
ENDBRANCH  22  25
ENDBRANCH  21  22
ENDBRANCH   9  21
TORSDOF 6
ENDMDL
MODEL 5
REMARK VINA RESULT:      -7.9      3.882      5.716
REMARK  Name = 
REMARK  6 active torsions:
REMARK  status: ('A' for Active; 'I' for Inactive)
REMARK    1  A    between atoms: N_1  and  C_2
REMARK    2  A    between atoms: C_8  and  O_9
REMARK    3  A    between atoms: O_9  and  C_10
REMARK    4  A    between atoms: N_18  and  C_19
REMARK    5  A    between atoms: C_19  and  C_20
REMARK    6  A    between atoms: C_20  and  C_21
REMARK                            x       y       z     vdW  Elec       q    Type
REMARK                         _______ _______ _______ _____ _____    ______ ____
ROOT
ATOM      1  C   UNL     1       6.253   6.686  16.900  0.00  0.00    +0.000 A 
ATOM      2  N   UNL     1       7.155   5.782  16.467  0.00  0.00    +0.000 NA
ATOM      3  C   UNL     1       6.769   4.494  16.350  0.00  0.00    +0.000 A 
ATOM      4  N   UNL     1       5.561   3.956  16.613  0.00  0.00    +0.000 NA
ATOM      5  C   UNL     1       4.700   4.894  17.048  0.00  0.00    +0.000 A 
ATOM      6  C   UNL     1       4.974   6.236  17.230  0.00  0.00    +0.000 A 
ATOM      7  C   UNL     1       3.779   6.762  17.744  0.00  0.00    +0.000 A 
ATOM      8  N   UNL     1       2.796   5.859  17.851  0.00  0.00    +0.000 NA
ATOM      9  N   UNL     1       3.378   4.728  17.386  0.00  0.00    +0.000 N 
ENDROOT
BRANCH   1  10
ATOM     10  N   UNL     1       6.661   8.004  17.000  0.00  0.00    +0.000 N 
ATOM     11  H   UNL     1       7.440   8.220  16.391  0.00  0.00    +0.000 HD
ATOM     12  H   UNL     1       6.660   8.416  17.923  0.00  0.00    +0.000 HD
ENDBRANCH   1  10
BRANCH   7  13
ATOM     13  O   UNL     1       3.570   8.055  18.070  0.00  0.00    +0.000 OA
BRANCH  13  14
ATOM     14  C   UNL     1       2.373   8.516  18.564  0.00  0.00    +0.000 A 
ATOM     15  C   UNL     1       1.611   9.299  17.693  0.00  0.00    +0.000 A 
ATOM     16  C   UNL     1       0.407   9.854  18.126  0.00  0.00    +0.000 A 
ATOM     17  C   UNL     1      -0.029   9.637  19.433  0.00  0.00    +0.000 A 
ATOM     18  C   UNL     1       0.747   8.873  20.304  0.00  0.00    +0.000 A 
ATOM     19 CL   UNL     1       0.213   8.622  21.921  0.00  0.00    +0.000 Cl
ATOM     20  C   UNL     1       1.952   8.320  19.880  0.00  0.00    +0.000 A 
ENDBRANCH  13  14
ENDBRANCH   7  13
BRANCH   9  21
ATOM     21  C   UNL     1       2.613   3.487  17.294  0.00  0.00    +0.000 C 
BRANCH  21  22
ATOM     22  C   UNL     1       2.596   2.662  18.566  0.00  0.00    +0.000 C 
ATOM     23  C   UNL     1       3.421   1.375  18.570  0.00  0.00    +0.000 C 
ATOM     24  C   UNL     1       3.878   2.540  19.387  0.00  0.00    +0.000 C 
BRANCH  22  25
ATOM     25  C   UNL     1       1.266   2.653  19.277  0.00  0.00    +0.000 C 
ATOM     26  F   UNL     1       1.352   2.150  20.531  0.00  0.00    +0.000 F 
ATOM     27  F   UNL     1       0.791   3.917  19.398  0.00  0.00    +0.000 F 
ATOM     28  F   UNL     1       0.339   1.936  18.601  0.00  0.00    +0.000 F 
ENDBRANCH  22  25
ENDBRANCH  21  22
ENDBRANCH   9  21
TORSDOF 6
ENDMDL
MODEL 6
REMARK VINA RESULT:      -7.8      4.172      7.252
REMARK  Name = 
REMARK  6 active torsions:
REMARK  status: ('A' for Active; 'I' for Inactive)
REMARK    1  A    between atoms: N_1  and  C_2
REMARK    2  A    between atoms: C_8  and  O_9
REMARK    3  A    between atoms: O_9  and  C_10
REMARK    4  A    between atoms: N_18  and  C_19
REMARK    5  A    between atoms: C_19  and  C_20
REMARK    6  A    between atoms: C_20  and  C_21
REMARK                            x       y       z     vdW  Elec       q    Type
REMARK                         _______ _______ _______ _____ _____    ______ ____
ROOT
ATOM      1  C   UNL     1       1.458   3.258  19.364  0.00  0.00    +0.000 A 
ATOM      2  N   UNL     1       1.396   2.180  18.557  0.00  0.00    +0.000 NA
ATOM      3  C   UNL     1       2.475   1.877  17.803  0.00  0.00    +0.000 A 
ATOM      4  N   UNL     1       3.656   2.524  17.738  0.00  0.00    +0.000 NA
ATOM      5  C   UNL     1       3.666   3.594  18.552  0.00  0.00    +0.000 A 
ATOM      6  C   UNL     1       2.626   4.022  19.356  0.00  0.00    +0.000 A 
ATOM      7  C   UNL     1       3.115   5.194  19.953  0.00  0.00    +0.000 A 
ATOM      8  N   UNL     1       4.375   5.488  19.606  0.00  0.00    +0.000 NA
ATOM      9  N   UNL     1       4.700   4.472  18.772  0.00  0.00    +0.000 N 
ENDROOT
BRANCH   1  10
ATOM     10  N   UNL     1       0.349   3.545  20.139  0.00  0.00    +0.000 N 
ATOM     11  H   UNL     1       0.473   4.374  20.706  0.00  0.00    +0.000 HD
ATOM     12  H   UNL     1      -0.137   2.762  20.554  0.00  0.00    +0.000 HD
ENDBRANCH   1  10
BRANCH   7  13
ATOM     13  O   UNL     1       2.441   5.962  20.834  0.00  0.00    +0.000 OA
BRANCH  13  14
ATOM     14  C   UNL     1       1.898   7.180  20.501  0.00  0.00    +0.000 A 
ATOM     15  C   UNL     1       0.960   7.699  21.395  0.00  0.00    +0.000 A 
ATOM     16  C   UNL     1       0.318   8.904  21.112  0.00  0.00    +0.000 A 
ATOM     17  C   UNL     1       0.604   9.584  19.929  0.00  0.00    +0.000 A 
ATOM     18  C   UNL     1       1.526   9.050  19.029  0.00  0.00    +0.000 A 
ATOM     19 CL   UNL     1       1.864   9.884  17.561  0.00  0.00    +0.000 Cl
ATOM     20  C   UNL     1       2.167   7.845  19.303  0.00  0.00    +0.000 A 
ENDBRANCH  13  14
ENDBRANCH   7  13
BRANCH   9  21
ATOM     21  C   UNL     1       6.038   4.393  18.191  0.00  0.00    +0.000 C 
BRANCH  21  22
ATOM     22  C   UNL     1       6.291   5.367  17.057  0.00  0.00    +0.000 C 
ATOM     23  C   UNL     1       6.758   4.777  15.726  0.00  0.00    +0.000 C 
ATOM     24  C   UNL     1       5.376   5.335  15.834  0.00  0.00    +0.000 C 
BRANCH  22  25
ATOM     25  C   UNL     1       6.883   6.683  17.494  0.00  0.00    +0.000 C 
ATOM     26  F   UNL     1       7.858   7.115  16.662  0.00  0.00    +0.000 F 
ATOM     27  F   UNL     1       5.927   7.646  17.505  0.00  0.00    +0.000 F 
ATOM     28  F   UNL     1       7.398   6.612  18.743  0.00  0.00    +0.000 F 
ENDBRANCH  22  25
ENDBRANCH  21  22
ENDBRANCH   9  21
TORSDOF 6
ENDMDL
MODEL 7
REMARK VINA RESULT:      -7.8      4.434      7.074
REMARK  Name = 
REMARK  6 active torsions:
REMARK  status: ('A' for Active; 'I' for Inactive)
REMARK    1  A    between atoms: N_1  and  C_2
REMARK    2  A    between atoms: C_8  and  O_9
REMARK    3  A    between atoms: O_9  and  C_10
REMARK    4  A    between atoms: N_18  and  C_19
REMARK    5  A    between atoms: C_19  and  C_20
REMARK    6  A    between atoms: C_20  and  C_21
REMARK                            x       y       z     vdW  Elec       q    Type
REMARK                         _______ _______ _______ _____ _____    ______ ____
ROOT
ATOM      1  C   UNL     1       1.642   3.314  19.439  0.00  0.00    +0.000 A 
ATOM      2  N   UNL     1       1.692   2.111  18.832  0.00  0.00    +0.000 NA
ATOM      3  C   UNL     1       2.819   1.771  18.171  0.00  0.00    +0.000 A 
ATOM      4  N   UNL     1       3.951   2.488  18.025  0.00  0.00    +0.000 NA
ATOM      5  C   UNL     1       3.849   3.680  18.640  0.00  0.00    +0.000 A 
ATOM      6  C   UNL     1       2.750   4.156  19.329  0.00  0.00    +0.000 A 
ATOM      7  C   UNL     1       3.126   5.449  19.723  0.00  0.00    +0.000 A 
ATOM      8  N   UNL     1       4.373   5.778  19.364  0.00  0.00    +0.000 NA
ATOM      9  N   UNL     1       4.806   4.663  18.730  0.00  0.00    +0.000 N 
ENDROOT
BRANCH   1  10
ATOM     10  N   UNL     1       0.484   3.641  20.123  0.00  0.00    +0.000 N 
ATOM     11  H   UNL     1       0.589   4.470  20.695  0.00  0.00    +0.000 HD
ATOM     12  H   UNL     1      -0.058   2.877  20.501  0.00  0.00    +0.000 HD
ENDBRANCH   1  10
BRANCH   7  13
ATOM     13  O   UNL     1       2.362   6.301  20.439  0.00  0.00    +0.000 OA
BRANCH  13  14
ATOM     14  C   UNL     1       1.907   7.497  19.936  0.00  0.00    +0.000 A 
ATOM     15  C   UNL     1       2.208   7.754  18.597  0.00  0.00    +0.000 A 
ATOM     16  C   UNL     1       1.832   8.965  18.017  0.00  0.00    +0.000 A 
ATOM     17  C   UNL     1       1.165   9.924  18.779  0.00  0.00    +0.000 A 
ATOM     18  C   UNL     1       0.886   9.670  20.121  0.00  0.00    +0.000 A 
ATOM     19 CL   UNL     1       0.078  10.864  21.062  0.00  0.00    +0.000 Cl
ATOM     20  C   UNL     1       1.263   8.465  20.708  0.00  0.00    +0.000 A 
ENDBRANCH  13  14
ENDBRANCH   7  13
BRANCH   9  21
ATOM     21  C   UNL     1       6.168   4.592  18.206  0.00  0.00    +0.000 C 
BRANCH  21  22
ATOM     22  C   UNL     1       6.428   5.478  17.005  0.00  0.00    +0.000 C 
ATOM     23  C   UNL     1       5.982   6.937  17.107  0.00  0.00    +0.000 C 
ATOM     24  C   UNL     1       7.441   6.615  17.129  0.00  0.00    +0.000 C 
BRANCH  22  25
ATOM     25  C   UNL     1       6.269   4.781  15.677  0.00  0.00    +0.000 C 
ATOM     26  F   UNL     1       5.229   5.264  14.959  0.00  0.00    +0.000 F 
ATOM     27  F   UNL     1       7.379   4.958  14.919  0.00  0.00    +0.000 F 
ATOM     28  F   UNL     1       6.092   3.448  15.827  0.00  0.00    +0.000 F 
ENDBRANCH  22  25
ENDBRANCH  21  22
ENDBRANCH   9  21
TORSDOF 6
ENDMDL
MODEL 8
REMARK VINA RESULT:      -7.8      4.413      7.194
REMARK  Name = 
REMARK  6 active torsions:
REMARK  status: ('A' for Active; 'I' for Inactive)
REMARK    1  A    between atoms: N_1  and  C_2
REMARK    2  A    between atoms: C_8  and  O_9
REMARK    3  A    between atoms: O_9  and  C_10
REMARK    4  A    between atoms: N_18  and  C_19
REMARK    5  A    between atoms: C_19  and  C_20
REMARK    6  A    between atoms: C_20  and  C_21
REMARK                            x       y       z     vdW  Elec       q    Type
REMARK                         _______ _______ _______ _____ _____    ______ ____
ROOT
ATOM      1  C   UNL     1       1.570   3.270  19.548  0.00  0.00    +0.000 A 
ATOM      2  N   UNL     1       1.562   2.091  18.895  0.00  0.00    +0.000 NA
ATOM      3  C   UNL     1       2.626   1.772  18.128  0.00  0.00    +0.000 A 
ATOM      4  N   UNL     1       3.746   2.491  17.913  0.00  0.00    +0.000 NA
ATOM      5  C   UNL     1       3.704   3.660  18.577  0.00  0.00    +0.000 A 
ATOM      6  C   UNL     1       2.670   4.113  19.375  0.00  0.00    +0.000 A 
ATOM      7  C   UNL     1       3.086   5.389  19.783  0.00  0.00    +0.000 A 
ATOM      8  N   UNL     1       4.300   5.728  19.330  0.00  0.00    +0.000 NA
ATOM      9  N   UNL     1       4.671   4.636  18.621  0.00  0.00    +0.000 N 
ENDROOT
BRANCH   1  10
ATOM     10  N   UNL     1       0.477   3.575  20.340  0.00  0.00    +0.000 N 
ATOM     11  H   UNL     1       0.082   4.483  20.127  0.00  0.00    +0.000 HD
ATOM     12  H   UNL     1       0.522   3.299  21.310  0.00  0.00    +0.000 HD
ENDBRANCH   1  10
BRANCH   7  13
ATOM     13  O   UNL     1       2.391   6.217  20.591  0.00  0.00    +0.000 OA
BRANCH  13  14
ATOM     14  C   UNL     1       1.881   7.420  20.167  0.00  0.00    +0.000 A 
ATOM     15  C   UNL     1       2.150   7.767  18.841  0.00  0.00    +0.000 A 
ATOM     16  C   UNL     1       1.718   8.994  18.340  0.00  0.00    +0.000 A 
ATOM     17  C   UNL     1       1.027   9.880  19.166  0.00  0.00    +0.000 A 
ATOM     18  C   UNL     1       0.780   9.537  20.495  0.00  0.00    +0.000 A 
ATOM     19 CL   UNL     1      -0.058  10.640  21.517  0.00  0.00    +0.000 Cl
ATOM     20  C   UNL     1       1.213   8.315  21.004  0.00  0.00    +0.000 A 
ENDBRANCH  13  14
ENDBRANCH   7  13
BRANCH   9  21
ATOM     21  C   UNL     1       5.982   4.580  17.981  0.00  0.00    +0.000 C 
BRANCH  21  22
ATOM     22  C   UNL     1       5.982   4.941  16.509  0.00  0.00    +0.000 C 
ATOM     23  C   UNL     1       7.199   4.512  15.688  0.00  0.00    +0.000 C 
ATOM     24  C   UNL     1       5.891   3.821  15.473  0.00  0.00    +0.000 C 
BRANCH  22  25
ATOM     25  C   UNL     1       5.355   6.277  16.200  0.00  0.00    +0.000 C 
ATOM     26  F   UNL     1       5.413   6.585  14.884  0.00  0.00    +0.000 F 
ATOM     27  F   UNL     1       4.042   6.268  16.539  0.00  0.00    +0.000 F 
ATOM     28  F   UNL     1       5.943   7.279  16.892  0.00  0.00    +0.000 F 
ENDBRANCH  22  25
ENDBRANCH  21  22
ENDBRANCH   9  21
TORSDOF 6
ENDMDL
MODEL 9
REMARK VINA RESULT:      -7.8      1.147      1.596
REMARK  Name = 
REMARK  6 active torsions:
REMARK  status: ('A' for Active; 'I' for Inactive)
REMARK    1  A    between atoms: N_1  and  C_2
REMARK    2  A    between atoms: C_8  and  O_9
REMARK    3  A    between atoms: O_9  and  C_10
REMARK    4  A    between atoms: N_18  and  C_19
REMARK    5  A    between atoms: C_19  and  C_20
REMARK    6  A    between atoms: C_20  and  C_21
REMARK                            x       y       z     vdW  Elec       q    Type
REMARK                         _______ _______ _______ _____ _____    ______ ____
ROOT
ATOM      1  C   UNL     1       7.174   6.191  17.602  0.00  0.00    +0.000 A 
ATOM      2  N   UNL     1       7.728   6.258  18.829  0.00  0.00    +0.000 NA
ATOM      3  C   UNL     1       7.214   5.486  19.810  0.00  0.00    +0.000 A 
ATOM      4  N   UNL     1       6.184   4.619  19.738  0.00  0.00    +0.000 NA
ATOM      5  C   UNL     1       5.660   4.594  18.499  0.00  0.00    +0.000 A 
ATOM      6  C   UNL     1       6.079   5.346  17.417  0.00  0.00    +0.000 A 
ATOM      7  C   UNL     1       5.185   4.998  16.393  0.00  0.00    +0.000 A 
ATOM      8  N   UNL     1       4.288   4.072  16.754  0.00  0.00    +0.000 NA
ATOM      9  N   UNL     1       4.624   3.817  18.041  0.00  0.00    +0.000 N 
ENDROOT
BRANCH   1  10
ATOM     10  N   UNL     1       7.722   6.979  16.605  0.00  0.00    +0.000 N 
ATOM     11  H   UNL     1       8.606   6.620  16.265  0.00  0.00    +0.000 HD
ATOM     12  H   UNL     1       7.632   7.980  16.709  0.00  0.00    +0.000 HD
ENDBRANCH   1  10
BRANCH   7  13
ATOM     13  O   UNL     1       5.212   5.483  15.134  0.00  0.00    +0.000 OA
BRANCH  13  14
ATOM     14  C   UNL     1       5.859   4.845  14.102  0.00  0.00    +0.000 A 
ATOM     15  C   UNL     1       7.113   5.354  13.757  0.00  0.00    +0.000 A 
ATOM     16  C   UNL     1       7.820   4.804  12.688  0.00  0.00    +0.000 A 
ATOM     17  C   UNL     1       7.267   3.754  11.956  0.00  0.00    +0.000 A 
ATOM     18  C   UNL     1       6.005   3.264  12.291  0.00  0.00    +0.000 A 
ATOM     19 CL   UNL     1       5.319   1.980  11.374  0.00  0.00    +0.000 Cl
ATOM     20  C   UNL     1       5.292   3.812  13.354  0.00  0.00    +0.000 A 
ENDBRANCH  13  14
ENDBRANCH   7  13
BRANCH   9  21
ATOM     21  C   UNL     1       3.897   2.809  18.809  0.00  0.00    +0.000 C 
BRANCH  21  22
ATOM     22  C   UNL     1       2.564   3.275  19.359  0.00  0.00    +0.000 C 
ATOM     23  C   UNL     1       1.896   4.456  18.654  0.00  0.00    +0.000 C 
ATOM     24  C   UNL     1       1.307   3.090  18.511  0.00  0.00    +0.000 C 
BRANCH  22  25
ATOM     25  C   UNL     1       2.453   3.193  20.860  0.00  0.00    +0.000 C 
ATOM     26  F   UNL     1       3.421   2.425  21.411  0.00  0.00    +0.000 F 
ATOM     27  F   UNL     1       2.577   4.427  21.408  0.00  0.00    +0.000 F 
ATOM     28  F   UNL     1       1.255   2.698  21.249  0.00  0.00    +0.000 F 
ENDBRANCH  22  25
ENDBRANCH  21  22
ENDBRANCH   9  21
TORSDOF 6
ENDMDL
