MODEL 1
REMARK VINA RESULT:      -8.8      0.000      0.000
REMARK  Name = 
REMARK  10 active torsions:
REMARK  status: ('A' for Active; 'I' for Inactive)
REMARK    1  A    between atoms: C_1  and  C_2
REMARK    2  A    between atoms: C_2  and  C_3
REMARK    3  A    between atoms: C_3  and  N_4
REMARK    4  A    between atoms: C_6  and  C_7
REMARK    5  A    between atoms: C_9  and  C_10
REMARK    6  A    between atoms: N_12  and  C_13
REMARK    7  A    between atoms: C_17  and  C_18
REMARK    8  A    between atoms: C_18  and  C_20
REMARK    9  A    between atoms: C_24  and  C_25
REMARK   10  A    between atoms: C_26  and  C_27
REMARK                            x       y       z     vdW  Elec       q    Type
REMARK                         _______ _______ _______ _____ _____    ______ ____
ROOT
ATOM      1  C   UNL     1       2.519   5.639  18.315  0.00  0.00    +0.000 C 
ATOM      2  O   UNL     1       1.742   4.927  17.716  0.00  0.00    +0.000 OA
ENDROOT
BRANCH   1   3
ATOM      3  C   UNL     1       3.979   5.266  18.179  0.00  0.00    +0.000 A 
ATOM      4  C   UNL     1       4.791   5.518  19.297  0.00  0.00    +0.000 A 
ATOM      5  C   UNL     1       6.176   5.321  19.276  0.00  0.00    +0.000 A 
ATOM      6  C   UNL     1       6.694   5.643  18.011  0.00  0.00    +0.000 A 
ATOM      7  C   UNL     1       7.572   6.634  17.503  0.00  0.00    +0.000 A 
ATOM      8  N   UNL     1       7.702   6.515  16.171  0.00  0.00    +0.000 NA
ATOM      9  N   UNL     1       6.763   5.605  15.838  0.00  0.00    +0.000 N 
ATOM     10  C   UNL     1       5.931   5.300  16.886  0.00  0.00    +0.000 A 
ATOM     11  C   UNL     1       4.581   4.917  16.943  0.00  0.00    +0.000 A 
ATOM     12  H   UNL     1       6.626   5.406  14.856  0.00  0.00    +0.000 HD
BRANCH   7  13
ATOM     13  C   UNL     1       8.113   7.718  18.291  0.00  0.00    +0.000 C 
ATOM     14  C   UNL     1       8.312   8.957  17.816  0.00  0.00    +0.000 C 
BRANCH  14  15
ATOM     15  C   UNL     1       8.756  10.142  18.549  0.00  0.00    +0.000 A 
ATOM     16  C   UNL     1       8.828  11.365  17.875  0.00  0.00    +0.000 A 
ATOM     17  C   UNL     1       9.267  12.501  18.547  0.00  0.00    +0.000 A 
ATOM     18  C   UNL     1       9.608  12.401  19.887  0.00  0.00    +0.000 A 
ATOM     19  C   UNL     1       9.487  11.161  20.496  0.00  0.00    +0.000 A 
ATOM     20  N   UNL     1       9.070  10.034  19.863  0.00  0.00    +0.000 NA
ENDBRANCH  14  15
ENDBRANCH   7  13
ENDBRANCH   1   3
BRANCH   1  25
ATOM     21  C   UNL     1       1.556   9.198  19.307  0.00  0.00    +0.000 A 
ATOM     22  C   UNL     1       1.294   8.986  20.657  0.00  0.00    +0.000 A 
ATOM     23  C   UNL     1       1.347   7.687  21.235  0.00  0.00    +0.000 A 
ATOM     24  C   UNL     1       1.682   6.558  20.488  0.00  0.00    +0.000 A 
ATOM     25  C   UNL     1       1.941   6.725  19.134  0.00  0.00    +0.000 A 
ATOM     26  C   UNL     1       1.874   8.034  18.558  0.00  0.00    +0.000 A 
BRANCH  21  29
ATOM     27  C   UNL     1       0.612  11.520  18.589  0.00  0.00    +0.000 C 
ATOM     28  O   UNL     1      -0.576  11.224  18.731  0.00  0.00    +0.000 OA
ATOM     29  N   UNL     1       1.607  10.501  18.624  0.00  0.00    +0.000 N 
ATOM     30  H   UNL     1       2.522  10.793  18.420  0.00  0.00    +0.000 HD
BRANCH  27  36
ATOM     31  N   UNL     1       1.533  14.223  18.587  0.00  0.00    +0.000 N 
ATOM     32  N   UNL     1       1.199  15.299  19.565  0.00  0.00    +0.000 NA
ATOM     33  C   UNL     1      -0.111  15.756  19.782  0.00  0.00    +0.000 A 
ATOM     34  C   UNL     1      -1.164  14.712  20.111  0.00  0.00    +0.000 C 
ATOM     35  C   UNL     1      -0.523  16.674  18.708  0.00  0.00    +0.000 A 
ATOM     36  C   UNL     1       1.041  12.819  19.091  0.00  0.00    +0.000 A 
BRANCH  31  37
ATOM     37  C   UNL     1       2.948  14.182  18.129  0.00  0.00    +0.000 C 
BRANCH  37  39
ATOM     38  C   UNL     1       4.672  16.091  18.399  0.00  0.00    +0.000 C 
ATOM     39  C   UNL     1       3.584  15.462  17.554  0.00  0.00    +0.000 C 
ENDBRANCH  37  39
ENDBRANCH  31  37
ENDBRANCH  27  36
ENDBRANCH  21  29
ENDBRANCH   1  25
TORSDOF 8
ENDMDL
MODEL 2
REMARK VINA RESULT:      -8.7      1.730      2.972
REMARK  Name = 
REMARK  10 active torsions:
REMARK  status: ('A' for Active; 'I' for Inactive)
REMARK    1  A    between atoms: C_1  and  C_2
REMARK    2  A    between atoms: C_2  and  C_3
REMARK    3  A    between atoms: C_3  and  N_4
REMARK    4  A    between atoms: C_6  and  C_7
REMARK    5  A    between atoms: C_9  and  C_10
REMARK    6  A    between atoms: N_12  and  C_13
REMARK    7  A    between atoms: C_17  and  C_18
REMARK    8  A    between atoms: C_18  and  C_20
REMARK    9  A    between atoms: C_24  and  C_25
REMARK   10  A    between atoms: C_26  and  C_27
REMARK                            x       y       z     vdW  Elec       q    Type
REMARK                         _______ _______ _______ _____ _____    ______ ____
ROOT
ATOM      1  C   UNL     1       3.781   4.220  18.755  0.00  0.00    +0.000 C 
ATOM      2  O   UNL     1       3.428   3.087  18.508  0.00  0.00    +0.000 OA
ENDROOT
BRANCH   1   3
ATOM      3  C   UNL     1       5.242   4.516  18.493  0.00  0.00    +0.000 A 
ATOM      4  C   UNL     1       5.928   5.202  19.510  0.00  0.00    +0.000 A 
ATOM      5  C   UNL     1       7.251   5.633  19.361  0.00  0.00    +0.000 A 
ATOM      6  C   UNL     1       7.486   6.031  18.036  0.00  0.00    +0.000 A 
ATOM      7  C   UNL     1       7.794   7.256  17.389  0.00  0.00    +0.000 A 
ATOM      8  N   UNL     1       7.876   7.084  16.060  0.00  0.00    +0.000 NA
ATOM      9  N   UNL     1       7.421   5.827  15.872  0.00  0.00    +0.000 N 
ATOM     10  C   UNL     1       6.884   5.285  17.012  0.00  0.00    +0.000 A 
ATOM     11  C   UNL     1       5.854   4.355  17.224  0.00  0.00    +0.000 A 
ATOM     12  H   UNL     1       7.323   5.498  14.920  0.00  0.00    +0.000 HD
BRANCH   7  13
ATOM     13  C   UNL     1       7.845   8.535  18.061  0.00  0.00    +0.000 C 
ATOM     14  C   UNL     1       8.981   9.217  18.278  0.00  0.00    +0.000 C 
BRANCH  14  15
ATOM     15  C   UNL     1       9.133  10.553  18.853  0.00  0.00    +0.000 A 
ATOM     16  C   UNL     1       9.405  10.673  20.220  0.00  0.00    +0.000 A 
ATOM     17  C   UNL     1       9.534  11.934  20.791  0.00  0.00    +0.000 A 
ATOM     18  C   UNL     1       9.409  13.055  19.985  0.00  0.00    +0.000 A 
ATOM     19  C   UNL     1       9.165  12.858  18.634  0.00  0.00    +0.000 A 
ATOM     20  N   UNL     1       9.026  11.640  18.050  0.00  0.00    +0.000 NA
ENDBRANCH  14  15
ENDBRANCH   7  13
ENDBRANCH   1   3
BRANCH   1  25
ATOM     21  C   UNL     1       1.987   7.510  19.485  0.00  0.00    +0.000 A 
ATOM     22  C   UNL     1       1.232   7.109  20.582  0.00  0.00    +0.000 A 
ATOM     23  C   UNL     1       1.234   5.762  21.041  0.00  0.00    +0.000 A 
ATOM     24  C   UNL     1       2.006   4.774  20.431  0.00  0.00    +0.000 A 
ATOM     25  C   UNL     1       2.767   5.131  19.326  0.00  0.00    +0.000 A 
ATOM     26  C   UNL     1       2.750   6.486  18.863  0.00  0.00    +0.000 A 
BRANCH  21  29
ATOM     27  C   UNL     1       1.197   9.628  18.185  0.00  0.00    +0.000 C 
ATOM     28  O   UNL     1       0.401   9.038  17.453  0.00  0.00    +0.000 OA
ATOM     29  N   UNL     1       2.121   8.885  18.975  0.00  0.00    +0.000 N 
ATOM     30  H   UNL     1       2.781   9.416  19.470  0.00  0.00    +0.000 HD
BRANCH  27  36
ATOM     31  N   UNL     1       0.590  11.592  20.168  0.00  0.00    +0.000 N 
ATOM     32  N   UNL     1       0.695  13.075  20.042  0.00  0.00    +0.000 NA
ATOM     33  C   UNL     1       1.905  13.736  19.772  0.00  0.00    +0.000 A 
ATOM     34  C   UNL     1       2.691  13.273  18.558  0.00  0.00    +0.000 C 
ATOM     35  C   UNL     1       2.725  13.831  20.990  0.00  0.00    +0.000 A 
ATOM     36  C   UNL     1       0.757  10.886  18.774  0.00  0.00    +0.000 A 
BRANCH  31  37
ATOM     37  C   UNL     1      -0.601  11.089  20.904  0.00  0.00    +0.000 C 
BRANCH  37  39
ATOM     38  C   UNL     1       0.042   9.693  22.984  0.00  0.00    +0.000 C 
ATOM     39  C   UNL     1      -0.540  10.980  22.439  0.00  0.00    +0.000 C 
ENDBRANCH  37  39
ENDBRANCH  31  37
ENDBRANCH  27  36
ENDBRANCH  21  29
ENDBRANCH   1  25
TORSDOF 8
ENDMDL
MODEL 3
REMARK VINA RESULT:      -8.7      1.326      2.517
REMARK  Name = 
REMARK  10 active torsions:
REMARK  status: ('A' for Active; 'I' for Inactive)
REMARK    1  A    between atoms: C_1  and  C_2
REMARK    2  A    between atoms: C_2  and  C_3
REMARK    3  A    between atoms: C_3  and  N_4
REMARK    4  A    between atoms: C_6  and  C_7
REMARK    5  A    between atoms: C_9  and  C_10
REMARK    6  A    between atoms: N_12  and  C_13
REMARK    7  A    between atoms: C_17  and  C_18
REMARK    8  A    between atoms: C_18  and  C_20
REMARK    9  A    between atoms: C_24  and  C_25
REMARK   10  A    between atoms: C_26  and  C_27
REMARK                            x       y       z     vdW  Elec       q    Type
REMARK                         _______ _______ _______ _____ _____    ______ ____
ROOT
ATOM      1  C   UNL     1       2.741   5.322  18.337  0.00  0.00    +0.000 C 
ATOM      2  O   UNL     1       2.035   4.528  17.755  0.00  0.00    +0.000 OA
ENDROOT
BRANCH   1   3
ATOM      3  C   UNL     1       4.230   5.086  18.205  0.00  0.00    +0.000 A 
ATOM      4  C   UNL     1       5.013   5.424  19.321  0.00  0.00    +0.000 A 
ATOM      5  C   UNL     1       6.411   5.356  19.302  0.00  0.00    +0.000 A 
ATOM      6  C   UNL     1       6.898   5.712  18.034  0.00  0.00    +0.000 A 
ATOM      7  C   UNL     1       7.681   6.776  17.516  0.00  0.00    +0.000 A 
ATOM      8  N   UNL     1       7.823   6.655  16.186  0.00  0.00    +0.000 NA
ATOM      9  N   UNL     1       6.973   5.658  15.862  0.00  0.00    +0.000 N 
ATOM     10  C   UNL     1       6.171   5.288  16.913  0.00  0.00    +0.000 A 
ATOM     11  C   UNL     1       4.863   4.781  16.973  0.00  0.00    +0.000 A 
ATOM     12  H   UNL     1       6.856   5.437  14.882  0.00  0.00    +0.000 HD
BRANCH   7  13
ATOM     13  C   UNL     1       8.117   7.913  18.293  0.00  0.00    +0.000 C 
ATOM     14  C   UNL     1       8.461   9.094  17.756  0.00  0.00    +0.000 C 
BRANCH  14  15
ATOM     15  C   UNL     1       8.818  10.330  18.452  0.00  0.00    +0.000 A 
ATOM     16  C   UNL     1       9.378  10.248  19.730  0.00  0.00    +0.000 A 
ATOM     17  C   UNL     1       9.706  11.412  20.418  0.00  0.00    +0.000 A 
ATOM     18  C   UNL     1       9.488  12.638  19.809  0.00  0.00    +0.000 A 
ATOM     19  C   UNL     1       8.954  12.641  18.529  0.00  0.00    +0.000 A 
ATOM     20  N   UNL     1       8.616  11.522  17.837  0.00  0.00    +0.000 NA
ENDBRANCH  14  15
ENDBRANCH   7  13
ENDBRANCH   1   3
BRANCH   1  25
ATOM     21  C   UNL     1       1.431   8.791  19.247  0.00  0.00    +0.000 A 
ATOM     22  C   UNL     1       1.205   8.591  20.605  0.00  0.00    +0.000 A 
ATOM     23  C   UNL     1       1.396   7.321  21.216  0.00  0.00    +0.000 A 
ATOM     24  C   UNL     1       1.836   6.212  20.495  0.00  0.00    +0.000 A 
ATOM     25  C   UNL     1       2.064   6.366  19.134  0.00  0.00    +0.000 A 
ATOM     26  C   UNL     1       1.858   7.645  18.525  0.00  0.00    +0.000 A 
BRANCH  21  29
ATOM     27  C   UNL     1       0.173  10.775  18.114  0.00  0.00    +0.000 C 
ATOM     28  O   UNL     1      -0.870  10.155  17.895  0.00  0.00    +0.000 OA
ATOM     29  N   UNL     1       1.342  10.073  18.528  0.00  0.00    +0.000 N 
ATOM     30  H   UNL     1       2.158  10.614  18.604  0.00  0.00    +0.000 HD
BRANCH  27  36
ATOM     31  N   UNL     1      -0.202  12.900  19.983  0.00  0.00    +0.000 N 
ATOM     32  N   UNL     1       0.416  14.258  19.955  0.00  0.00    +0.000 NA
ATOM     33  C   UNL     1       1.804  14.468  20.010  0.00  0.00    +0.000 A 
ATOM     34  C   UNL     1       2.658  13.725  18.996  0.00  0.00    +0.000 C 
ATOM     35  C   UNL     1       2.293  14.329  21.390  0.00  0.00    +0.000 A 
ATOM     36  C   UNL     1       0.049  12.129  18.638  0.00  0.00    +0.000 A 
BRANCH  31  37
ATOM     37  C   UNL     1      -1.631  12.850  20.392  0.00  0.00    +0.000 C 
BRANCH  37  39
ATOM     38  C   UNL     1      -0.827  11.802  22.615  0.00  0.00    +0.000 C 
ATOM     39  C   UNL     1      -1.994  12.272  21.773  0.00  0.00    +0.000 C 
ENDBRANCH  37  39
ENDBRANCH  31  37
ENDBRANCH  27  36
ENDBRANCH  21  29
ENDBRANCH   1  25
TORSDOF 8
ENDMDL
MODEL 4
REMARK VINA RESULT:      -8.4      1.299      1.758
REMARK  Name = 
REMARK  10 active torsions:
REMARK  status: ('A' for Active; 'I' for Inactive)
REMARK    1  A    between atoms: C_1  and  C_2
REMARK    2  A    between atoms: C_2  and  C_3
REMARK    3  A    between atoms: C_3  and  N_4
REMARK    4  A    between atoms: C_6  and  C_7
REMARK    5  A    between atoms: C_9  and  C_10
REMARK    6  A    between atoms: N_12  and  C_13
REMARK    7  A    between atoms: C_17  and  C_18
REMARK    8  A    between atoms: C_18  and  C_20
REMARK    9  A    between atoms: C_24  and  C_25
REMARK   10  A    between atoms: C_26  and  C_27
REMARK                            x       y       z     vdW  Elec       q    Type
REMARK                         _______ _______ _______ _____ _____    ______ ____
ROOT
ATOM      1  C   UNL     1       2.745   5.389  18.251  0.00  0.00    +0.000 C 
ATOM      2  O   UNL     1       2.049   4.690  17.547  0.00  0.00    +0.000 OA
ENDROOT
BRANCH   1   3
ATOM      3  C   UNL     1       4.234   5.144  18.138  0.00  0.00    +0.000 A 
ATOM      4  C   UNL     1       5.000   5.444  19.277  0.00  0.00    +0.000 A 
ATOM      5  C   UNL     1       6.397   5.366  19.282  0.00  0.00    +0.000 A 
ATOM      6  C   UNL     1       6.909   5.755  18.033  0.00  0.00    +0.000 A 
ATOM      7  C   UNL     1       7.709   6.827  17.560  0.00  0.00    +0.000 A 
ATOM      8  N   UNL     1       7.874   6.743  16.230  0.00  0.00    +0.000 NA
ATOM      9  N   UNL     1       7.023   5.763  15.862  0.00  0.00    +0.000 N 
ATOM     10  C   UNL     1       6.200   5.368  16.887  0.00  0.00    +0.000 A 
ATOM     11  C   UNL     1       4.887   4.871  16.910  0.00  0.00    +0.000 A 
ATOM     12  H   UNL     1       6.922   5.571  14.874  0.00  0.00    +0.000 HD
BRANCH   7  13
ATOM     13  C   UNL     1       8.140   7.938  18.378  0.00  0.00    +0.000 C 
ATOM     14  C   UNL     1       8.513   9.127  17.880  0.00  0.00    +0.000 C 
BRANCH  14  15
ATOM     15  C   UNL     1       8.867  10.340  18.617  0.00  0.00    +0.000 A 
ATOM     16  C   UNL     1       8.836  11.568  17.949  0.00  0.00    +0.000 A 
ATOM     17  C   UNL     1       9.189  12.732  18.625  0.00  0.00    +0.000 A 
ATOM     18  C   UNL     1       9.548  12.652  19.962  0.00  0.00    +0.000 A 
ATOM     19  C   UNL     1       9.530  11.403  20.564  0.00  0.00    +0.000 A 
ATOM     20  N   UNL     1       9.199  10.250  19.928  0.00  0.00    +0.000 NA
ENDBRANCH  14  15
ENDBRANCH   7  13
ENDBRANCH   1   3
BRANCH   1  25
ATOM     21  C   UNL     1       1.528   8.742  19.612  0.00  0.00    +0.000 A 
ATOM     22  C   UNL     1       1.183   8.343  20.900  0.00  0.00    +0.000 A 
ATOM     23  C   UNL     1       1.264   6.983  21.310  0.00  0.00    +0.000 A 
ATOM     24  C   UNL     1       1.709   5.978  20.453  0.00  0.00    +0.000 A 
ATOM     25  C   UNL     1       2.054   6.332  19.155  0.00  0.00    +0.000 A 
ATOM     26  C   UNL     1       1.958   7.701  18.748  0.00  0.00    +0.000 A 
BRANCH  21  29
ATOM     27  C   UNL     1       0.459  10.985  18.822  0.00  0.00    +0.000 C 
ATOM     28  O   UNL     1      -0.635  10.505  18.520  0.00  0.00    +0.000 OA
ATOM     29  N   UNL     1       1.558  10.124  19.107  0.00  0.00    +0.000 N 
ATOM     30  H   UNL     1       2.420  10.570  19.258  0.00  0.00    +0.000 HD
BRANCH  27  36
ATOM     31  N   UNL     1      -0.325  13.604  19.645  0.00  0.00    +0.000 N 
ATOM     32  N   UNL     1      -0.231  14.196  21.012  0.00  0.00    +0.000 NA
ATOM     33  C   UNL     1      -0.895  13.657  22.126  0.00  0.00    +0.000 A 
ATOM     34  C   UNL     1      -0.675  12.183  22.419  0.00  0.00    +0.000 C 
ATOM     35  C   UNL     1      -2.316  14.038  22.114  0.00  0.00    +0.000 A 
ATOM     36  C   UNL     1       0.457  12.244  19.555  0.00  0.00    +0.000 A 
BRANCH  31  37
ATOM     37  C   UNL     1       0.019  14.516  18.522  0.00  0.00    +0.000 C 
BRANCH  37  39
ATOM     38  C   UNL     1      -0.953  16.900  18.765  0.00  0.00    +0.000 C 
ATOM     39  C   UNL     1       0.269  16.007  18.819  0.00  0.00    +0.000 C 
ENDBRANCH  37  39
ENDBRANCH  31  37
ENDBRANCH  27  36
ENDBRANCH  21  29
ENDBRANCH   1  25
TORSDOF 8
ENDMDL
MODEL 5
REMARK VINA RESULT:      -8.4      2.577      3.862
REMARK  Name = 
REMARK  10 active torsions:
REMARK  status: ('A' for Active; 'I' for Inactive)
REMARK    1  A    between atoms: C_1  and  C_2
REMARK    2  A    between atoms: C_2  and  C_3
REMARK    3  A    between atoms: C_3  and  N_4
REMARK    4  A    between atoms: C_6  and  C_7
REMARK    5  A    between atoms: C_9  and  C_10
REMARK    6  A    between atoms: N_12  and  C_13
REMARK    7  A    between atoms: C_17  and  C_18
REMARK    8  A    between atoms: C_18  and  C_20
REMARK    9  A    between atoms: C_24  and  C_25
REMARK   10  A    between atoms: C_26  and  C_27
REMARK                            x       y       z     vdW  Elec       q    Type
REMARK                         _______ _______ _______ _____ _____    ______ ____
ROOT
ATOM      1  C   UNL     1       2.577   6.403  19.103  0.00  0.00    +0.000 C 
ATOM      2  O   UNL     1       1.822   5.612  19.625  0.00  0.00    +0.000 OA
ENDROOT
BRANCH   1   3
ATOM      3  C   UNL     1       3.918   5.841  18.684  0.00  0.00    +0.000 A 
ATOM      4  C   UNL     1       4.938   5.886  19.649  0.00  0.00    +0.000 A 
ATOM      5  C   UNL     1       6.253   5.498  19.367  0.00  0.00    +0.000 A 
ATOM      6  C   UNL     1       6.589   5.846  18.049  0.00  0.00    +0.000 A 
ATOM      7  C   UNL     1       7.509   6.743  17.444  0.00  0.00    +0.000 A 
ATOM      8  N   UNL     1       7.389   6.715  16.107  0.00  0.00    +0.000 NA
ATOM      9  N   UNL     1       6.279   5.976  15.900  0.00  0.00    +0.000 N 
ATOM     10  C   UNL     1       5.602   5.706  17.063  0.00  0.00    +0.000 A 
ATOM     11  C   UNL     1       4.239   5.513  17.343  0.00  0.00    +0.000 A 
ATOM     12  H   UNL     1       5.947   5.878  14.950  0.00  0.00    +0.000 HD
BRANCH   7  13
ATOM     13  C   UNL     1       8.335   7.672  18.181  0.00  0.00    +0.000 C 
ATOM     14  C   UNL     1       8.346   8.996  17.959  0.00  0.00    +0.000 C 
BRANCH  14  15
ATOM     15  C   UNL     1       9.063  10.028  18.706  0.00  0.00    +0.000 A 
ATOM     16  C   UNL     1       9.873  10.928  18.007  0.00  0.00    +0.000 A 
ATOM     17  C   UNL     1      10.580  11.905  18.700  0.00  0.00    +0.000 A 
ATOM     18  C   UNL     1      10.450  11.981  20.078  0.00  0.00    +0.000 A 
ATOM     19  C   UNL     1       9.608  11.072  20.700  0.00  0.00    +0.000 A 
ATOM     20  N   UNL     1       8.913  10.102  20.052  0.00  0.00    +0.000 NA
ENDBRANCH  14  15
ENDBRANCH   7  13
ENDBRANCH   1   3
BRANCH   1  25
ATOM     21  C   UNL     1       0.465   9.499  19.831  0.00  0.00    +0.000 A 
ATOM     22  C   UNL     1       0.802  10.262  18.718  0.00  0.00    +0.000 A 
ATOM     23  C   UNL     1       1.769   9.819  17.773  0.00  0.00    +0.000 A 
ATOM     24  C   UNL     1       2.418   8.592  17.898  0.00  0.00    +0.000 A 
ATOM     25  C   UNL     1       2.117   7.804  19.001  0.00  0.00    +0.000 A 
ATOM     26  C   UNL     1       1.151   8.262  19.954  0.00  0.00    +0.000 A 
BRANCH  21  29
ATOM     27  C   UNL     1      -0.430  10.527  22.054  0.00  0.00    +0.000 C 
ATOM     28  O   UNL     1       0.656  10.532  22.638  0.00  0.00    +0.000 OA
ATOM     29  N   UNL     1      -0.573   9.820  20.825  0.00  0.00    +0.000 N 
ATOM     30  H   UNL     1      -1.482   9.787  20.457  0.00  0.00    +0.000 HD
BRANCH  27  36
ATOM     31  N   UNL     1      -2.011  12.575  23.263  0.00  0.00    +0.000 N 
ATOM     32  N   UNL     1      -2.139  13.999  22.835  0.00  0.00    +0.000 NA
ATOM     33  C   UNL     1      -1.048  14.883  22.786  0.00  0.00    +0.000 A 
ATOM     34  C   UNL     1       0.170  14.438  21.996  0.00  0.00    +0.000 C 
ATOM     35  C   UNL     1      -0.717  15.370  24.134  0.00  0.00    +0.000 A 
ATOM     36  C   UNL     1      -1.261  11.717  22.181  0.00  0.00    +0.000 A 
BRANCH  31  37
ATOM     37  C   UNL     1      -3.269  11.921  23.713  0.00  0.00    +0.000 C 
BRANCH  37  39
ATOM     38  C   UNL     1      -5.565  13.110  23.745  0.00  0.00    +0.000 C 
ATOM     39  C   UNL     1      -4.303  12.750  24.499  0.00  0.00    +0.000 C 
ENDBRANCH  37  39
ENDBRANCH  31  37
ENDBRANCH  27  36
ENDBRANCH  21  29
ENDBRANCH   1  25
TORSDOF 8
ENDMDL
MODEL 6
REMARK VINA RESULT:      -8.3      2.515      9.347
REMARK  Name = 
REMARK  10 active torsions:
REMARK  status: ('A' for Active; 'I' for Inactive)
REMARK    1  A    between atoms: C_1  and  C_2
REMARK    2  A    between atoms: C_2  and  C_3
REMARK    3  A    between atoms: C_3  and  N_4
REMARK    4  A    between atoms: C_6  and  C_7
REMARK    5  A    between atoms: C_9  and  C_10
REMARK    6  A    between atoms: N_12  and  C_13
REMARK    7  A    between atoms: C_17  and  C_18
REMARK    8  A    between atoms: C_18  and  C_20
REMARK    9  A    between atoms: C_24  and  C_25
REMARK   10  A    between atoms: C_26  and  C_27
REMARK                            x       y       z     vdW  Elec       q    Type
REMARK                         _______ _______ _______ _____ _____    ______ ____
ROOT
ATOM      1  C   UNL     1       1.707   8.318  19.341  0.00  0.00    +0.000 C 
ATOM      2  O   UNL     1       2.494   8.710  18.506  0.00  0.00    +0.000 OA
ENDROOT
BRANCH   1   3
ATOM      3  C   UNL     1       0.634   9.309  19.737  0.00  0.00    +0.000 A 
ATOM      4  C   UNL     1       0.065  10.058  18.694  0.00  0.00    +0.000 A 
ATOM      5  C   UNL     1      -0.861  11.081  18.926  0.00  0.00    +0.000 A 
ATOM      6  C   UNL     1      -0.551  11.756  20.117  0.00  0.00    +0.000 A 
ATOM      7  C   UNL     1      -0.131  13.069  20.453  0.00  0.00    +0.000 A 
ATOM      8  N   UNL     1       0.072  13.178  21.776  0.00  0.00    +0.000 NA
ATOM      9  N   UNL     1      -0.018  11.907  22.220  0.00  0.00    +0.000 N 
ATOM     10  C   UNL     1      -0.078  10.995  21.196  0.00  0.00    +0.000 A 
ATOM     11  C   UNL     1       0.366   9.668  21.082  0.00  0.00    +0.000 A 
ATOM     12  H   UNL     1       0.175  11.734  23.197  0.00  0.00    +0.000 HD
BRANCH   7  13
ATOM     13  C   UNL     1       0.192  14.089  19.480  0.00  0.00    +0.000 C 
ATOM     14  C   UNL     1      -0.300  15.337  19.520  0.00  0.00    +0.000 C 
BRANCH  14  15
ATOM     15  C   UNL     1       0.036  16.465  18.652  0.00  0.00    +0.000 A 
ATOM     16  C   UNL     1      -0.982  17.337  18.253  0.00  0.00    +0.000 A 
ATOM     17  C   UNL     1      -0.689  18.404  17.411  0.00  0.00    +0.000 A 
ATOM     18  C   UNL     1       0.621  18.596  16.998  0.00  0.00    +0.000 A 
ATOM     19  C   UNL     1       1.582  17.707  17.456  0.00  0.00    +0.000 A 
ATOM     20  N   UNL     1       1.323  16.651  18.270  0.00  0.00    +0.000 NA
ENDBRANCH  14  15
ENDBRANCH   7  13
ENDBRANCH   1   3
BRANCH   1  25
ATOM     21  C   UNL     1       3.266   4.851  19.696  0.00  0.00    +0.000 A 
ATOM     22  C   UNL     1       2.288   4.250  20.482  0.00  0.00    +0.000 A 
ATOM     23  C   UNL     1       1.166   4.978  20.967  0.00  0.00    +0.000 A 
ATOM     24  C   UNL     1       0.974   6.326  20.668  0.00  0.00    +0.000 A 
ATOM     25  C   UNL     1       1.933   6.966  19.895  0.00  0.00    +0.000 A 
ATOM     26  C   UNL     1       3.065   6.229  19.420  0.00  0.00    +0.000 A 
BRANCH  21  29
ATOM     27  C   UNL     1       4.615   3.838  17.708  0.00  0.00    +0.000 C 
ATOM     28  O   UNL     1       3.640   3.644  16.979  0.00  0.00    +0.000 OA
ATOM     29  N   UNL     1       4.421   4.179  19.078  0.00  0.00    +0.000 N 
ATOM     30  H   UNL     1       5.237   4.237  19.621  0.00  0.00    +0.000 HD
BRANCH  27  36
ATOM     31  N   UNL     1       6.243   5.564  16.119  0.00  0.00    +0.000 N 
ATOM     32  N   UNL     1       7.641   6.008  16.396  0.00  0.00    +0.000 NA
ATOM     33  C   UNL     1       7.997   6.741  17.540  0.00  0.00    +0.000 A 
ATOM     34  C   UNL     1       7.589   6.168  18.886  0.00  0.00    +0.000 C 
ATOM     35  C   UNL     1       7.632   8.157  17.380  0.00  0.00    +0.000 A 
ATOM     36  C   UNL     1       5.805   4.411  17.092  0.00  0.00    +0.000 A 
BRANCH  31  37
ATOM     37  C   UNL     1       5.940   5.235  14.700  0.00  0.00    +0.000 C 
BRANCH  37  39
ATOM     38  C   UNL     1       6.184   3.642  12.677  0.00  0.00    +0.000 C 
ATOM     39  C   UNL     1       6.244   3.817  14.180  0.00  0.00    +0.000 C 
ENDBRANCH  37  39
ENDBRANCH  31  37
ENDBRANCH  27  36
ENDBRANCH  21  29
ENDBRANCH   1  25
TORSDOF 8
ENDMDL
MODEL 7
REMARK VINA RESULT:      -8.3      2.036      3.395
REMARK  Name = 
REMARK  10 active torsions:
REMARK  status: ('A' for Active; 'I' for Inactive)
REMARK    1  A    between atoms: C_1  and  C_2
REMARK    2  A    between atoms: C_2  and  C_3
REMARK    3  A    between atoms: C_3  and  N_4
REMARK    4  A    between atoms: C_6  and  C_7
REMARK    5  A    between atoms: C_9  and  C_10
REMARK    6  A    between atoms: N_12  and  C_13
REMARK    7  A    between atoms: C_17  and  C_18
REMARK    8  A    between atoms: C_18  and  C_20
REMARK    9  A    between atoms: C_24  and  C_25
REMARK   10  A    between atoms: C_26  and  C_27
REMARK                            x       y       z     vdW  Elec       q    Type
REMARK                         _______ _______ _______ _____ _____    ______ ____
ROOT
ATOM      1  C   UNL     1       4.561   3.557  19.584  0.00  0.00    +0.000 C 
ATOM      2  O   UNL     1       4.758   2.512  20.165  0.00  0.00    +0.000 OA
ENDROOT
BRANCH   1   3
ATOM      3  C   UNL     1       5.719   4.067  18.753  0.00  0.00    +0.000 A 
ATOM      4  C   UNL     1       6.689   4.819  19.435  0.00  0.00    +0.000 A 
ATOM      5  C   UNL     1       7.756   5.439  18.775  0.00  0.00    +0.000 A 
ATOM      6  C   UNL     1       7.346   5.898  17.514  0.00  0.00    +0.000 A 
ATOM      7  C   UNL     1       7.196   7.170  16.902  0.00  0.00    +0.000 A 
ATOM      8  N   UNL     1       6.715   7.043  15.655  0.00  0.00    +0.000 NA
ATOM      9  N   UNL     1       6.377   5.739  15.573  0.00  0.00    +0.000 N 
ATOM     10  C   UNL     1       6.455   5.098  16.785  0.00  0.00    +0.000 A 
ATOM     11  C   UNL     1       5.736   4.025  17.336  0.00  0.00    +0.000 A 
ATOM     12  H   UNL     1       5.918   5.422  14.730  0.00  0.00    +0.000 HD
BRANCH   7  13
ATOM     13  C   UNL     1       7.380   8.427  17.593  0.00  0.00    +0.000 C 
ATOM     14  C   UNL     1       8.559   8.842  18.081  0.00  0.00    +0.000 C 
BRANCH  14  15
ATOM     15  C   UNL     1       8.874  10.128  18.702  0.00  0.00    +0.000 A 
ATOM     16  C   UNL     1       8.698  11.299  17.958  0.00  0.00    +0.000 A 
ATOM     17  C   UNL     1       9.010  12.531  18.523  0.00  0.00    +0.000 A 
ATOM     18  C   UNL     1       9.475  12.575  19.829  0.00  0.00    +0.000 A 
ATOM     19  C   UNL     1       9.600  11.375  20.514  0.00  0.00    +0.000 A 
ATOM     20  N   UNL     1       9.311  10.158  19.986  0.00  0.00    +0.000 NA
ENDBRANCH  14  15
ENDBRANCH   7  13
ENDBRANCH   1   3
BRANCH   1  25
ATOM     21  C   UNL     1       2.084   6.407  20.150  0.00  0.00    +0.000 A 
ATOM     22  C   UNL     1       1.005   5.669  20.627  0.00  0.00    +0.000 A 
ATOM     23  C   UNL     1       1.041   4.248  20.692  0.00  0.00    +0.000 A 
ATOM     24  C   UNL     1       2.162   3.518  20.300  0.00  0.00    +0.000 A 
ATOM     25  C   UNL     1       3.257   4.216  19.809  0.00  0.00    +0.000 A 
ATOM     26  C   UNL     1       3.209   5.645  19.736  0.00  0.00    +0.000 A 
BRANCH  21  29
ATOM     27  C   UNL     1       1.839   8.758  19.050  0.00  0.00    +0.000 C 
ATOM     28  O   UNL     1       1.861   8.356  17.885  0.00  0.00    +0.000 OA
ATOM     29  N   UNL     1       2.187   7.875  20.113  0.00  0.00    +0.000 N 
ATOM     30  H   UNL     1       2.230   8.281  21.006  0.00  0.00    +0.000 HD
BRANCH  27  36
ATOM     31  N   UNL     1       0.336  10.623  20.605  0.00  0.00    +0.000 N 
ATOM     32  N   UNL     1      -0.265  11.911  20.152  0.00  0.00    +0.000 NA
ATOM     33  C   UNL     1       0.498  12.972  19.636  0.00  0.00    +0.000 A 
ATOM     34  C   UNL     1       1.437  12.654  18.485  0.00  0.00    +0.000 C 
ATOM     35  C   UNL     1       1.150  13.716  20.725  0.00  0.00    +0.000 A 
ATOM     36  C   UNL     1       0.846   9.770  19.388  0.00  0.00    +0.000 A 
BRANCH  31  37
ATOM     37  C   UNL     1      -0.495   9.815  21.537  0.00  0.00    +0.000 C 
BRANCH  37  39
ATOM     38  C   UNL     1      -1.756  11.336  23.206  0.00  0.00    +0.000 C 
ATOM     39  C   UNL     1      -0.675  10.298  22.989  0.00  0.00    +0.000 C 
ENDBRANCH  37  39
ENDBRANCH  31  37
ENDBRANCH  27  36
ENDBRANCH  21  29
ENDBRANCH   1  25
TORSDOF 8
ENDMDL
MODEL 8
REMARK VINA RESULT:      -8.3      4.178      6.042
REMARK  Name = 
REMARK  10 active torsions:
REMARK  status: ('A' for Active; 'I' for Inactive)
REMARK    1  A    between atoms: C_1  and  C_2
REMARK    2  A    between atoms: C_2  and  C_3
REMARK    3  A    between atoms: C_3  and  N_4
REMARK    4  A    between atoms: C_6  and  C_7
REMARK    5  A    between atoms: C_9  and  C_10
REMARK    6  A    between atoms: N_12  and  C_13
REMARK    7  A    between atoms: C_17  and  C_18
REMARK    8  A    between atoms: C_18  and  C_20
REMARK    9  A    between atoms: C_24  and  C_25
REMARK   10  A    between atoms: C_26  and  C_27
REMARK                            x       y       z     vdW  Elec       q    Type
REMARK                         _______ _______ _______ _____ _____    ______ ____
ROOT
ATOM      1  C   UNL     1       2.213   7.892  18.884  0.00  0.00    +0.000 C 
ATOM      2  O   UNL     1       2.427   8.365  17.789  0.00  0.00    +0.000 OA
ENDROOT
BRANCH   1   3
ATOM      3  C   UNL     1       2.889   6.566  19.162  0.00  0.00    +0.000 A 
ATOM      4  C   UNL     1       4.259   6.493  18.858  0.00  0.00    +0.000 A 
ATOM      5  C   UNL     1       4.986   5.302  18.966  0.00  0.00    +0.000 A 
ATOM      6  C   UNL     1       4.181   4.208  18.611  0.00  0.00    +0.000 A 
ATOM      7  C   UNL     1       4.185   3.249  17.565  0.00  0.00    +0.000 A 
ATOM      8  N   UNL     1       3.133   2.422  17.675  0.00  0.00    +0.000 NA
ATOM      9  N   UNL     1       2.382   2.987  18.644  0.00  0.00    +0.000 N 
ATOM     10  C   UNL     1       2.835   4.232  19.002  0.00  0.00    +0.000 A 
ATOM     11  C   UNL     1       2.177   5.380  19.472  0.00  0.00    +0.000 A 
ATOM     12  H   UNL     1       1.486   2.567  18.851  0.00  0.00    +0.000 HD
BRANCH   7  13
ATOM     13  C   UNL     1       5.104   3.273  16.448  0.00  0.00    +0.000 C 
ATOM     14  C   UNL     1       5.005   4.133  15.423  0.00  0.00    +0.000 C 
BRANCH  14  15
ATOM     15  C   UNL     1       5.929   4.308  14.303  0.00  0.00    +0.000 A 
ATOM     16  C   UNL     1       5.703   3.592  13.123  0.00  0.00    +0.000 A 
ATOM     17  C   UNL     1       6.581   3.728  12.052  0.00  0.00    +0.000 A 
ATOM     18  C   UNL     1       7.658   4.592  12.170  0.00  0.00    +0.000 A 
ATOM     19  C   UNL     1       7.804   5.289  13.361  0.00  0.00    +0.000 A 
ATOM     20  N   UNL     1       6.969   5.170  14.425  0.00  0.00    +0.000 NA
ENDBRANCH  14  15
ENDBRANCH   7  13
ENDBRANCH   1   3
BRANCH   1  25
ATOM     21  C   UNL     1      -0.349  10.527  19.917  0.00  0.00    +0.000 A 
ATOM     22  C   UNL     1      -0.215  10.434  21.299  0.00  0.00    +0.000 A 
ATOM     23  C   UNL     1       0.638   9.470  21.905  0.00  0.00    +0.000 A 
ATOM     24  C   UNL     1       1.401   8.578  21.151  0.00  0.00    +0.000 A 
ATOM     25  C   UNL     1       1.288   8.632  19.768  0.00  0.00    +0.000 A 
ATOM     26  C   UNL     1       0.418   9.597  19.166  0.00  0.00    +0.000 A 
BRANCH  21  29
ATOM     27  C   UNL     1      -2.392  11.364  18.530  0.00  0.00    +0.000 C 
ATOM     28  O   UNL     1      -2.721  10.255  18.106  0.00  0.00    +0.000 OA
ATOM     29  N   UNL     1      -1.137  11.531  19.184  0.00  0.00    +0.000 N 
ATOM     30  H   UNL     1      -0.901  12.454  19.422  0.00  0.00    +0.000 HD
BRANCH  27  36
ATOM     31  N   UNL     1      -4.875  12.186  19.677  0.00  0.00    +0.000 N 
ATOM     32  N   UNL     1      -5.147  13.419  20.472  0.00  0.00    +0.000 NA
ATOM     33  C   UNL     1      -4.503  13.703  21.687  0.00  0.00    +0.000 A 
ATOM     34  C   UNL     1      -2.985  13.669  21.691  0.00  0.00    +0.000 C 
ATOM     35  C   UNL     1      -5.102  12.924  22.783  0.00  0.00    +0.000 A 
ATOM     36  C   UNL     1      -3.456  12.240  19.004  0.00  0.00    +0.000 A 
BRANCH  31  37
ATOM     37  C   UNL     1      -5.933  11.796  18.706  0.00  0.00    +0.000 C 
BRANCH  37  39
ATOM     38  C   UNL     1      -6.703  13.617  17.038  0.00  0.00    +0.000 C 
ATOM     39  C   UNL     1      -5.882  12.367  17.276  0.00  0.00    +0.000 C 
ENDBRANCH  37  39
ENDBRANCH  31  37
ENDBRANCH  27  36
ENDBRANCH  21  29
ENDBRANCH   1  25
TORSDOF 8
ENDMDL
MODEL 9
REMARK VINA RESULT:      -8.3      4.248      6.275
REMARK  Name = 
REMARK  10 active torsions:
REMARK  status: ('A' for Active; 'I' for Inactive)
REMARK    1  A    between atoms: C_1  and  C_2
REMARK    2  A    between atoms: C_2  and  C_3
REMARK    3  A    between atoms: C_3  and  N_4
REMARK    4  A    between atoms: C_6  and  C_7
REMARK    5  A    between atoms: C_9  and  C_10
REMARK    6  A    between atoms: N_12  and  C_13
REMARK    7  A    between atoms: C_17  and  C_18
REMARK    8  A    between atoms: C_18  and  C_20
REMARK    9  A    between atoms: C_24  and  C_25
REMARK   10  A    between atoms: C_26  and  C_27
REMARK                            x       y       z     vdW  Elec       q    Type
REMARK                         _______ _______ _______ _____ _____    ______ ____
ROOT
ATOM      1  C   UNL     1       2.009   8.033  19.383  0.00  0.00    +0.000 C 
ATOM      2  O   UNL     1       2.181   8.583  18.317  0.00  0.00    +0.000 OA
ENDROOT
BRANCH   1   3
ATOM      3  C   UNL     1       2.659   6.673  19.524  0.00  0.00    +0.000 A 
ATOM      4  C   UNL     1       3.955   6.546  18.996  0.00  0.00    +0.000 A 
ATOM      5  C   UNL     1       4.633   5.323  18.963  0.00  0.00    +0.000 A 
ATOM      6  C   UNL     1       3.731   4.273  18.730  0.00  0.00    +0.000 A 
ATOM      7  C   UNL     1       3.517   3.339  17.683  0.00  0.00    +0.000 A 
ATOM      8  N   UNL     1       2.460   2.557  17.954  0.00  0.00    +0.000 NA
ATOM      9  N   UNL     1       1.906   3.132  19.043  0.00  0.00    +0.000 N 
ATOM     10  C   UNL     1       2.470   4.347  19.340  0.00  0.00    +0.000 A 
ATOM     11  C   UNL     1       1.953   5.512  19.929  0.00  0.00    +0.000 A 
ATOM     12  H   UNL     1       1.038   2.746  19.390  0.00  0.00    +0.000 HD
BRANCH   7  13
ATOM     13  C   UNL     1       4.239   3.349  16.431  0.00  0.00    +0.000 C 
ATOM     14  C   UNL     1       4.978   4.385  16.006  0.00  0.00    +0.000 C 
BRANCH  14  15
ATOM     15  C   UNL     1       5.821   4.461  14.813  0.00  0.00    +0.000 A 
ATOM     16  C   UNL     1       5.485   3.686  13.698  0.00  0.00    +0.000 A 
ATOM     17  C   UNL     1       6.285   3.728  12.561  0.00  0.00    +0.000 A 
ATOM     18  C   UNL     1       7.396   4.557  12.548  0.00  0.00    +0.000 A 
ATOM     19  C   UNL     1       7.651   5.316  13.681  0.00  0.00    +0.000 A 
ATOM     20  N   UNL     1       6.895   5.289  14.808  0.00  0.00    +0.000 NA
ENDBRANCH  14  15
ENDBRANCH   7  13
ENDBRANCH   1   3
BRANCH   1  25
ATOM     21  C   UNL     1      -0.313  10.720  20.784  0.00  0.00    +0.000 A 
ATOM     22  C   UNL     1      -0.188  10.432  22.140  0.00  0.00    +0.000 A 
ATOM     23  C   UNL     1       0.577   9.325  22.603  0.00  0.00    +0.000 A 
ATOM     24  C   UNL     1       1.258   8.480  21.729  0.00  0.00    +0.000 A 
ATOM     25  C   UNL     1       1.152   8.726  20.367  0.00  0.00    +0.000 A 
ATOM     26  C   UNL     1       0.370   9.835  19.908  0.00  0.00    +0.000 A 
BRANCH  21  29
ATOM     27  C   UNL     1      -2.192  11.888  19.405  0.00  0.00    +0.000 C 
ATOM     28  O   UNL     1      -2.489  10.900  18.732  0.00  0.00    +0.000 OA
ATOM     29  N   UNL     1      -1.009  11.878  20.200  0.00  0.00    +0.000 N 
ATOM     30  H   UNL     1      -0.788  12.725  20.645  0.00  0.00    +0.000 HD
BRANCH  27  36
ATOM     31  N   UNL     1      -4.690  12.524  20.635  0.00  0.00    +0.000 N 
ATOM     32  N   UNL     1      -5.007  13.699  21.498  0.00  0.00    +0.000 NA
ATOM     33  C   UNL     1      -4.354  13.953  22.715  0.00  0.00    +0.000 A 
ATOM     34  C   UNL     1      -2.836  13.996  22.692  0.00  0.00    +0.000 C 
ATOM     35  C   UNL     1      -4.891  13.091  23.779  0.00  0.00    +0.000 A 
ATOM     36  C   UNL     1      -3.288  12.684  19.942  0.00  0.00    +0.000 A 
BRANCH  31  37
ATOM     37  C   UNL     1      -5.745  12.132  19.664  0.00  0.00    +0.000 C 
BRANCH  37  39
ATOM     38  C   UNL     1      -7.469  10.348  20.395  0.00  0.00    +0.000 C 
ATOM     39  C   UNL     1      -7.160  11.815  20.185  0.00  0.00    +0.000 C 
ENDBRANCH  37  39
ENDBRANCH  31  37
ENDBRANCH  27  36
ENDBRANCH  21  29
ENDBRANCH   1  25
TORSDOF 8
ENDMDL
