MODEL 1
REMARK VINA RESULT:      -7.9      0.000      0.000
REMARK  Name = 
REMARK  6 active torsions:
REMARK  status: ('A' for Active; 'I' for Inactive)
REMARK    1  A    between atoms: C_2  and  C_3
REMARK    2  A    between atoms: C_2  and  N_18
REMARK    3  A    between atoms: C_8  and  O_9
REMARK    4  A    between atoms: O_9  and  C_10
REMARK    5  A    between atoms: C_10  and  C_11
REMARK    6  A    between atoms: C_14  and  C_15
REMARK                            x       y       z     vdW  Elec       q    Type
REMARK                         _______ _______ _______ _____ _____    ______ ____
ROOT
ATOM      1  C   UNL     1       3.758   3.886  17.545  0.00  0.00    +0.000 A 
ATOM      2  C   UNL     1       3.671   2.488  17.716  0.00  0.00    +0.000 A 
ATOM      3  C   UNL     1       2.500   1.892  18.184  0.00  0.00    +0.000 A 
ATOM      4  C   UNL     1       1.396   2.679  18.479  0.00  0.00    +0.000 A 
ATOM      5  C   UNL     1       1.466   4.060  18.319  0.00  0.00    +0.000 A 
ATOM      6  C   UNL     1       2.643   4.689  17.871  0.00  0.00    +0.000 A 
ENDROOT
BRANCH   1   8
ATOM      7  C   UNL     1       5.246   4.235  15.698  0.00  0.00    +0.000 C 
ATOM      8  C   UNL     1       5.050   4.405  17.021  0.00  0.00    +0.000 C 
BRANCH   8   9
ATOM      9  N   UNL     1       6.025   4.941  17.892  0.00  0.00    +0.000 N 
ATOM     10  C   UNL     1       7.184   5.626  17.562  0.00  0.00    +0.000 A 
ATOM     11  C   UNL     1       7.805   5.949  18.744  0.00  0.00    +0.000 A 
ATOM     12  N   UNL     1       7.103   5.461  19.805  0.00  0.00    +0.000 NA
ATOM     13  C   UNL     1       6.060   4.861  19.275  0.00  0.00    +0.000 A 
ENDBRANCH   8   9
ENDBRANCH   1   8
BRANCH   6  14
ATOM     14  O   UNL     1       2.744   6.056  17.708  0.00  0.00    +0.000 OA
BRANCH  14  15
ATOM     15  C   UNL     1       2.998   6.797  18.914  0.00  0.00    +0.000 C 
BRANCH  15  16
ATOM     16  C   UNL     1       2.015   7.924  19.096  0.00  0.00    +0.000 A 
ATOM     17  C   UNL     1       1.495   8.197  20.368  0.00  0.00    +0.000 A 
ATOM     18  C   UNL     1       0.643   9.285  20.569  0.00  0.00    +0.000 A 
ATOM     19  C   UNL     1       0.295  10.116  19.500  0.00  0.00    +0.000 A 
ATOM     20  C   UNL     1      -0.649  11.265  19.693  0.00  0.00    +0.000 C 
ATOM     21  C   UNL     1       0.830   9.856  18.232  0.00  0.00    +0.000 A 
ATOM     22  C   UNL     1       1.685   8.770  18.032  0.00  0.00    +0.000 A 
ENDBRANCH  15  16
ENDBRANCH  14  15
ENDBRANCH   6  14
TORSDOF 5
ENDMDL
MODEL 2
REMARK VINA RESULT:      -7.7      1.199      1.476
REMARK  Name = 
REMARK  6 active torsions:
REMARK  status: ('A' for Active; 'I' for Inactive)
REMARK    1  A    between atoms: C_2  and  C_3
REMARK    2  A    between atoms: C_2  and  N_18
REMARK    3  A    between atoms: C_8  and  O_9
REMARK    4  A    between atoms: O_9  and  C_10
REMARK    5  A    between atoms: C_10  and  C_11
REMARK    6  A    between atoms: C_14  and  C_15
REMARK                            x       y       z     vdW  Elec       q    Type
REMARK                         _______ _______ _______ _____ _____    ______ ____
ROOT
ATOM      1  C   UNL     1       3.862   5.108  17.546  0.00  0.00    +0.000 A 
ATOM      2  C   UNL     1       3.676   3.824  16.990  0.00  0.00    +0.000 A 
ATOM      3  C   UNL     1       2.516   3.091  17.245  0.00  0.00    +0.000 A 
ATOM      4  C   UNL     1       1.522   3.631  18.048  0.00  0.00    +0.000 A 
ATOM      5  C   UNL     1       1.691   4.896  18.607  0.00  0.00    +0.000 A 
ATOM      6  C   UNL     1       2.862   5.645  18.386  0.00  0.00    +0.000 A 
ENDROOT
BRANCH   1   8
ATOM      7  C   UNL     1       5.189   6.276  15.927  0.00  0.00    +0.000 C 
ATOM      8  C   UNL     1       5.129   5.801  17.188  0.00  0.00    +0.000 C 
BRANCH   8   9
ATOM      9  N   UNL     1       6.211   5.851  18.095  0.00  0.00    +0.000 N 
ATOM     10  C   UNL     1       7.424   6.507  17.945  0.00  0.00    +0.000 A 
ATOM     11  C   UNL     1       8.148   6.268  19.088  0.00  0.00    +0.000 A 
ATOM     12  N   UNL     1       7.457   5.455  19.935  0.00  0.00    +0.000 NA
ATOM     13  C   UNL     1       6.318   5.216  19.321  0.00  0.00    +0.000 A 
ENDBRANCH   8   9
ENDBRANCH   1   8
BRANCH   6  14
ATOM     14  O   UNL     1       3.061   6.898  18.931  0.00  0.00    +0.000 OA
BRANCH  14  15
ATOM     15  C   UNL     1       2.212   7.933  18.408  0.00  0.00    +0.000 C 
BRANCH  15  16
ATOM     16  C   UNL     1       1.425   8.615  19.496  0.00  0.00    +0.000 A 
ATOM     17  C   UNL     1       1.460   8.110  20.803  0.00  0.00    +0.000 A 
ATOM     18  C   UNL     1       0.800   8.774  21.839  0.00  0.00    +0.000 A 
ATOM     19  C   UNL     1       0.091   9.952  21.585  0.00  0.00    +0.000 A 
ATOM     20  C   UNL     1      -0.654  10.655  22.680  0.00  0.00    +0.000 C 
ATOM     21  C   UNL     1       0.072  10.469  20.283  0.00  0.00    +0.000 A 
ATOM     22  C   UNL     1       0.736   9.807  19.247  0.00  0.00    +0.000 A 
ENDBRANCH  15  16
ENDBRANCH  14  15
ENDBRANCH   6  14
TORSDOF 5
ENDMDL
MODEL 3
REMARK VINA RESULT:      -7.7      1.023      2.160
REMARK  Name = 
REMARK  6 active torsions:
REMARK  status: ('A' for Active; 'I' for Inactive)
REMARK    1  A    between atoms: C_2  and  C_3
REMARK    2  A    between atoms: C_2  and  N_18
REMARK    3  A    between atoms: C_8  and  O_9
REMARK    4  A    between atoms: O_9  and  C_10
REMARK    5  A    between atoms: C_10  and  C_11
REMARK    6  A    between atoms: C_14  and  C_15
REMARK                            x       y       z     vdW  Elec       q    Type
REMARK                         _______ _______ _______ _____ _____    ______ ____
ROOT
ATOM      1  C   UNL     1       3.934   3.902  18.117  0.00  0.00    +0.000 A 
ATOM      2  C   UNL     1       3.850   2.496  18.200  0.00  0.00    +0.000 A 
ATOM      3  C   UNL     1       2.616   1.855  18.316  0.00  0.00    +0.000 A 
ATOM      4  C   UNL     1       1.450   2.605  18.341  0.00  0.00    +0.000 A 
ATOM      5  C   UNL     1       1.515   3.993  18.263  0.00  0.00    +0.000 A 
ATOM      6  C   UNL     1       2.748   4.666  18.170  0.00  0.00    +0.000 A 
ENDROOT
BRANCH   1   8
ATOM      7  C   UNL     1       5.875   4.886  19.125  0.00  0.00    +0.000 C 
ATOM      8  C   UNL     1       5.301   4.471  17.976  0.00  0.00    +0.000 C 
BRANCH   8   9
ATOM      9  N   UNL     1       5.889   4.645  16.703  0.00  0.00    +0.000 N 
ATOM     10  C   UNL     1       5.369   4.298  15.465  0.00  0.00    +0.000 A 
ATOM     11  C   UNL     1       6.302   4.665  14.526  0.00  0.00    +0.000 A 
ATOM     12  N   UNL     1       7.406   5.194  15.125  0.00  0.00    +0.000 NA
ATOM     13  C   UNL     1       7.140   5.162  16.412  0.00  0.00    +0.000 A 
ENDBRANCH   8   9
ENDBRANCH   1   8
BRANCH   6  14
ATOM     14  O   UNL     1       2.844   6.041  18.098  0.00  0.00    +0.000 OA
BRANCH  14  15
ATOM     15  C   UNL     1       2.821   6.722  19.363  0.00  0.00    +0.000 C 
BRANCH  15  16
ATOM     16  C   UNL     1       1.975   7.967  19.314  0.00  0.00    +0.000 A 
ATOM     17  C   UNL     1       1.761   8.617  18.091  0.00  0.00    +0.000 A 
ATOM     18  C   UNL     1       0.917   9.727  18.015  0.00  0.00    +0.000 A 
ATOM     19  C   UNL     1       0.276  10.207  19.161  0.00  0.00    +0.000 A 
ATOM     20  C   UNL     1      -0.603  11.421  19.101  0.00  0.00    +0.000 C 
ATOM     21  C   UNL     1       0.473   9.547  20.380  0.00  0.00    +0.000 A 
ATOM     22  C   UNL     1       1.315   8.434  20.456  0.00  0.00    +0.000 A 
ENDBRANCH  15  16
ENDBRANCH  14  15
ENDBRANCH   6  14
TORSDOF 5
ENDMDL
MODEL 4
REMARK VINA RESULT:      -7.6      1.238      1.847
REMARK  Name = 
REMARK  6 active torsions:
REMARK  status: ('A' for Active; 'I' for Inactive)
REMARK    1  A    between atoms: C_2  and  C_3
REMARK    2  A    between atoms: C_2  and  N_18
REMARK    3  A    between atoms: C_8  and  O_9
REMARK    4  A    between atoms: O_9  and  C_10
REMARK    5  A    between atoms: C_10  and  C_11
REMARK    6  A    between atoms: C_14  and  C_15
REMARK                            x       y       z     vdW  Elec       q    Type
REMARK                         _______ _______ _______ _____ _____    ______ ____
ROOT
ATOM      1  C   UNL     1       3.965   5.074  17.320  0.00  0.00    +0.000 A 
ATOM      2  C   UNL     1       3.759   3.738  16.914  0.00  0.00    +0.000 A 
ATOM      3  C   UNL     1       2.614   3.039  17.297  0.00  0.00    +0.000 A 
ATOM      4  C   UNL     1       1.655   3.664  18.079  0.00  0.00    +0.000 A 
ATOM      5  C   UNL     1       1.843   4.981  18.491  0.00  0.00    +0.000 A 
ATOM      6  C   UNL     1       3.001   5.701  18.139  0.00  0.00    +0.000 A 
ENDROOT
BRANCH   1   8
ATOM      7  C   UNL     1       5.255   5.974  15.509  0.00  0.00    +0.000 C 
ATOM      8  C   UNL     1       5.213   5.723  16.834  0.00  0.00    +0.000 C 
BRANCH   8   9
ATOM      9  N   UNL     1       6.300   5.954  17.707  0.00  0.00    +0.000 N 
ATOM     10  C   UNL     1       6.628   5.269  18.866  0.00  0.00    +0.000 A 
ATOM     11  C   UNL     1       7.765   5.855  19.366  0.00  0.00    +0.000 A 
ATOM     12  N   UNL     1       8.145   6.908  18.589  0.00  0.00    +0.000 NA
ATOM     13  C   UNL     1       7.257   6.951  17.619  0.00  0.00    +0.000 A 
ENDBRANCH   8   9
ENDBRANCH   1   8
BRANCH   6  14
ATOM     14  O   UNL     1       3.219   7.005  18.536  0.00  0.00    +0.000 OA
BRANCH  14  15
ATOM     15  C   UNL     1       2.221   7.948  18.110  0.00  0.00    +0.000 C 
BRANCH  15  16
ATOM     16  C   UNL     1       1.552   8.621  19.280  0.00  0.00    +0.000 A 
ATOM     17  C   UNL     1       0.785   9.776  19.075  0.00  0.00    +0.000 A 
ATOM     18  C   UNL     1       0.095  10.368  20.134  0.00  0.00    +0.000 A 
ATOM     19  C   UNL     1       0.164   9.818  21.418  0.00  0.00    +0.000 A 
ATOM     20  C   UNL     1      -0.540  10.464  22.573  0.00  0.00    +0.000 C 
ATOM     21  C   UNL     1       0.915   8.653  21.620  0.00  0.00    +0.000 A 
ATOM     22  C   UNL     1       1.602   8.058  20.559  0.00  0.00    +0.000 A 
ENDBRANCH  15  16
ENDBRANCH  14  15
ENDBRANCH   6  14
TORSDOF 5
ENDMDL
MODEL 5
REMARK VINA RESULT:      -7.5      1.394      1.896
REMARK  Name = 
REMARK  6 active torsions:
REMARK  status: ('A' for Active; 'I' for Inactive)
REMARK    1  A    between atoms: C_2  and  C_3
REMARK    2  A    between atoms: C_2  and  N_18
REMARK    3  A    between atoms: C_8  and  O_9
REMARK    4  A    between atoms: O_9  and  C_10
REMARK    5  A    between atoms: C_10  and  C_11
REMARK    6  A    between atoms: C_14  and  C_15
REMARK                            x       y       z     vdW  Elec       q    Type
REMARK                         _______ _______ _______ _____ _____    ______ ____
ROOT
ATOM      1  C   UNL     1       3.432   3.844  19.191  0.00  0.00    +0.000 A 
ATOM      2  C   UNL     1       3.606   2.827  20.154  0.00  0.00    +0.000 A 
ATOM      3  C   UNL     1       2.728   2.696  21.229  0.00  0.00    +0.000 A 
ATOM      4  C   UNL     1       1.658   3.570  21.355  0.00  0.00    +0.000 A 
ATOM      5  C   UNL     1       1.472   4.581  20.416  0.00  0.00    +0.000 A 
ATOM      6  C   UNL     1       2.358   4.750  19.335  0.00  0.00    +0.000 A 
ENDROOT
BRANCH   1   8
ATOM      7  C   UNL     1       4.061   3.190  16.972  0.00  0.00    +0.000 C 
ATOM      8  C   UNL     1       4.419   3.873  18.079  0.00  0.00    +0.000 C 
BRANCH   8   9
ATOM      9  N   UNL     1       5.678   4.494  18.240  0.00  0.00    +0.000 N 
ATOM     10  C   UNL     1       6.108   5.302  19.281  0.00  0.00    +0.000 A 
ATOM     11  C   UNL     1       7.401   5.665  18.995  0.00  0.00    +0.000 A 
ATOM     12  N   UNL     1       7.791   5.150  17.796  0.00  0.00    +0.000 NA
ATOM     13  C   UNL     1       6.752   4.469  17.365  0.00  0.00    +0.000 A 
ENDBRANCH   8   9
ENDBRANCH   1   8
BRANCH   6  14
ATOM     14  O   UNL     1       2.204   5.746  18.392  0.00  0.00    +0.000 OA
BRANCH  14  15
ATOM     15  C   UNL     1       2.921   6.962  18.665  0.00  0.00    +0.000 C 
BRANCH  15  16
ATOM     16  C   UNL     1       1.991   8.094  19.016  0.00  0.00    +0.000 A 
ATOM     17  C   UNL     1       1.516   8.944  18.008  0.00  0.00    +0.000 A 
ATOM     18  C   UNL     1       0.593   9.949  18.304  0.00  0.00    +0.000 A 
ATOM     19  C   UNL     1       0.134  10.124  19.613  0.00  0.00    +0.000 A 
ATOM     20  C   UNL     1      -0.827  11.224  19.953  0.00  0.00    +0.000 C 
ATOM     21  C   UNL     1       0.594   9.263  20.617  0.00  0.00    +0.000 A 
ATOM     22  C   UNL     1       1.514   8.254  20.321  0.00  0.00    +0.000 A 
ENDBRANCH  15  16
ENDBRANCH  14  15
ENDBRANCH   6  14
TORSDOF 5
ENDMDL
MODEL 6
REMARK VINA RESULT:      -7.5      0.687      1.344
REMARK  Name = 
REMARK  6 active torsions:
REMARK  status: ('A' for Active; 'I' for Inactive)
REMARK    1  A    between atoms: C_2  and  C_3
REMARK    2  A    between atoms: C_2  and  N_18
REMARK    3  A    between atoms: C_8  and  O_9
REMARK    4  A    between atoms: O_9  and  C_10
REMARK    5  A    between atoms: C_10  and  C_11
REMARK    6  A    between atoms: C_14  and  C_15
REMARK                            x       y       z     vdW  Elec       q    Type
REMARK                         _______ _______ _______ _____ _____    ______ ____
ROOT
ATOM      1  C   UNL     1       3.681   3.801  17.620  0.00  0.00    +0.000 A 
ATOM      2  C   UNL     1       3.540   2.397  17.574  0.00  0.00    +0.000 A 
ATOM      3  C   UNL     1       2.386   1.775  18.051  0.00  0.00    +0.000 A 
ATOM      4  C   UNL     1       1.354   2.542  18.570  0.00  0.00    +0.000 A 
ATOM      5  C   UNL     1       1.478   3.928  18.625  0.00  0.00    +0.000 A 
ATOM      6  C   UNL     1       2.641   4.579  18.173  0.00  0.00    +0.000 A 
ENDROOT
BRANCH   1   8
ATOM      7  C   UNL     1       5.018   4.389  15.718  0.00  0.00    +0.000 C 
ATOM      8  C   UNL     1       4.947   4.351  17.064  0.00  0.00    +0.000 C 
BRANCH   8   9
ATOM      9  N   UNL     1       6.020   4.706  17.913  0.00  0.00    +0.000 N 
ATOM     10  C   UNL     1       5.962   5.309  19.160  0.00  0.00    +0.000 A 
ATOM     11  C   UNL     1       7.258   5.450  19.593  0.00  0.00    +0.000 A 
ATOM     12  N   UNL     1       8.132   4.997  18.652  0.00  0.00    +0.000 NA
ATOM     13  C   UNL     1       7.376   4.570  17.664  0.00  0.00    +0.000 A 
ENDBRANCH   8   9
ENDBRANCH   1   8
BRANCH   6  14
ATOM     14  O   UNL     1       2.796   5.950  18.220  0.00  0.00    +0.000 OA
BRANCH  14  15
ATOM     15  C   UNL     1       2.508   6.553  19.492  0.00  0.00    +0.000 C 
BRANCH  15  16
ATOM     16  C   UNL     1       1.953   7.945  19.339  0.00  0.00    +0.000 A 
ATOM     17  C   UNL     1       1.962   8.565  18.082  0.00  0.00    +0.000 A 
ATOM     18  C   UNL     1       1.383   9.823  17.906  0.00  0.00    +0.000 A 
ATOM     19  C   UNL     1       0.789  10.484  18.985  0.00  0.00    +0.000 A 
ATOM     20  C   UNL     1       0.196  11.852  18.821  0.00  0.00    +0.000 C 
ATOM     21  C   UNL     1       0.762   9.857  20.238  0.00  0.00    +0.000 A 
ATOM     22  C   UNL     1       1.338   8.597  20.413  0.00  0.00    +0.000 A 
ENDBRANCH  15  16
ENDBRANCH  14  15
ENDBRANCH   6  14
TORSDOF 5
ENDMDL
MODEL 7
REMARK VINA RESULT:      -7.4      2.132      3.693
REMARK  Name = 
REMARK  6 active torsions:
REMARK  status: ('A' for Active; 'I' for Inactive)
REMARK    1  A    between atoms: C_2  and  C_3
REMARK    2  A    between atoms: C_2  and  N_18
REMARK    3  A    between atoms: C_8  and  O_9
REMARK    4  A    between atoms: O_9  and  C_10
REMARK    5  A    between atoms: C_10  and  C_11
REMARK    6  A    between atoms: C_14  and  C_15
REMARK                            x       y       z     vdW  Elec       q    Type
REMARK                         _______ _______ _______ _____ _____    ______ ____
ROOT
ATOM      1  C   UNL     1       3.545   4.833  17.651  0.00  0.00    +0.000 A 
ATOM      2  C   UNL     1       4.230   4.065  16.685  0.00  0.00    +0.000 A 
ATOM      3  C   UNL     1       5.341   4.578  16.015  0.00  0.00    +0.000 A 
ATOM      4  C   UNL     1       5.790   5.858  16.305  0.00  0.00    +0.000 A 
ATOM      5  C   UNL     1       5.124   6.630  17.253  0.00  0.00    +0.000 A 
ATOM      6  C   UNL     1       3.986   6.145  17.925  0.00  0.00    +0.000 A 
ENDROOT
BRANCH   1   8
ATOM      7  C   UNL     1       1.240   4.174  17.605  0.00  0.00    +0.000 C 
ATOM      8  C   UNL     1       2.388   4.173  18.313  0.00  0.00    +0.000 C 
BRANCH   8   9
ATOM      9  N   UNL     1       2.490   3.680  19.634  0.00  0.00    +0.000 N 
ATOM     10  C   UNL     1       3.175   2.561  20.080  0.00  0.00    +0.000 A 
ATOM     11  C   UNL     1       2.983   2.493  21.438  0.00  0.00    +0.000 A 
ATOM     12  N   UNL     1       2.172   3.502  21.861  0.00  0.00    +0.000 NA
ATOM     13  C   UNL     1       1.886   4.185  20.774  0.00  0.00    +0.000 A 
ENDBRANCH   8   9
ENDBRANCH   1   8
BRANCH   6  14
ATOM     14  O   UNL     1       3.301   6.889  18.865  0.00  0.00    +0.000 OA
BRANCH  14  15
ATOM     15  C   UNL     1       2.363   7.836  18.328  0.00  0.00    +0.000 C 
BRANCH  15  16
ATOM     16  C   UNL     1       1.619   8.566  19.416  0.00  0.00    +0.000 A 
ATOM     17  C   UNL     1       0.910   9.735  19.112  0.00  0.00    +0.000 A 
ATOM     18  C   UNL     1       0.152  10.381  20.091  0.00  0.00    +0.000 A 
ATOM     19  C   UNL     1       0.095   9.871  21.392  0.00  0.00    +0.000 A 
ATOM     20  C   UNL     1      -0.683  10.574  22.463  0.00  0.00    +0.000 C 
ATOM     21  C   UNL     1       0.788   8.691  21.691  0.00  0.00    +0.000 A 
ATOM     22  C   UNL     1       1.543   8.042  20.711  0.00  0.00    +0.000 A 
ENDBRANCH  15  16
ENDBRANCH  14  15
ENDBRANCH   6  14
TORSDOF 5
ENDMDL
MODEL 8
REMARK VINA RESULT:      -7.4      1.162      2.021
REMARK  Name = 
REMARK  6 active torsions:
REMARK  status: ('A' for Active; 'I' for Inactive)
REMARK    1  A    between atoms: C_2  and  C_3
REMARK    2  A    between atoms: C_2  and  N_18
REMARK    3  A    between atoms: C_8  and  O_9
REMARK    4  A    between atoms: O_9  and  C_10
REMARK    5  A    between atoms: C_10  and  C_11
REMARK    6  A    between atoms: C_14  and  C_15
REMARK                            x       y       z     vdW  Elec       q    Type
REMARK                         _______ _______ _______ _____ _____    ______ ____
ROOT
ATOM      1  C   UNL     1       4.117   4.087  18.029  0.00  0.00    +0.000 A 
ATOM      2  C   UNL     1       3.749   2.761  17.713  0.00  0.00    +0.000 A 
ATOM      3  C   UNL     1       2.425   2.336  17.824  0.00  0.00    +0.000 A 
ATOM      4  C   UNL     1       1.448   3.228  18.240  0.00  0.00    +0.000 A 
ATOM      5  C   UNL     1       1.794   4.539  18.559  0.00  0.00    +0.000 A 
ATOM      6  C   UNL     1       3.126   4.986  18.479  0.00  0.00    +0.000 A 
ENDROOT
BRANCH   1   8
ATOM      7  C   UNL     1       6.238   4.649  18.996  0.00  0.00    +0.000 C 
ATOM      8  C   UNL     1       5.554   4.429  17.854  0.00  0.00    +0.000 C 
BRANCH   8   9
ATOM      9  N   UNL     1       6.108   4.603  16.566  0.00  0.00    +0.000 N 
ATOM     10  C   UNL     1       5.762   3.956  15.390  0.00  0.00    +0.000 A 
ATOM     11  C   UNL     1       6.575   4.461  14.404  0.00  0.00    +0.000 A 
ATOM     12  N   UNL     1       7.447   5.373  14.920  0.00  0.00    +0.000 NA
ATOM     13  C   UNL     1       7.157   5.432  16.201  0.00  0.00    +0.000 A 
ENDBRANCH   8   9
ENDBRANCH   1   8
BRANCH   6  14
ATOM     14  O   UNL     1       3.501   6.277  18.794  0.00  0.00    +0.000 OA
BRANCH  14  15
ATOM     15  C   UNL     1       3.013   7.290  17.898  0.00  0.00    +0.000 C 
BRANCH  15  16
ATOM     16  C   UNL     1       2.058   8.232  18.583  0.00  0.00    +0.000 A 
ATOM     17  C   UNL     1       1.772   8.065  19.945  0.00  0.00    +0.000 A 
ATOM     18  C   UNL     1       0.950   8.974  20.614  0.00  0.00    +0.000 A 
ATOM     19  C   UNL     1       0.398  10.063  19.932  0.00  0.00    +0.000 A 
ATOM     20  C   UNL     1      -0.517  11.025  20.628  0.00  0.00    +0.000 C 
ATOM     21  C   UNL     1       0.699  10.241  18.576  0.00  0.00    +0.000 A 
ATOM     22  C   UNL     1       1.524   9.334  17.907  0.00  0.00    +0.000 A 
ENDBRANCH  15  16
ENDBRANCH  14  15
ENDBRANCH   6  14
TORSDOF 5
ENDMDL
MODEL 9
REMARK VINA RESULT:      -7.4      1.852      3.868
REMARK  Name = 
REMARK  6 active torsions:
REMARK  status: ('A' for Active; 'I' for Inactive)
REMARK    1  A    between atoms: C_2  and  C_3
REMARK    2  A    between atoms: C_2  and  N_18
REMARK    3  A    between atoms: C_8  and  O_9
REMARK    4  A    between atoms: O_9  and  C_10
REMARK    5  A    between atoms: C_10  and  C_11
REMARK    6  A    between atoms: C_14  and  C_15
REMARK                            x       y       z     vdW  Elec       q    Type
REMARK                         _______ _______ _______ _____ _____    ______ ____
ROOT
ATOM      1  C   UNL     1       4.769   4.623  17.154  0.00  0.00    +0.000 A 
ATOM      2  C   UNL     1       5.241   3.667  16.229  0.00  0.00    +0.000 A 
ATOM      3  C   UNL     1       5.745   4.056  14.988  0.00  0.00    +0.000 A 
ATOM      4  C   UNL     1       5.795   5.402  14.655  0.00  0.00    +0.000 A 
ATOM      5  C   UNL     1       5.330   6.358  15.555  0.00  0.00    +0.000 A 
ATOM      6  C   UNL     1       4.795   5.990  16.804  0.00  0.00    +0.000 A 
ENDROOT
BRANCH   1   8
ATOM      7  C   UNL     1       5.158   4.134  19.469  0.00  0.00    +0.000 C 
ATOM      8  C   UNL     1       4.273   4.091  18.452  0.00  0.00    +0.000 C 
BRANCH   8   9
ATOM      9  N   UNL     1       2.995   3.497  18.554  0.00  0.00    +0.000 N 
ATOM     10  C   UNL     1       2.624   2.387  19.297  0.00  0.00    +0.000 A 
ATOM     11  C   UNL     1       1.281   2.194  19.079  0.00  0.00    +0.000 A 
ATOM     12  N   UNL     1       0.800   3.115  18.198  0.00  0.00    +0.000 NA
ATOM     13  C   UNL     1       1.834   3.868  17.896  0.00  0.00    +0.000 A 
ENDBRANCH   8   9
ENDBRANCH   1   8
BRANCH   6  14
ATOM     14  O   UNL     1       4.321   6.914  17.714  0.00  0.00    +0.000 OA
BRANCH  14  15
ATOM     15  C   UNL     1       3.097   7.569  17.339  0.00  0.00    +0.000 C 
BRANCH  15  16
ATOM     16  C   UNL     1       2.275   7.951  18.541  0.00  0.00    +0.000 A 
ATOM     17  C   UNL     1       2.273   7.127  19.674  0.00  0.00    +0.000 A 
ATOM     18  C   UNL     1       1.578   7.505  20.825  0.00  0.00    +0.000 A 
ATOM     19  C   UNL     1       0.872   8.711  20.861  0.00  0.00    +0.000 A 
ATOM     20  C   UNL     1       0.090   9.111  22.076  0.00  0.00    +0.000 C 
ATOM     21  C   UNL     1       0.890   9.544  19.736  0.00  0.00    +0.000 A 
ATOM     22  C   UNL     1       1.587   9.169  18.585  0.00  0.00    +0.000 A 
ENDBRANCH  15  16
ENDBRANCH  14  15
ENDBRANCH   6  14
TORSDOF 5
ENDMDL
