MODEL 1
REMARK VINA RESULT:      -7.4      0.000      0.000
REMARK  Name = 
REMARK  6 active torsions:
REMARK  status: ('A' for Active; 'I' for Inactive)
REMARK    1  A    between atoms: C_1  and  N_2
REMARK    2  A    between atoms: N_8  and  C_9
REMARK    3  A    between atoms: C_18  and  C_19
REMARK    4  A    between atoms: C_19  and  O_21
REMARK    5  A    between atoms: N_23  and  C_24
REMARK    6  A    between atoms: C_24  and  C_25
REMARK                            x       y       z     vdW  Elec       q    Type
REMARK                         _______ _______ _______ _____ _____    ______ ____
ROOT
ATOM      1  C   UNL     1       2.127   6.332  19.378  0.00  0.00    +0.000 A 
ATOM      2  C   UNL     1       1.380   7.208  20.191  0.00  0.00    +0.000 A 
ATOM      3  C   UNL     1       1.248   8.581  19.926  0.00  0.00    +0.000 A 
ATOM      4  C   UNL     1       1.879   9.096  18.772  0.00  0.00    +0.000 A 
ATOM      5  C   UNL     1       2.632   8.241  17.947  0.00  0.00    +0.000 A 
ATOM      6  C   UNL     1       2.766   6.889  18.241  0.00  0.00    +0.000 A 
ATOM      7  F   UNL     1       3.520   6.150  17.387  0.00  0.00    +0.000 F 
ATOM      8  C   UNL     1       1.738  10.459  18.457  0.00  0.00    +0.000 A 
ATOM      9  O   UNL     1       2.272  10.901  17.456  0.00  0.00    +0.000 OA
ATOM     10  C   UNL     1       0.975  11.299  19.294  0.00  0.00    +0.000 A 
ATOM     11  C   UNL     1       0.391  10.738  20.446  0.00  0.00    +0.000 A 
ATOM     12  N   UNL     1       0.523   9.410  20.764  0.00  0.00    +0.000 N 
ENDROOT
BRANCH   1  20
ATOM     13  C   UNL     1       2.345   2.625  17.751  0.00  0.00    +0.000 C 
ATOM     14  N   UNL     1       2.454   2.207  19.175  0.00  0.00    +0.000 NA
ATOM     15  C   UNL     1       1.330   2.616  20.036  0.00  0.00    +0.000 C 
ATOM     16  C   UNL     1       1.803   2.270  21.446  0.00  0.00    +0.000 C 
ATOM     17  C   UNL     1       3.307   2.455  21.390  0.00  0.00    +0.000 C 
ATOM     18  C   UNL     1       3.577   2.800  19.926  0.00  0.00    +0.000 C 
ATOM     19  C   UNL     1       3.593   4.319  19.731  0.00  0.00    +0.000 C 
ATOM     20  N   UNL     1       2.257   4.942  19.756  0.00  0.00    +0.000 N 
ATOM     21  C   UNL     1       1.051   4.126  19.915  0.00  0.00    +0.000 C 
ENDBRANCH   1  20
BRANCH  10  22
ATOM     22  C   UNL     1       0.792  12.756  18.956  0.00  0.00    +0.000 C 
ATOM     23  O   UNL     1       1.268  13.611  19.684  0.00  0.00    +0.000 OA
BRANCH  22  24
ATOM     24  O   UNL     1       0.128  13.176  17.855  0.00  0.00    +0.000 OA
ATOM     25  H   UNL     1      -0.497  12.649  17.347  0.00  0.00    +0.000 HD
ENDBRANCH  22  24
ENDBRANCH  10  22
BRANCH  12  26
ATOM     26  C   UNL     1      -0.089   8.847  22.004  0.00  0.00    +0.000 C 
BRANCH  26  27
ATOM     27  C   UNL     1      -0.093   9.740  23.246  0.00  0.00    +0.000 C 
ATOM     28  F   UNL     1      -1.331  10.347  23.366  0.00  0.00    +0.000 F 
ENDBRANCH  26  27
ENDBRANCH  12  26
TORSDOF 5
ENDMDL
MODEL 2
REMARK VINA RESULT:      -7.3      3.752      8.062
REMARK  Name = 
REMARK  6 active torsions:
REMARK  status: ('A' for Active; 'I' for Inactive)
REMARK    1  A    between atoms: C_1  and  N_2
REMARK    2  A    between atoms: N_8  and  C_9
REMARK    3  A    between atoms: C_18  and  C_19
REMARK    4  A    between atoms: C_19  and  O_21
REMARK    5  A    between atoms: N_23  and  C_24
REMARK    6  A    between atoms: C_24  and  C_25
REMARK                            x       y       z     vdW  Elec       q    Type
REMARK                         _______ _______ _______ _____ _____    ______ ____
ROOT
ATOM      1  C   UNL     1       1.720   8.075  19.817  0.00  0.00    +0.000 A 
ATOM      2  C   UNL     1       2.725   7.530  18.992  0.00  0.00    +0.000 A 
ATOM      3  C   UNL     1       3.127   6.186  19.055  0.00  0.00    +0.000 A 
ATOM      4  C   UNL     1       2.471   5.341  19.977  0.00  0.00    +0.000 A 
ATOM      5  C   UNL     1       1.467   5.863  20.812  0.00  0.00    +0.000 A 
ATOM      6  C   UNL     1       1.100   7.203  20.747  0.00  0.00    +0.000 A 
ATOM      7  F   UNL     1       0.125   7.611  21.600  0.00  0.00    +0.000 F 
ATOM      8  C   UNL     1       2.825   3.981  20.042  0.00  0.00    +0.000 A 
ATOM      9  O   UNL     1       2.251   3.250  20.828  0.00  0.00    +0.000 OA
ATOM     10  C   UNL     1       3.831   3.476  19.193  0.00  0.00    +0.000 A 
ATOM     11  C   UNL     1       4.471   4.369  18.313  0.00  0.00    +0.000 A 
ATOM     12  N   UNL     1       4.135   5.698  18.242  0.00  0.00    +0.000 N 
ENDROOT
BRANCH   1  20
ATOM     13  C   UNL     1      -1.366  10.576  19.003  0.00  0.00    +0.000 C 
ATOM     14  N   UNL     1      -0.343  11.625  19.264  0.00  0.00    +0.000 NA
ATOM     15  C   UNL     1       0.854  11.560  18.407  0.00  0.00    +0.000 C 
ATOM     16  C   UNL     1       1.807  12.576  19.030  0.00  0.00    +0.000 C 
ATOM     17  C   UNL     1       1.475  12.540  20.510  0.00  0.00    +0.000 C 
ATOM     18  C   UNL     1       0.294  11.574  20.594  0.00  0.00    +0.000 C 
ATOM     19  C   UNL     1       0.787  10.153  20.884  0.00  0.00    +0.000 C 
ATOM     20  N   UNL     1       1.406   9.484  19.725  0.00  0.00    +0.000 N 
ATOM     21  C   UNL     1       1.479  10.152  18.423  0.00  0.00    +0.000 C 
ENDBRANCH   1  20
BRANCH  10  22
ATOM     22  C   UNL     1       4.202   2.016  19.231  0.00  0.00    +0.000 C 
ATOM     23  O   UNL     1       3.637   1.227  18.492  0.00  0.00    +0.000 OA
BRANCH  22  24
ATOM     24  O   UNL     1       5.163   1.524  20.047  0.00  0.00    +0.000 OA
ATOM     25  H   UNL     1       5.980   1.106  19.755  0.00  0.00    +0.000 HD
ENDBRANCH  22  24
ENDBRANCH  10  22
BRANCH  12  26
ATOM     26  C   UNL     1       4.846   6.627  17.315  0.00  0.00    +0.000 C 
BRANCH  26  27
ATOM     27  C   UNL     1       5.205   6.088  15.929  0.00  0.00    +0.000 C 
ATOM     28  F   UNL     1       4.843   7.019  14.971  0.00  0.00    +0.000 F 
ENDBRANCH  26  27
ENDBRANCH  12  26
TORSDOF 5
ENDMDL
MODEL 3
REMARK VINA RESULT:      -7.3      0.811      1.644
REMARK  Name = 
REMARK  6 active torsions:
REMARK  status: ('A' for Active; 'I' for Inactive)
REMARK    1  A    between atoms: C_1  and  N_2
REMARK    2  A    between atoms: N_8  and  C_9
REMARK    3  A    between atoms: C_18  and  C_19
REMARK    4  A    between atoms: C_19  and  O_21
REMARK    5  A    between atoms: N_23  and  C_24
REMARK    6  A    between atoms: C_24  and  C_25
REMARK                            x       y       z     vdW  Elec       q    Type
REMARK                         _______ _______ _______ _____ _____    ______ ____
ROOT
ATOM      1  C   UNL     1       2.455   6.308  18.843  0.00  0.00    +0.000 A 
ATOM      2  C   UNL     1       1.666   7.058  19.740  0.00  0.00    +0.000 A 
ATOM      3  C   UNL     1       1.490   8.448  19.633  0.00  0.00    +0.000 A 
ATOM      4  C   UNL     1       2.119   9.114  18.559  0.00  0.00    +0.000 A 
ATOM      5  C   UNL     1       2.913   8.387  17.653  0.00  0.00    +0.000 A 
ATOM      6  C   UNL     1       3.090   7.015  17.791  0.00  0.00    +0.000 A 
ATOM      7  F   UNL     1       3.881   6.406  16.869  0.00  0.00    +0.000 F 
ATOM      8  C   UNL     1       1.934  10.500  18.401  0.00  0.00    +0.000 A 
ATOM      9  O   UNL     1       2.467  11.073  17.468  0.00  0.00    +0.000 OA
ATOM     10  C   UNL     1       1.132  11.210  19.316  0.00  0.00    +0.000 A 
ATOM     11  C   UNL     1       0.551  10.499  20.385  0.00  0.00    +0.000 A 
ATOM     12  N   UNL     1       0.725   9.148  20.549  0.00  0.00    +0.000 N 
ENDROOT
BRANCH   1  20
ATOM     13  C   UNL     1       2.141   3.496  21.746  0.00  0.00    +0.000 C 
ATOM     14  N   UNL     1       2.573   2.584  20.653  0.00  0.00    +0.000 NA
ATOM     15  C   UNL     1       3.866   2.920  20.031  0.00  0.00    +0.000 C 
ATOM     16  C   UNL     1       3.946   1.989  18.825  0.00  0.00    +0.000 C 
ATOM     17  C   UNL     1       2.502   1.806  18.398  0.00  0.00    +0.000 C 
ATOM     18  C   UNL     1       1.711   2.574  19.456  0.00  0.00    +0.000 C 
ATOM     19  C   UNL     1       1.448   4.008  18.989  0.00  0.00    +0.000 C 
ATOM     20  N   UNL     1       2.629   4.889  19.060  0.00  0.00    +0.000 N 
ATOM     21  C   UNL     1       3.905   4.393  19.581  0.00  0.00    +0.000 C 
ENDBRANCH   1  20
BRANCH  10  22
ATOM     22  C   UNL     1       0.902  12.689  19.147  0.00  0.00    +0.000 C 
ATOM     23  O   UNL     1       0.925  13.422  20.122  0.00  0.00    +0.000 OA
BRANCH  22  24
ATOM     24  O   UNL     1       0.683  13.265  17.943  0.00  0.00    +0.000 OA
ATOM     25  H   UNL     1       0.818  14.197  17.739  0.00  0.00    +0.000 HD
ENDBRANCH  22  24
ENDBRANCH  10  22
BRANCH  12  26
ATOM     26  C   UNL     1       0.117   8.424  21.704  0.00  0.00    +0.000 C 
BRANCH  26  27
ATOM     27  C   UNL     1      -0.549   9.276  22.787  0.00  0.00    +0.000 C 
ATOM     28  F   UNL     1       0.307   9.386  23.869  0.00  0.00    +0.000 F 
ENDBRANCH  26  27
ENDBRANCH  12  26
TORSDOF 5
ENDMDL
MODEL 4
REMARK VINA RESULT:      -7.2      2.741      3.955
REMARK  Name = 
REMARK  6 active torsions:
REMARK  status: ('A' for Active; 'I' for Inactive)
REMARK    1  A    between atoms: C_1  and  N_2
REMARK    2  A    between atoms: N_8  and  C_9
REMARK    3  A    between atoms: C_18  and  C_19
REMARK    4  A    between atoms: C_19  and  O_21
REMARK    5  A    between atoms: N_23  and  C_24
REMARK    6  A    between atoms: C_24  and  C_25
REMARK                            x       y       z     vdW  Elec       q    Type
REMARK                         _______ _______ _______ _____ _____    ______ ____
ROOT
ATOM      1  C   UNL     1       2.479   6.620  19.555  0.00  0.00    +0.000 A 
ATOM      2  C   UNL     1       2.272   7.940  19.106  0.00  0.00    +0.000 A 
ATOM      3  C   UNL     1       1.414   8.847  19.750  0.00  0.00    +0.000 A 
ATOM      4  C   UNL     1       0.748   8.412  20.917  0.00  0.00    +0.000 A 
ATOM      5  C   UNL     1       0.938   7.098  21.383  0.00  0.00    +0.000 A 
ATOM      6  C   UNL     1       1.776   6.212  20.716  0.00  0.00    +0.000 A 
ATOM      7  F   UNL     1       1.887   4.964  21.242  0.00  0.00    +0.000 F 
ATOM      8  C   UNL     1      -0.091   9.305  21.608  0.00  0.00    +0.000 A 
ATOM      9  O   UNL     1      -0.656   8.934  22.621  0.00  0.00    +0.000 OA
ATOM     10  C   UNL     1      -0.265  10.619  21.128  0.00  0.00    +0.000 A 
ATOM     11  C   UNL     1       0.401  10.990  19.944  0.00  0.00    +0.000 A 
ATOM     12  N   UNL     1       1.221  10.127  19.262  0.00  0.00    +0.000 N 
ENDROOT
BRANCH   1  20
ATOM     13  C   UNL     1       3.676   2.749  19.404  0.00  0.00    +0.000 C 
ATOM     14  N   UNL     1       4.473   3.233  18.245  0.00  0.00    +0.000 NA
ATOM     15  C   UNL     1       5.413   4.328  18.544  0.00  0.00    +0.000 C 
ATOM     16  C   UNL     1       5.911   4.770  17.170  0.00  0.00    +0.000 C 
ATOM     17  C   UNL     1       4.735   4.512  16.247  0.00  0.00    +0.000 C 
ATOM     18  C   UNL     1       3.696   3.856  17.156  0.00  0.00    +0.000 C 
ATOM     19  C   UNL     1       2.746   4.912  17.728  0.00  0.00    +0.000 C 
ATOM     20  N   UNL     1       3.338   5.735  18.799  0.00  0.00    +0.000 N 
ATOM     21  C   UNL     1       4.706   5.493  19.263  0.00  0.00    +0.000 C 
ENDBRANCH   1  20
BRANCH  10  22
ATOM     22  C   UNL     1      -1.140  11.596  21.871  0.00  0.00    +0.000 C 
ATOM     23  O   UNL     1      -2.051  12.159  21.286  0.00  0.00    +0.000 OA
BRANCH  22  24
ATOM     24  O   UNL     1      -0.976  11.878  23.184  0.00  0.00    +0.000 OA
ATOM     25  H   UNL     1      -1.674  12.167  23.781  0.00  0.00    +0.000 HD
ENDBRANCH  22  24
ENDBRANCH  10  22
BRANCH  12  26
ATOM     26  C   UNL     1       1.897  10.539  17.997  0.00  0.00    +0.000 C 
BRANCH  26  27
ATOM     27  C   UNL     1       2.593  11.902  17.992  0.00  0.00    +0.000 C 
ATOM     28  F   UNL     1       1.646  12.896  17.812  0.00  0.00    +0.000 F 
ENDBRANCH  26  27
ENDBRANCH  12  26
TORSDOF 5
ENDMDL
MODEL 5
REMARK VINA RESULT:      -7.1      1.048      1.214
REMARK  Name = 
REMARK  6 active torsions:
REMARK  status: ('A' for Active; 'I' for Inactive)
REMARK    1  A    between atoms: C_1  and  N_2
REMARK    2  A    between atoms: N_8  and  C_9
REMARK    3  A    between atoms: C_18  and  C_19
REMARK    4  A    between atoms: C_19  and  O_21
REMARK    5  A    between atoms: N_23  and  C_24
REMARK    6  A    between atoms: C_24  and  C_25
REMARK                            x       y       z     vdW  Elec       q    Type
REMARK                         _______ _______ _______ _____ _____    ______ ____
ROOT
ATOM      1  C   UNL     1       2.344   7.044  18.832  0.00  0.00    +0.000 A 
ATOM      2  C   UNL     1       1.539   7.683  19.796  0.00  0.00    +0.000 A 
ATOM      3  C   UNL     1       1.280   9.063  19.790  0.00  0.00    +0.000 A 
ATOM      4  C   UNL     1       1.838   9.837  18.749  0.00  0.00    +0.000 A 
ATOM      5  C   UNL     1       2.646   9.221  17.776  0.00  0.00    +0.000 A 
ATOM      6  C   UNL     1       2.907   7.855  17.815  0.00  0.00    +0.000 A 
ATOM      7  F   UNL     1       3.705   7.358  16.835  0.00  0.00    +0.000 F 
ATOM      8  C   UNL     1       1.569  11.216  18.691  0.00  0.00    +0.000 A 
ATOM      9  O   UNL     1       2.041  11.881  17.787  0.00  0.00    +0.000 OA
ATOM     10  C   UNL     1       0.753  11.814  19.673  0.00  0.00    +0.000 A 
ATOM     11  C   UNL     1       0.246  11.001  20.704  0.00  0.00    +0.000 A 
ATOM     12  N   UNL     1       0.502   9.654  20.771  0.00  0.00    +0.000 N 
ENDROOT
BRANCH   1  20
ATOM     13  C   UNL     1       4.401   4.056  17.019  0.00  0.00    +0.000 C 
ATOM     14  N   UNL     1       3.808   3.236  18.110  0.00  0.00    +0.000 NA
ATOM     15  C   UNL     1       2.335   3.243  18.170  0.00  0.00    +0.000 C 
ATOM     16  C   UNL     1       2.018   2.532  19.482  0.00  0.00    +0.000 C 
ATOM     17  C   UNL     1       3.186   2.878  20.386  0.00  0.00    +0.000 C 
ATOM     18  C   UNL     1       4.120   3.681  19.481  0.00  0.00    +0.000 C 
ATOM     19  C   UNL     1       3.838   5.180  19.621  0.00  0.00    +0.000 C 
ATOM     20  N   UNL     1       2.605   5.625  18.946  0.00  0.00    +0.000 N 
ATOM     21  C   UNL     1       1.782   4.681  18.186  0.00  0.00    +0.000 C 
ENDBRANCH   1  20
BRANCH  10  22
ATOM     22  C   UNL     1       0.434  13.286  19.611  0.00  0.00    +0.000 C 
ATOM     23  O   UNL     1       0.647  13.993  20.582  0.00  0.00    +0.000 OA
BRANCH  22  24
ATOM     24  O   UNL     1      -0.072  13.882  18.507  0.00  0.00    +0.000 OA
ATOM     25  H   UNL     1      -0.447  14.768  18.477  0.00  0.00    +0.000 HD
ENDBRANCH  22  24
ENDBRANCH  10  22
BRANCH  12  26
ATOM     26  C   UNL     1      -0.030   8.819  21.887  0.00  0.00    +0.000 C 
BRANCH  26  27
ATOM     27  C   UNL     1      -0.066   9.457  23.278  0.00  0.00    +0.000 C 
ATOM     28  F   UNL     1      -1.274  10.111  23.447  0.00  0.00    +0.000 F 
ENDBRANCH  26  27
ENDBRANCH  12  26
TORSDOF 5
ENDMDL
MODEL 6
REMARK VINA RESULT:      -7.1      3.665      8.044
REMARK  Name = 
REMARK  6 active torsions:
REMARK  status: ('A' for Active; 'I' for Inactive)
REMARK    1  A    between atoms: C_1  and  N_2
REMARK    2  A    between atoms: N_8  and  C_9
REMARK    3  A    between atoms: C_18  and  C_19
REMARK    4  A    between atoms: C_19  and  O_21
REMARK    5  A    between atoms: N_23  and  C_24
REMARK    6  A    between atoms: C_24  and  C_25
REMARK                            x       y       z     vdW  Elec       q    Type
REMARK                         _______ _______ _______ _____ _____    ______ ____
ROOT
ATOM      1  C   UNL     1       1.276   8.506  19.917  0.00  0.00    +0.000 A 
ATOM      2  C   UNL     1       2.176   7.976  18.970  0.00  0.00    +0.000 A 
ATOM      3  C   UNL     1       2.699   6.675  19.050  0.00  0.00    +0.000 A 
ATOM      4  C   UNL     1       2.279   5.857  20.122  0.00  0.00    +0.000 A 
ATOM      5  C   UNL     1       1.383   6.365  21.080  0.00  0.00    +0.000 A 
ATOM      6  C   UNL     1       0.895   7.664  20.992  0.00  0.00    +0.000 A 
ATOM      7  F   UNL     1       0.041   8.062  21.970  0.00  0.00    +0.000 F 
ATOM      8  C   UNL     1       2.756   4.537  20.212  0.00  0.00    +0.000 A 
ATOM      9  O   UNL     1       2.385   3.828  21.130  0.00  0.00    +0.000 OA
ATOM     10  C   UNL     1       3.649   4.044  19.240  0.00  0.00    +0.000 A 
ATOM     11  C   UNL     1       4.057   4.912  18.208  0.00  0.00    +0.000 A 
ATOM     12  N   UNL     1       3.600   6.202  18.111  0.00  0.00    +0.000 N 
ENDROOT
BRANCH   1  20
ATOM     13  C   UNL     1       2.357  12.035  18.240  0.00  0.00    +0.000 C 
ATOM     14  N   UNL     1       1.090  12.508  18.861  0.00  0.00    +0.000 NA
ATOM     15  C   UNL     1       1.005  12.333  20.322  0.00  0.00    +0.000 C 
ATOM     16  C   UNL     1      -0.446  12.675  20.649  0.00  0.00    +0.000 C 
ATOM     17  C   UNL     1      -1.217  12.249  19.414  0.00  0.00    +0.000 C 
ATOM     18  C   UNL     1      -0.128  11.785  18.447  0.00  0.00    +0.000 C 
ATOM     19  C   UNL     1       0.092  10.274  18.577  0.00  0.00    +0.000 C 
ATOM     20  N   UNL     1       0.830   9.876  19.789  0.00  0.00    +0.000 N 
ATOM     21  C   UNL     1       1.324  10.883  20.732  0.00  0.00    +0.000 C 
ENDBRANCH   1  20
BRANCH  10  22
ATOM     22  C   UNL     1       4.149   2.624  19.308  0.00  0.00    +0.000 C 
ATOM     23  O   UNL     1       3.698   1.787  18.543  0.00  0.00    +0.000 OA
BRANCH  22  24
ATOM     24  O   UNL     1       5.102   2.222  20.178  0.00  0.00    +0.000 OA
ATOM     25  H   UNL     1       5.433   2.740  20.920  0.00  0.00    +0.000 HD
ENDBRANCH  22  24
ENDBRANCH  10  22
BRANCH  12  26
ATOM     26  C   UNL     1       4.065   7.108  17.020  0.00  0.00    +0.000 C 
BRANCH  26  27
ATOM     27  C   UNL     1       5.358   6.722  16.299  0.00  0.00    +0.000 C 
ATOM     28  F   UNL     1       5.048   6.192  15.059  0.00  0.00    +0.000 F 
ENDBRANCH  26  27
ENDBRANCH  12  26
TORSDOF 5
ENDMDL
MODEL 7
REMARK VINA RESULT:      -7.0      3.598      8.067
REMARK  Name = 
REMARK  6 active torsions:
REMARK  status: ('A' for Active; 'I' for Inactive)
REMARK    1  A    between atoms: C_1  and  N_2
REMARK    2  A    between atoms: N_8  and  C_9
REMARK    3  A    between atoms: C_18  and  C_19
REMARK    4  A    between atoms: C_19  and  O_21
REMARK    5  A    between atoms: N_23  and  C_24
REMARK    6  A    between atoms: C_24  and  C_25
REMARK                            x       y       z     vdW  Elec       q    Type
REMARK                         _______ _______ _______ _____ _____    ______ ____
ROOT
ATOM      1  C   UNL     1       1.227   8.698  19.948  0.00  0.00    +0.000 A 
ATOM      2  C   UNL     1       2.147   8.146  19.033  0.00  0.00    +0.000 A 
ATOM      3  C   UNL     1       2.637   6.834  19.131  0.00  0.00    +0.000 A 
ATOM      4  C   UNL     1       2.161   6.027  20.188  0.00  0.00    +0.000 A 
ATOM      5  C   UNL     1       1.244   6.556  21.114  0.00  0.00    +0.000 A 
ATOM      6  C   UNL     1       0.789   7.866  21.009  0.00  0.00    +0.000 A 
ATOM      7  F   UNL     1      -0.089   8.285  21.957  0.00  0.00    +0.000 F 
ATOM      8  C   UNL     1       2.603   4.696  20.295  0.00  0.00    +0.000 A 
ATOM      9  O   UNL     1       2.184   3.996  21.199  0.00  0.00    +0.000 OA
ATOM     10  C   UNL     1       3.518   4.182  19.354  0.00  0.00    +0.000 A 
ATOM     11  C   UNL     1       3.981   5.039  18.337  0.00  0.00    +0.000 A 
ATOM     12  N   UNL     1       3.558   6.340  18.224  0.00  0.00    +0.000 N 
ENDROOT
BRANCH   1  20
ATOM     13  C   UNL     1      -1.021  11.530  21.782  0.00  0.00    +0.000 C 
ATOM     14  N   UNL     1      -0.565  12.369  20.641  0.00  0.00    +0.000 NA
ATOM     15  C   UNL     1      -0.906  11.848  19.305  0.00  0.00    +0.000 C 
ATOM     16  C   UNL     1      -0.137  12.756  18.350  0.00  0.00    +0.000 C 
ATOM     17  C   UNL     1       1.108  13.146  19.126  0.00  0.00    +0.000 C 
ATOM     18  C   UNL     1       0.898  12.502  20.496  0.00  0.00    +0.000 C 
ATOM     19  C   UNL     1       1.556  11.120  20.542  0.00  0.00    +0.000 C 
ATOM     20  N   UNL     1       0.817  10.078  19.805  0.00  0.00    +0.000 N 
ATOM     21  C   UNL     1      -0.453  10.384  19.142  0.00  0.00    +0.000 C 
ENDBRANCH   1  20
BRANCH  10  22
ATOM     22  C   UNL     1       3.982   2.751  19.439  0.00  0.00    +0.000 C 
ATOM     23  O   UNL     1       3.319   1.868  18.920  0.00  0.00    +0.000 OA
BRANCH  22  24
ATOM     24  O   UNL     1       5.127   2.385  20.059  0.00  0.00    +0.000 OA
ATOM     25  H   UNL     1       5.630   1.586  19.872  0.00  0.00    +0.000 HD
ENDBRANCH  22  24
ENDBRANCH  10  22
BRANCH  12  26
ATOM     26  C   UNL     1       4.082   7.234  17.150  0.00  0.00    +0.000 C 
BRANCH  26  27
ATOM     27  C   UNL     1       5.195   6.675  16.261  0.00  0.00    +0.000 C 
ATOM     28  F   UNL     1       4.865   6.884  14.933  0.00  0.00    +0.000 F 
ENDBRANCH  26  27
ENDBRANCH  12  26
TORSDOF 5
ENDMDL
MODEL 8
REMARK VINA RESULT:      -7.0      0.883      1.241
REMARK  Name = 
REMARK  6 active torsions:
REMARK  status: ('A' for Active; 'I' for Inactive)
REMARK    1  A    between atoms: C_1  and  N_2
REMARK    2  A    between atoms: N_8  and  C_9
REMARK    3  A    between atoms: C_18  and  C_19
REMARK    4  A    between atoms: C_19  and  O_21
REMARK    5  A    between atoms: N_23  and  C_24
REMARK    6  A    between atoms: C_24  and  C_25
REMARK                            x       y       z     vdW  Elec       q    Type
REMARK                         _______ _______ _______ _____ _____    ______ ____
ROOT
ATOM      1  C   UNL     1       2.108   6.609  19.100  0.00  0.00    +0.000 A 
ATOM      2  C   UNL     1       1.344   7.479  19.904  0.00  0.00    +0.000 A 
ATOM      3  C   UNL     1       1.279   8.866  19.692  0.00  0.00    +0.000 A 
ATOM      4  C   UNL     1       1.999   9.403  18.603  0.00  0.00    +0.000 A 
ATOM      5  C   UNL     1       2.771   8.555  17.787  0.00  0.00    +0.000 A 
ATOM      6  C   UNL     1       2.837   7.187  18.030  0.00  0.00    +0.000 A 
ATOM      7  F   UNL     1       3.614   6.455  17.190  0.00  0.00    +0.000 F 
ATOM      8  C   UNL     1       1.928  10.783  18.339  0.00  0.00    +0.000 A 
ATOM      9  O   UNL     1       2.540  11.245  17.393  0.00  0.00    +0.000 OA
ATOM     10  C   UNL     1       1.146  11.616  19.165  0.00  0.00    +0.000 A 
ATOM     11  C   UNL     1       0.471  11.031  20.253  0.00  0.00    +0.000 A 
ATOM     12  N   UNL     1       0.534   9.687  20.520  0.00  0.00    +0.000 N 
ENDROOT
BRANCH   1  20
ATOM     13  C   UNL     1       4.714   3.508  19.267  0.00  0.00    +0.000 C 
ATOM     14  N   UNL     1       3.509   2.760  19.716  0.00  0.00    +0.000 NA
ATOM     15  C   UNL     1       2.375   2.774  18.776  0.00  0.00    +0.000 C 
ATOM     16  C   UNL     1       1.231   2.149  19.569  0.00  0.00    +0.000 C 
ATOM     17  C   UNL     1       1.512   2.549  21.006  0.00  0.00    +0.000 C 
ATOM     18  C   UNL     1       2.846   3.290  20.922  0.00  0.00    +0.000 C 
ATOM     19  C   UNL     1       2.610   4.796  20.769  0.00  0.00    +0.000 C 
ATOM     20  N   UNL     1       2.163   5.200  19.423  0.00  0.00    +0.000 N 
ATOM     21  C   UNL     1       2.017   4.212  18.352  0.00  0.00    +0.000 C 
ENDBRANCH   1  20
BRANCH  10  22
ATOM     22  C   UNL     1       1.038  13.092  18.881  0.00  0.00    +0.000 C 
ATOM     23  O   UNL     1      -0.062  13.615  18.808  0.00  0.00    +0.000 OA
BRANCH  22  24
ATOM     24  O   UNL     1       2.118  13.889  18.715  0.00  0.00    +0.000 OA
ATOM     25  H   UNL     1       2.709  14.177  19.418  0.00  0.00    +0.000 HD
ENDBRANCH  22  24
ENDBRANCH  10  22
BRANCH  12  26
ATOM     26  C   UNL     1      -0.173   9.096  21.695  0.00  0.00    +0.000 C 
BRANCH  26  27
ATOM     27  C   UNL     1      -0.360   9.995  22.919  0.00  0.00    +0.000 C 
ATOM     28  F   UNL     1       0.087   9.328  24.046  0.00  0.00    +0.000 F 
ENDBRANCH  26  27
ENDBRANCH  12  26
TORSDOF 5
ENDMDL
MODEL 9
REMARK VINA RESULT:      -6.9      0.991      1.677
REMARK  Name = 
REMARK  6 active torsions:
REMARK  status: ('A' for Active; 'I' for Inactive)
REMARK    1  A    between atoms: C_1  and  N_2
REMARK    2  A    between atoms: N_8  and  C_9
REMARK    3  A    between atoms: C_18  and  C_19
REMARK    4  A    between atoms: C_19  and  O_21
REMARK    5  A    between atoms: N_23  and  C_24
REMARK    6  A    between atoms: C_24  and  C_25
REMARK                            x       y       z     vdW  Elec       q    Type
REMARK                         _______ _______ _______ _____ _____    ______ ____
ROOT
ATOM      1  C   UNL     1       2.351   7.135  18.745  0.00  0.00    +0.000 A 
ATOM      2  C   UNL     1       1.548   7.752  19.727  0.00  0.00    +0.000 A 
ATOM      3  C   UNL     1       1.289   9.132  19.753  0.00  0.00    +0.000 A 
ATOM      4  C   UNL     1       1.844   9.929  18.729  0.00  0.00    +0.000 A 
ATOM      5  C   UNL     1       2.650   9.337  17.740  0.00  0.00    +0.000 A 
ATOM      6  C   UNL     1       2.911   7.971  17.746  0.00  0.00    +0.000 A 
ATOM      7  F   UNL     1       3.706   7.497  16.752  0.00  0.00    +0.000 F 
ATOM      8  C   UNL     1       1.575  11.310  18.705  0.00  0.00    +0.000 A 
ATOM      9  O   UNL     1       2.044  11.996  17.815  0.00  0.00    +0.000 OA
ATOM     10  C   UNL     1       0.762  11.885  19.702  0.00  0.00    +0.000 A 
ATOM     11  C   UNL     1       0.257  11.047  20.715  0.00  0.00    +0.000 A 
ATOM     12  N   UNL     1       0.514   9.700  20.750  0.00  0.00    +0.000 N 
ENDROOT
BRANCH   1  20
ATOM     13  C   UNL     1       0.829   3.729  20.332  0.00  0.00    +0.000 C 
ATOM     14  N   UNL     1       2.008   3.111  19.668  0.00  0.00    +0.000 NA
ATOM     15  C   UNL     1       3.316   3.648  20.085  0.00  0.00    +0.000 C 
ATOM     16  C   UNL     1       4.301   3.018  19.105  0.00  0.00    +0.000 C 
ATOM     17  C   UNL     1       3.503   2.857  17.825  0.00  0.00    +0.000 C 
ATOM     18  C   UNL     1       2.099   3.323  18.211  0.00  0.00    +0.000 C 
ATOM     19  C   UNL     1       1.923   4.810  17.887  0.00  0.00    +0.000 C 
ATOM     20  N   UNL     1       2.613   5.715  18.825  0.00  0.00    +0.000 N 
ATOM     21  C   UNL     1       3.351   5.185  19.974  0.00  0.00    +0.000 C 
ENDBRANCH   1  20
BRANCH  10  22
ATOM     22  C   UNL     1       0.443  13.357  19.675  0.00  0.00    +0.000 C 
ATOM     23  O   UNL     1       0.742  14.059  20.627  0.00  0.00    +0.000 OA
BRANCH  22  24
ATOM     24  O   UNL     1      -0.157  13.960  18.623  0.00  0.00    +0.000 OA
ATOM     25  H   UNL     1      -0.439  13.517  17.816  0.00  0.00    +0.000 HD
ENDBRANCH  22  24
ENDBRANCH  10  22
BRANCH  12  26
ATOM     26  C   UNL     1      -0.015   8.838  21.848  0.00  0.00    +0.000 C 
BRANCH  26  27
ATOM     27  C   UNL     1      -0.075   9.454  23.248  0.00  0.00    +0.000 C 
ATOM     28  F   UNL     1      -1.306  10.060  23.426  0.00  0.00    +0.000 F 
ENDBRANCH  26  27
ENDBRANCH  12  26
TORSDOF 5
ENDMDL
