MODEL 1
REMARK VINA RESULT:      -8.6      0.000      0.000
REMARK  Name = 
REMARK  6 active torsions:
REMARK  status: ('A' for Active; 'I' for Inactive)
REMARK    1  A    between atoms: C_1  and  C_2
REMARK    2  A    between atoms: C_8  and  C_9
REMARK    3  A    between atoms: C_11  and  C_12
REMARK    4  A    between atoms: N_14  and  C_15
REMARK    5  A    between atoms: C_15  and  C_16
REMARK    6  A    between atoms: C_19  and  C_20
REMARK                            x       y       z     vdW  Elec       q    Type
REMARK                         _______ _______ _______ _____ _____    ______ ____
ROOT
ATOM      1  C   UNL     1       7.827   7.686  18.046  0.00  0.00    +0.000 C 
ATOM      2  O   UNL     1       8.231   6.683  18.624  0.00  0.00    +0.000 OA
ATOM      3  N   UNL     1       6.813   7.662  17.122  0.00  0.00    +0.000 N 
ATOM      4  H   UNL     1       6.551   8.510  16.647  0.00  0.00    +0.000 HD
ENDROOT
BRANCH   1   7
ATOM      5  C   UNL     1       9.074  11.119  18.425  0.00  0.00    +0.000 A 
ATOM      6  C   UNL     1       8.366  10.184  17.616  0.00  0.00    +0.000 A 
ATOM      7  C   UNL     1       8.379   8.988  18.304  0.00  0.00    +0.000 A 
ATOM      8  N   UNL     1       9.093   9.251  19.437  0.00  0.00    +0.000 N 
ATOM      9  N   UNL     1       9.502  10.523  19.545  0.00  0.00    +0.000 NA
ATOM     10  H   UNL     1       9.320   8.597  20.181  0.00  0.00    +0.000 HD
BRANCH   5  18
ATOM     11  C   UNL     1      11.778  12.184  17.551  0.00  0.00    +0.000 C 
ATOM     12  C   UNL     1      10.564  13.056  17.739  0.00  0.00    +0.000 A 
ATOM     13  C   UNL     1      10.699  14.437  17.500  0.00  0.00    +0.000 A 
ATOM     14  C   UNL     1       9.613  15.291  17.652  0.00  0.00    +0.000 A 
ATOM     15  F   UNL     1       9.766  16.601  17.417  0.00  0.00    +0.000 F 
ATOM     16  C   UNL     1       8.377  14.805  18.041  0.00  0.00    +0.000 A 
ATOM     17  C   UNL     1       8.225  13.440  18.286  0.00  0.00    +0.000 A 
ATOM     18  C   UNL     1       9.306  12.545  18.143  0.00  0.00    +0.000 A 
ENDBRANCH   5  18
ENDBRANCH   1   7
BRANCH   3  19
ATOM     19  C   UNL     1       6.150   6.443  16.727  0.00  0.00    +0.000 C 
BRANCH  19  20
ATOM     20  C   UNL     1       5.036   6.120  17.687  0.00  0.00    +0.000 A 
ATOM     21  C   UNL     1       3.856   6.875  17.668  0.00  0.00    +0.000 A 
ATOM     22  C   UNL     1       2.826   6.604  18.572  0.00  0.00    +0.000 A 
ATOM     23  C   UNL     1       2.960   5.580  19.520  0.00  0.00    +0.000 A 
ATOM     24  C   UNL     1       4.148   4.832  19.545  0.00  0.00    +0.000 A 
ATOM     25  C   UNL     1       5.177   5.102  18.640  0.00  0.00    +0.000 A 
BRANCH  23  26
ATOM     26  C   UNL     1       1.853   5.281  20.500  0.00  0.00    +0.000 C 
ATOM     27  F   UNL     1       0.879   4.473  19.995  0.00  0.00    +0.000 F 
ATOM     28  F   UNL     1       2.306   4.660  21.624  0.00  0.00    +0.000 F 
ATOM     29  F   UNL     1       1.216   6.407  20.927  0.00  0.00    +0.000 F 
ENDBRANCH  23  26
ENDBRANCH  19  20
ENDBRANCH   3  19
TORSDOF 5
ENDMDL
MODEL 2
REMARK VINA RESULT:      -8.5      0.332      1.222
REMARK  Name = 
REMARK  6 active torsions:
REMARK  status: ('A' for Active; 'I' for Inactive)
REMARK    1  A    between atoms: C_1  and  C_2
REMARK    2  A    between atoms: C_8  and  C_9
REMARK    3  A    between atoms: C_11  and  C_12
REMARK    4  A    between atoms: N_14  and  C_15
REMARK    5  A    between atoms: C_15  and  C_16
REMARK    6  A    between atoms: C_19  and  C_20
REMARK                            x       y       z     vdW  Elec       q    Type
REMARK                         _______ _______ _______ _____ _____    ______ ____
ROOT
ATOM      1  C   UNL     1       7.998   7.992  18.083  0.00  0.00    +0.000 C 
ATOM      2  O   UNL     1       8.414   7.009  18.688  0.00  0.00    +0.000 OA
ATOM      3  N   UNL     1       7.003   7.927  17.141  0.00  0.00    +0.000 N 
ATOM      4  H   UNL     1       6.731   8.760  16.645  0.00  0.00    +0.000 HD
ENDROOT
BRANCH   1   7
ATOM      5  C   UNL     1       9.145  11.463  18.428  0.00  0.00    +0.000 A 
ATOM      6  C   UNL     1       8.439  10.507  17.641  0.00  0.00    +0.000 A 
ATOM      7  C   UNL     1       8.517   9.310  18.324  0.00  0.00    +0.000 A 
ATOM      8  N   UNL     1       9.263   9.595  19.432  0.00  0.00    +0.000 N 
ATOM      9  N   UNL     1       9.633  10.879  19.530  0.00  0.00    +0.000 NA
ATOM     10  H   UNL     1       9.538   8.947  20.165  0.00  0.00    +0.000 HD
BRANCH   5  18
ATOM     11  C   UNL     1      11.737  12.598  17.328  0.00  0.00    +0.000 C 
ATOM     12  C   UNL     1      10.525  13.440  17.633  0.00  0.00    +0.000 A 
ATOM     13  C   UNL     1      10.609  14.826  17.398  0.00  0.00    +0.000 A 
ATOM     14  C   UNL     1       9.523  15.653  17.656  0.00  0.00    +0.000 A 
ATOM     15  F   UNL     1       9.625  16.968  17.424  0.00  0.00    +0.000 F 
ATOM     16  C   UNL     1       8.337  15.136  18.149  0.00  0.00    +0.000 A 
ATOM     17  C   UNL     1       8.237  13.766  18.391  0.00  0.00    +0.000 A 
ATOM     18  C   UNL     1       9.320  12.897  18.142  0.00  0.00    +0.000 A 
ENDBRANCH   5  18
ENDBRANCH   1   7
BRANCH   3  19
ATOM     19  C   UNL     1       6.375   6.686  16.758  0.00  0.00    +0.000 C 
BRANCH  19  20
ATOM     20  C   UNL     1       5.246   6.360  17.699  0.00  0.00    +0.000 A 
ATOM     21  C   UNL     1       5.418   5.380  18.686  0.00  0.00    +0.000 A 
ATOM     22  C   UNL     1       4.370   5.047  19.547  0.00  0.00    +0.000 A 
ATOM     23  C   UNL     1       3.124   5.682  19.433  0.00  0.00    +0.000 A 
ATOM     24  C   UNL     1       2.950   6.656  18.437  0.00  0.00    +0.000 A 
ATOM     25  C   UNL     1       3.999   6.989  17.576  0.00  0.00    +0.000 A 
BRANCH  23  26
ATOM     26  C   UNL     1       1.986   5.330  20.358  0.00  0.00    +0.000 C 
ATOM     27  F   UNL     1       1.284   6.412  20.796  0.00  0.00    +0.000 F 
ATOM     28  F   UNL     1       1.074   4.506  19.773  0.00  0.00    +0.000 F 
ATOM     29  F   UNL     1       2.409   4.682  21.480  0.00  0.00    +0.000 F 
ENDBRANCH  23  26
ENDBRANCH  19  20
ENDBRANCH   3  19
TORSDOF 5
ENDMDL
MODEL 3
REMARK VINA RESULT:      -8.5      0.760      1.160
REMARK  Name = 
REMARK  6 active torsions:
REMARK  status: ('A' for Active; 'I' for Inactive)
REMARK    1  A    between atoms: C_1  and  C_2
REMARK    2  A    between atoms: C_8  and  C_9
REMARK    3  A    between atoms: C_11  and  C_12
REMARK    4  A    between atoms: N_14  and  C_15
REMARK    5  A    between atoms: C_15  and  C_16
REMARK    6  A    between atoms: C_19  and  C_20
REMARK                            x       y       z     vdW  Elec       q    Type
REMARK                         _______ _______ _______ _____ _____    ______ ____
ROOT
ATOM      1  C   UNL     1       7.464   7.247  17.565  0.00  0.00    +0.000 C 
ATOM      2  O   UNL     1       7.943   6.151  17.836  0.00  0.00    +0.000 OA
ATOM      3  N   UNL     1       6.283   7.401  16.885  0.00  0.00    +0.000 N 
ATOM      4  H   UNL     1       5.958   8.326  16.653  0.00  0.00    +0.000 HD
ENDROOT
BRANCH   1   7
ATOM      5  C   UNL     1       8.942  10.528  18.295  0.00  0.00    +0.000 A 
ATOM      6  C   UNL     1       8.187   9.729  17.388  0.00  0.00    +0.000 A 
ATOM      7  C   UNL     1       8.101   8.474  17.956  0.00  0.00    +0.000 A 
ATOM      8  N   UNL     1       8.809   8.575  19.119  0.00  0.00    +0.000 N 
ATOM      9  N   UNL     1       9.304   9.797  19.357  0.00  0.00    +0.000 NA
ATOM     10  H   UNL     1       8.974   7.837  19.798  0.00  0.00    +0.000 HD
BRANCH   5  18
ATOM     11  C   UNL     1      11.810  11.519  18.215  0.00  0.00    +0.000 C 
ATOM     12  C   UNL     1      10.614  12.430  18.123  0.00  0.00    +0.000 A 
ATOM     13  C   UNL     1      10.846  13.814  17.998  0.00  0.00    +0.000 A 
ATOM     14  C   UNL     1       9.783  14.704  17.904  0.00  0.00    +0.000 A 
ATOM     15  F   UNL     1      10.028  16.015  17.785  0.00  0.00    +0.000 F 
ATOM     16  C   UNL     1       8.474  14.252  17.930  0.00  0.00    +0.000 A 
ATOM     17  C   UNL     1       8.225  12.885  18.056  0.00  0.00    +0.000 A 
ATOM     18  C   UNL     1       9.280  11.954  18.157  0.00  0.00    +0.000 A 
ENDBRANCH   5  18
ENDBRANCH   1   7
BRANCH   3  19
ATOM     19  C   UNL     1       5.512   6.282  16.401  0.00  0.00    +0.000 C 
BRANCH  19  20
ATOM     20  C   UNL     1       4.512   5.849  17.440  0.00  0.00    +0.000 A 
ATOM     21  C   UNL     1       4.494   4.520  17.882  0.00  0.00    +0.000 A 
ATOM     22  C   UNL     1       3.553   4.098  18.824  0.00  0.00    +0.000 A 
ATOM     23  C   UNL     1       2.604   4.995  19.336  0.00  0.00    +0.000 A 
ATOM     24  C   UNL     1       2.616   6.324  18.884  0.00  0.00    +0.000 A 
ATOM     25  C   UNL     1       3.558   6.746  17.942  0.00  0.00    +0.000 A 
BRANCH  23  26
ATOM     26  C   UNL     1       1.584   4.548  20.354  0.00  0.00    +0.000 C 
ATOM     27  F   UNL     1       0.716   3.611  19.882  0.00  0.00    +0.000 F 
ATOM     28  F   UNL     1       2.158   4.001  21.461  0.00  0.00    +0.000 F 
ATOM     29  F   UNL     1       0.812   5.577  20.804  0.00  0.00    +0.000 F 
ENDBRANCH  23  26
ENDBRANCH  19  20
ENDBRANCH   3  19
TORSDOF 5
ENDMDL
MODEL 4
REMARK VINA RESULT:      -8.5      1.995      2.588
REMARK  Name = 
REMARK  6 active torsions:
REMARK  status: ('A' for Active; 'I' for Inactive)
REMARK    1  A    between atoms: C_1  and  C_2
REMARK    2  A    between atoms: C_8  and  C_9
REMARK    3  A    between atoms: C_11  and  C_12
REMARK    4  A    between atoms: N_14  and  C_15
REMARK    5  A    between atoms: C_15  and  C_16
REMARK    6  A    between atoms: C_19  and  C_20
REMARK                            x       y       z     vdW  Elec       q    Type
REMARK                         _______ _______ _______ _____ _____    ______ ____
ROOT
ATOM      1  C   UNL     1       7.477   6.202  18.220  0.00  0.00    +0.000 C 
ATOM      2  O   UNL     1       7.906   5.393  19.035  0.00  0.00    +0.000 OA
ATOM      3  N   UNL     1       6.561   5.876  17.252  0.00  0.00    +0.000 N 
ATOM      4  H   UNL     1       6.275   6.571  16.581  0.00  0.00    +0.000 HD
ENDROOT
BRANCH   1   7
ATOM      5  C   UNL     1       8.796   9.622  18.423  0.00  0.00    +0.000 A 
ATOM      6  C   UNL     1       8.875   8.278  18.888  0.00  0.00    +0.000 A 
ATOM      7  C   UNL     1       7.892   7.577  18.220  0.00  0.00    +0.000 A 
ATOM      8  N   UNL     1       7.277   8.511  17.437  0.00  0.00    +0.000 N 
ATOM      9  N   UNL     1       7.812   9.737  17.522  0.00  0.00    +0.000 NA
ATOM     10  H   UNL     1       6.492   8.360  16.810  0.00  0.00    +0.000 HD
BRANCH   5  18
ATOM     11  C   UNL     1       8.883  10.703  21.257  0.00  0.00    +0.000 C 
ATOM     12  C   UNL     1       9.704  11.269  20.128  0.00  0.00    +0.000 A 
ATOM     13  C   UNL     1      10.550  12.359  20.408  0.00  0.00    +0.000 A 
ATOM     14  C   UNL     1      11.335  12.920  19.408  0.00  0.00    +0.000 A 
ATOM     15  F   UNL     1      12.133  13.956  19.699  0.00  0.00    +0.000 F 
ATOM     16  C   UNL     1      11.304  12.422  18.117  0.00  0.00    +0.000 A 
ATOM     17  C   UNL     1      10.469  11.345  17.820  0.00  0.00    +0.000 A 
ATOM     18  C   UNL     1       9.657  10.752  18.810  0.00  0.00    +0.000 A 
ENDBRANCH   5  18
ENDBRANCH   1   7
BRANCH   3  19
ATOM     19  C   UNL     1       6.042   4.539  17.090  0.00  0.00    +0.000 C 
BRANCH  19  20
ATOM     20  C   UNL     1       4.807   4.354  17.931  0.00  0.00    +0.000 A 
ATOM     21  C   UNL     1       3.621   5.018  17.588  0.00  0.00    +0.000 A 
ATOM     22  C   UNL     1       2.476   4.878  18.375  0.00  0.00    +0.000 A 
ATOM     23  C   UNL     1       2.496   4.079  19.527  0.00  0.00    +0.000 A 
ATOM     24  C   UNL     1       3.687   3.424  19.876  0.00  0.00    +0.000 A 
ATOM     25  C   UNL     1       4.832   3.563  19.088  0.00  0.00    +0.000 A 
BRANCH  23  26
ATOM     26  C   UNL     1       1.264   3.922  20.384  0.00  0.00    +0.000 C 
ATOM     27  F   UNL     1       1.505   3.319  21.582  0.00  0.00    +0.000 F 
ATOM     28  F   UNL     1       0.678   5.115  20.678  0.00  0.00    +0.000 F 
ATOM     29  F   UNL     1       0.301   3.172  19.778  0.00  0.00    +0.000 F 
ENDBRANCH  23  26
ENDBRANCH  19  20
ENDBRANCH   3  19
TORSDOF 5
ENDMDL
MODEL 5
REMARK VINA RESULT:      -8.4      1.999      2.742
REMARK  Name = 
REMARK  6 active torsions:
REMARK  status: ('A' for Active; 'I' for Inactive)
REMARK    1  A    between atoms: C_1  and  C_2
REMARK    2  A    between atoms: C_8  and  C_9
REMARK    3  A    between atoms: C_11  and  C_12
REMARK    4  A    between atoms: N_14  and  C_15
REMARK    5  A    between atoms: C_15  and  C_16
REMARK    6  A    between atoms: C_19  and  C_20
REMARK                            x       y       z     vdW  Elec       q    Type
REMARK                         _______ _______ _______ _____ _____    ______ ____
ROOT
ATOM      1  C   UNL     1       7.468   6.256  18.259  0.00  0.00    +0.000 C 
ATOM      2  O   UNL     1       7.862   5.454  19.100  0.00  0.00    +0.000 OA
ATOM      3  N   UNL     1       6.575   5.928  17.272  0.00  0.00    +0.000 N 
ATOM      4  H   UNL     1       6.319   6.616  16.582  0.00  0.00    +0.000 HD
ENDROOT
BRANCH   1   7
ATOM      5  C   UNL     1       8.836   9.659  18.444  0.00  0.00    +0.000 A 
ATOM      6  C   UNL     1       8.878   8.322  18.936  0.00  0.00    +0.000 A 
ATOM      7  C   UNL     1       7.906   7.625  18.249  0.00  0.00    +0.000 A 
ATOM      8  N   UNL     1       7.332   8.554  17.429  0.00  0.00    +0.000 N 
ATOM      9  N   UNL     1       7.884   9.773  17.510  0.00  0.00    +0.000 NA
ATOM     10  H   UNL     1       6.565   8.403  16.780  0.00  0.00    +0.000 HD
BRANCH   5  18
ATOM     11  C   UNL     1       8.920  10.726  21.284  0.00  0.00    +0.000 C 
ATOM     12  C   UNL     1       9.748  11.292  20.160  0.00  0.00    +0.000 A 
ATOM     13  C   UNL     1      10.599  12.377  20.447  0.00  0.00    +0.000 A 
ATOM     14  C   UNL     1      11.390  12.938  19.453  0.00  0.00    +0.000 A 
ATOM     15  F   UNL     1      12.192  13.968  19.750  0.00  0.00    +0.000 F 
ATOM     16  C   UNL     1      11.360  12.447  18.159  0.00  0.00    +0.000 A 
ATOM     17  C   UNL     1      10.520  11.375  17.854  0.00  0.00    +0.000 A 
ATOM     18  C   UNL     1       9.702  10.782  18.839  0.00  0.00    +0.000 A 
ENDBRANCH   5  18
ENDBRANCH   1   7
BRANCH   3  19
ATOM     19  C   UNL     1       6.039   4.598  17.118  0.00  0.00    +0.000 C 
BRANCH  19  20
ATOM     20  C   UNL     1       4.804   4.432  17.962  0.00  0.00    +0.000 A 
ATOM     21  C   UNL     1       4.825   3.576  19.071  0.00  0.00    +0.000 A 
ATOM     22  C   UNL     1       3.678   3.390  19.847  0.00  0.00    +0.000 A 
ATOM     23  C   UNL     1       2.483   4.049  19.522  0.00  0.00    +0.000 A 
ATOM     24  C   UNL     1       2.461   4.897  18.404  0.00  0.00    +0.000 A 
ATOM     25  C   UNL     1       3.608   5.084  17.629  0.00  0.00    +0.000 A 
BRANCH  23  26
ATOM     26  C   UNL     1       1.239   3.855  20.353  0.00  0.00    +0.000 C 
ATOM     27  F   UNL     1       0.532   5.002  20.554  0.00  0.00    +0.000 F 
ATOM     28  F   UNL     1       0.368   2.975  19.789  0.00  0.00    +0.000 F 
ATOM     29  F   UNL     1       1.514   3.365  21.594  0.00  0.00    +0.000 F 
ENDBRANCH  23  26
ENDBRANCH  19  20
ENDBRANCH   3  19
TORSDOF 5
ENDMDL
MODEL 6
REMARK VINA RESULT:      -8.4      6.879      9.104
REMARK  Name = 
REMARK  6 active torsions:
REMARK  status: ('A' for Active; 'I' for Inactive)
REMARK    1  A    between atoms: C_1  and  C_2
REMARK    2  A    between atoms: C_8  and  C_9
REMARK    3  A    between atoms: C_11  and  C_12
REMARK    4  A    between atoms: N_14  and  C_15
REMARK    5  A    between atoms: C_15  and  C_16
REMARK    6  A    between atoms: C_19  and  C_20
REMARK                            x       y       z     vdW  Elec       q    Type
REMARK                         _______ _______ _______ _____ _____    ______ ____
ROOT
ATOM      1  C   UNL     1       1.371   8.601  20.297  0.00  0.00    +0.000 C 
ATOM      2  O   UNL     1       0.966   8.485  21.449  0.00  0.00    +0.000 OA
ATOM      3  N   UNL     1       1.121   9.705  19.523  0.00  0.00    +0.000 N 
ATOM      4  H   UNL     1       1.442   9.729  18.569  0.00  0.00    +0.000 HD
ENDROOT
BRANCH   1   7
ATOM      5  C   UNL     1       3.398   6.201  18.397  0.00  0.00    +0.000 A 
ATOM      6  C   UNL     1       2.646   7.411  18.381  0.00  0.00    +0.000 A 
ATOM      7  C   UNL     1       2.162   7.584  19.662  0.00  0.00    +0.000 A 
ATOM      8  N   UNL     1       2.610   6.492  20.348  0.00  0.00    +0.000 N 
ATOM      9  N   UNL     1       3.369   5.660  19.622  0.00  0.00    +0.000 NA
ATOM     10  H   UNL     1       2.436   6.273  21.325  0.00  0.00    +0.000 HD
BRANCH   5  18
ATOM     11  C   UNL     1       3.345   3.221  17.824  0.00  0.00    +0.000 C 
ATOM     12  C   UNL     1       4.130   4.210  17.002  0.00  0.00    +0.000 A 
ATOM     13  C   UNL     1       4.880   3.719  15.917  0.00  0.00    +0.000 A 
ATOM     14  C   UNL     1       5.620   4.584  15.120  0.00  0.00    +0.000 A 
ATOM     15  F   UNL     1       6.325   4.094  14.091  0.00  0.00    +0.000 F 
ATOM     16  C   UNL     1       5.638   5.944  15.374  0.00  0.00    +0.000 A 
ATOM     17  C   UNL     1       4.903   6.449  16.447  0.00  0.00    +0.000 A 
ATOM     18  C   UNL     1       4.143   5.599  17.278  0.00  0.00    +0.000 A 
ENDBRANCH   5  18
ENDBRANCH   1   7
BRANCH   3  19
ATOM     19  C   UNL     1       0.331  10.819  19.989  0.00  0.00    +0.000 C 
BRANCH  19  20
ATOM     20  C   UNL     1      -0.953  10.911  19.208  0.00  0.00    +0.000 A 
ATOM     21  C   UNL     1      -1.126  10.138  18.052  0.00  0.00    +0.000 A 
ATOM     22  C   UNL     1      -2.301  10.234  17.303  0.00  0.00    +0.000 A 
ATOM     23  C   UNL     1      -3.323  11.113  17.689  0.00  0.00    +0.000 A 
ATOM     24  C   UNL     1      -3.144  11.895  18.841  0.00  0.00    +0.000 A 
ATOM     25  C   UNL     1      -1.969  11.798  19.591  0.00  0.00    +0.000 A 
BRANCH  23  26
ATOM     26  C   UNL     1      -4.595  11.224  16.886  0.00  0.00    +0.000 C 
ATOM     27  F   UNL     1      -4.509  10.664  15.647  0.00  0.00    +0.000 F 
ATOM     28  F   UNL     1      -5.651  10.618  17.496  0.00  0.00    +0.000 F 
ATOM     29  F   UNL     1      -4.973  12.517  16.684  0.00  0.00    +0.000 F 
ENDBRANCH  23  26
ENDBRANCH  19  20
ENDBRANCH   3  19
TORSDOF 5
ENDMDL
MODEL 7
REMARK VINA RESULT:      -8.3      6.857      9.127
REMARK  Name = 
REMARK  6 active torsions:
REMARK  status: ('A' for Active; 'I' for Inactive)
REMARK    1  A    between atoms: C_1  and  C_2
REMARK    2  A    between atoms: C_8  and  C_9
REMARK    3  A    between atoms: C_11  and  C_12
REMARK    4  A    between atoms: N_14  and  C_15
REMARK    5  A    between atoms: C_15  and  C_16
REMARK    6  A    between atoms: C_19  and  C_20
REMARK                            x       y       z     vdW  Elec       q    Type
REMARK                         _______ _______ _______ _____ _____    ______ ____
ROOT
ATOM      1  C   UNL     1       1.352   8.581  20.464  0.00  0.00    +0.000 C 
ATOM      2  O   UNL     1       1.070   8.509  21.655  0.00  0.00    +0.000 OA
ATOM      3  N   UNL     1       0.968   9.627  19.664  0.00  0.00    +0.000 N 
ATOM      4  H   UNL     1       1.191   9.613  18.682  0.00  0.00    +0.000 HD
ENDROOT
BRANCH   1   7
ATOM      5  C   UNL     1       3.356   6.206  18.508  0.00  0.00    +0.000 A 
ATOM      6  C   UNL     1       2.636   7.435  18.526  0.00  0.00    +0.000 A 
ATOM      7  C   UNL     1       2.130   7.570  19.803  0.00  0.00    +0.000 A 
ATOM      8  N   UNL     1       2.536   6.440  20.453  0.00  0.00    +0.000 N 
ATOM      9  N   UNL     1       3.289   5.618  19.709  0.00  0.00    +0.000 NA
ATOM     10  H   UNL     1       2.337   6.186  21.417  0.00  0.00    +0.000 HD
BRANCH   5  18
ATOM     11  C   UNL     1       3.370   3.230  17.912  0.00  0.00    +0.000 C 
ATOM     12  C   UNL     1       4.127   4.244  17.094  0.00  0.00    +0.000 A 
ATOM     13  C   UNL     1       4.882   3.779  16.001  0.00  0.00    +0.000 A 
ATOM     14  C   UNL     1       5.597   4.666  15.206  0.00  0.00    +0.000 A 
ATOM     15  F   UNL     1       6.308   4.201  14.171  0.00  0.00    +0.000 F 
ATOM     16  C   UNL     1       5.584   6.025  15.470  0.00  0.00    +0.000 A 
ATOM     17  C   UNL     1       4.845   6.504  16.552  0.00  0.00    +0.000 A 
ATOM     18  C   UNL     1       4.109   5.631  17.380  0.00  0.00    +0.000 A 
ENDBRANCH   5  18
ENDBRANCH   1   7
BRANCH   3  19
ATOM     19  C   UNL     1       0.169  10.726  20.151  0.00  0.00    +0.000 C 
BRANCH  19  20
ATOM     20  C   UNL     1      -1.073  10.879  19.314  0.00  0.00    +0.000 A 
ATOM     21  C   UNL     1      -2.019  11.860  19.640  0.00  0.00    +0.000 A 
ATOM     22  C   UNL     1      -3.190  11.994  18.889  0.00  0.00    +0.000 A 
ATOM     23  C   UNL     1      -3.442  11.144  17.803  0.00  0.00    +0.000 A 
ATOM     24  C   UNL     1      -2.498  10.154  17.485  0.00  0.00    +0.000 A 
ATOM     25  C   UNL     1      -1.327  10.021  18.235  0.00  0.00    +0.000 A 
BRANCH  23  26
ATOM     26  C   UNL     1      -4.703  11.281  16.987  0.00  0.00    +0.000 C 
ATOM     27  F   UNL     1      -5.097  12.572  16.804  0.00  0.00    +0.000 F 
ATOM     28  F   UNL     1      -4.577  10.750  15.740  0.00  0.00    +0.000 F 
ATOM     29  F   UNL     1      -5.764  10.646  17.557  0.00  0.00    +0.000 F 
ENDBRANCH  23  26
ENDBRANCH  19  20
ENDBRANCH   3  19
TORSDOF 5
ENDMDL
MODEL 8
REMARK VINA RESULT:      -8.3      0.610      1.658
REMARK  Name = 
REMARK  6 active torsions:
REMARK  status: ('A' for Active; 'I' for Inactive)
REMARK    1  A    between atoms: C_1  and  C_2
REMARK    2  A    between atoms: C_8  and  C_9
REMARK    3  A    between atoms: C_11  and  C_12
REMARK    4  A    between atoms: N_14  and  C_15
REMARK    5  A    between atoms: C_15  and  C_16
REMARK    6  A    between atoms: C_19  and  C_20
REMARK                            x       y       z     vdW  Elec       q    Type
REMARK                         _______ _______ _______ _____ _____    ______ ____
ROOT
ATOM      1  C   UNL     1       7.971   7.866  18.118  0.00  0.00    +0.000 C 
ATOM      2  O   UNL     1       8.286   6.857  18.740  0.00  0.00    +0.000 OA
ATOM      3  N   UNL     1       7.006   7.874  17.143  0.00  0.00    +0.000 N 
ATOM      4  H   UNL     1       6.818   8.722  16.634  0.00  0.00    +0.000 HD
ENDROOT
BRANCH   1   7
ATOM      5  C   UNL     1       9.453  11.209  18.447  0.00  0.00    +0.000 A 
ATOM      6  C   UNL     1       8.843  10.248  17.589  0.00  0.00    +0.000 A 
ATOM      7  C   UNL     1       8.586   9.140  18.370  0.00  0.00    +0.000 A 
ATOM      8  N   UNL     1       9.063   9.472  19.606  0.00  0.00    +0.000 N 
ATOM      9  N   UNL     1       9.567  10.712  19.685  0.00  0.00    +0.000 NA
ATOM     10  H   UNL     1       9.057   8.890  20.438  0.00  0.00    +0.000 HD
BRANCH   5  18
ATOM     11  C   UNL     1       8.112  13.685  19.579  0.00  0.00    +0.000 C 
ATOM     12  C   UNL     1       9.265  13.735  18.611  0.00  0.00    +0.000 A 
ATOM     13  C   UNL     1       9.737  15.000  18.211  0.00  0.00    +0.000 A 
ATOM     14  C   UNL     1      10.801  15.110  17.324  0.00  0.00    +0.000 A 
ATOM     15  F   UNL     1      11.234  16.324  16.959  0.00  0.00    +0.000 F 
ATOM     16  C   UNL     1      11.420  13.982  16.815  0.00  0.00    +0.000 A 
ATOM     17  C   UNL     1      10.964  12.720  17.197  0.00  0.00    +0.000 A 
ATOM     18  C   UNL     1       9.885  12.572  18.093  0.00  0.00    +0.000 A 
ENDBRANCH   5  18
ENDBRANCH   1   7
BRANCH   3  19
ATOM     19  C   UNL     1       6.293   6.685  16.744  0.00  0.00    +0.000 C 
BRANCH  19  20
ATOM     20  C   UNL     1       5.175   6.398  17.711  0.00  0.00    +0.000 A 
ATOM     21  C   UNL     1       5.329   5.401  18.683  0.00  0.00    +0.000 A 
ATOM     22  C   UNL     1       4.289   5.105  19.568  0.00  0.00    +0.000 A 
ATOM     23  C   UNL     1       3.070   5.793  19.491  0.00  0.00    +0.000 A 
ATOM     24  C   UNL     1       2.913   6.784  18.509  0.00  0.00    +0.000 A 
ATOM     25  C   UNL     1       3.953   7.081  17.625  0.00  0.00    +0.000 A 
BRANCH  23  26
ATOM     26  C   UNL     1       1.941   5.480  20.442  0.00  0.00    +0.000 C 
ATOM     27  F   UNL     1       0.979   4.681  19.903  0.00  0.00    +0.000 F 
ATOM     28  F   UNL     1       2.369   4.843  21.566  0.00  0.00    +0.000 F 
ATOM     29  F   UNL     1       1.296   6.601  20.870  0.00  0.00    +0.000 F 
ENDBRANCH  23  26
ENDBRANCH  19  20
ENDBRANCH   3  19
TORSDOF 5
ENDMDL
MODEL 9
REMARK VINA RESULT:      -8.2      0.576      1.558
REMARK  Name = 
REMARK  6 active torsions:
REMARK  status: ('A' for Active; 'I' for Inactive)
REMARK    1  A    between atoms: C_1  and  C_2
REMARK    2  A    between atoms: C_8  and  C_9
REMARK    3  A    between atoms: C_11  and  C_12
REMARK    4  A    between atoms: N_14  and  C_15
REMARK    5  A    between atoms: C_15  and  C_16
REMARK    6  A    between atoms: C_19  and  C_20
REMARK                            x       y       z     vdW  Elec       q    Type
REMARK                         _______ _______ _______ _____ _____    ______ ____
ROOT
ATOM      1  C   UNL     1       7.948   7.805  18.108  0.00  0.00    +0.000 C 
ATOM      2  O   UNL     1       8.234   6.816  18.775  0.00  0.00    +0.000 OA
ATOM      3  N   UNL     1       7.026   7.782  17.093  0.00  0.00    +0.000 N 
ATOM      4  H   UNL     1       6.862   8.614  16.550  0.00  0.00    +0.000 HD
ENDROOT
BRANCH   1   7
ATOM      5  C   UNL     1       9.405  11.162  18.401  0.00  0.00    +0.000 A 
ATOM      6  C   UNL     1       8.804  10.187  17.554  0.00  0.00    +0.000 A 
ATOM      7  C   UNL     1       8.553   9.086  18.347  0.00  0.00    +0.000 A 
ATOM      8  N   UNL     1       9.026   9.436  19.579  0.00  0.00    +0.000 N 
ATOM      9  N   UNL     1       9.520  10.680  19.645  0.00  0.00    +0.000 NA
ATOM     10  H   UNL     1       9.022   8.863  20.419  0.00  0.00    +0.000 HD
BRANCH   5  18
ATOM     11  C   UNL     1       7.919  13.637  19.339  0.00  0.00    +0.000 C 
ATOM     12  C   UNL     1       9.141  13.686  18.460  0.00  0.00    +0.000 A 
ATOM     13  C   UNL     1       9.610  14.949  18.051  0.00  0.00    +0.000 A 
ATOM     14  C   UNL     1      10.736  15.059  17.244  0.00  0.00    +0.000 A 
ATOM     15  F   UNL     1      11.164  16.271  16.870  0.00  0.00    +0.000 F 
ATOM     16  C   UNL     1      11.421  13.932  16.824  0.00  0.00    +0.000 A 
ATOM     17  C   UNL     1      10.969  12.671  17.215  0.00  0.00    +0.000 A 
ATOM     18  C   UNL     1       9.828  12.524  18.033  0.00  0.00    +0.000 A 
ENDBRANCH   5  18
ENDBRANCH   1   7
BRANCH   3  19
ATOM     19  C   UNL     1       6.329   6.581  16.701  0.00  0.00    +0.000 C 
BRANCH  19  20
ATOM     20  C   UNL     1       5.196   6.302  17.652  0.00  0.00    +0.000 A 
ATOM     21  C   UNL     1       4.024   7.068  17.589  0.00  0.00    +0.000 A 
ATOM     22  C   UNL     1       2.977   6.839  18.484  0.00  0.00    +0.000 A 
ATOM     23  C   UNL     1       3.084   5.845  19.467  0.00  0.00    +0.000 A 
ATOM     24  C   UNL     1       4.263   5.085  19.537  0.00  0.00    +0.000 A 
ATOM     25  C   UNL     1       5.310   5.314  18.641  0.00  0.00    +0.000 A 
BRANCH  23  26
ATOM     26  C   UNL     1       1.958   5.589  20.438  0.00  0.00    +0.000 C 
ATOM     27  F   UNL     1       1.330   6.724  20.857  0.00  0.00    +0.000 F 
ATOM     28  F   UNL     1       0.984   4.798  19.911  0.00  0.00    +0.000 F 
ATOM     29  F   UNL     1       2.379   4.959  21.570  0.00  0.00    +0.000 F 
ENDBRANCH  23  26
ENDBRANCH  19  20
ENDBRANCH   3  19
TORSDOF 5
ENDMDL
