MODEL 1
REMARK VINA RESULT:      -7.6      0.000      0.000
REMARK  Name = 
REMARK  10 active torsions:
REMARK  status: ('A' for Active; 'I' for Inactive)
REMARK    1  A    between atoms: C_1  and  O_2
REMARK    2  A    between atoms: O_2  and  C_3
REMARK    3  A    between atoms: C_8  and  C_9
REMARK    4  A    between atoms: C_9  and  N_10
REMARK    5  A    between atoms: C_11  and  C_13
REMARK    6  A    between atoms: C_13  and  C_14
REMARK    7  A    between atoms: C_13  and  N_15
REMARK    8  A    between atoms: C_19  and  C_20
REMARK    9  A    between atoms: C_25  and  C_26
REMARK   10  A    between atoms: N_28  and  C_29
REMARK                            x       y       z     vdW  Elec       q    Type
REMARK                         _______ _______ _______ _____ _____    ______ ____
ROOT
ATOM      1  N   UNL     1      -0.988  11.392  19.238  0.00  0.00    +0.000 N 
ATOM      2  C   UNL     1      -1.183  10.525  18.161  0.00  0.00    +0.000 A 
ATOM      3  O   UNL     1      -0.352   9.708  17.762  0.00  0.00    +0.000 OA
ATOM      4  C   UNL     1      -2.460  10.624  17.413  0.00  0.00    +0.000 A 
ATOM      5  C   UNL     1      -3.512  11.308  17.886  0.00  0.00    +0.000 A 
ATOM      6  C   UNL     1      -3.417  11.947  19.160  0.00  0.00    +0.000 A 
ATOM      7  C   UNL     1      -4.304  12.576  20.077  0.00  0.00    +0.000 A 
ATOM      8  C   UNL     1      -5.773  12.787  20.122  0.00  0.00    +0.000 C 
ATOM      9  N   UNL     1      -3.631  13.030  21.138  0.00  0.00    +0.000 NA
ATOM     10  N   UNL     1      -2.365  12.604  20.979  0.00  0.00    +0.000 N 
ATOM     11  C   UNL     1      -1.520  12.704  22.147  0.00  0.00    +0.000 C 
ATOM     12  C   UNL     1      -2.162  11.975  19.773  0.00  0.00    +0.000 A 
ENDROOT
BRANCH   5  13
ATOM     13  C   UNL     1      -4.713  11.423  17.005  0.00  0.00    +0.000 C 
ATOM     14  F   UNL     1      -4.592  10.915  15.760  0.00  0.00    +0.000 F 
ATOM     15  F   UNL     1      -5.778  10.777  17.556  0.00  0.00    +0.000 F 
ATOM     16  F   UNL     1      -5.093  12.722  16.872  0.00  0.00    +0.000 F 
ENDBRANCH   5  13
BRANCH   1  17
ATOM     17  C   UNL     1       0.388  11.571  19.757  0.00  0.00    +0.000 C 
ATOM     18  C   UNL     1       1.452  11.867  18.680  0.00  0.00    +0.000 C 
BRANCH  17  20
ATOM     19  N   UNL     1       1.052   9.205  19.989  0.00  0.00    +0.000 N 
ATOM     20  C   UNL     1       0.866  10.402  20.630  0.00  0.00    +0.000 C 
ATOM     21  O   UNL     1       1.104  10.559  21.832  0.00  0.00    +0.000 OA
ATOM     22  H   UNL     1       0.786   9.123  19.009  0.00  0.00    +0.000 HD
BRANCH  19  23
ATOM     23  C   UNL     1       1.548   8.020  20.650  0.00  0.00    +0.000 C 
BRANCH  23  29
ATOM     24  C   UNL     1       2.421   5.734  19.933  0.00  0.00    +0.000 A 
ATOM     25  C   UNL     1       3.044   4.928  18.970  0.00  0.00    +0.000 A 
ATOM     26  C   UNL     1       3.546   5.484  17.794  0.00  0.00    +0.000 A 
ATOM     27  C   UNL     1       3.419   6.849  17.561  0.00  0.00    +0.000 A 
ATOM     28  C   UNL     1       2.769   7.654  18.495  0.00  0.00    +0.000 A 
ATOM     29  C   UNL     1       2.245   7.106  19.679  0.00  0.00    +0.000 A 
BRANCH  24  31
ATOM     30  C   UNL     1       2.164   3.851  21.329  0.00  0.00    +0.000 C 
ATOM     31  O   UNL     1       1.929   5.243  21.114  0.00  0.00    +0.000 OA
ENDBRANCH  24  31
ENDBRANCH  23  29
ENDBRANCH  19  23
ENDBRANCH  17  20
ENDBRANCH   1  17
TORSDOF 6
ENDMDL
MODEL 2
REMARK VINA RESULT:      -7.4      1.017      1.859
REMARK  Name = 
REMARK  10 active torsions:
REMARK  status: ('A' for Active; 'I' for Inactive)
REMARK    1  A    between atoms: C_1  and  O_2
REMARK    2  A    between atoms: O_2  and  C_3
REMARK    3  A    between atoms: C_8  and  C_9
REMARK    4  A    between atoms: C_9  and  N_10
REMARK    5  A    between atoms: C_11  and  C_13
REMARK    6  A    between atoms: C_13  and  C_14
REMARK    7  A    between atoms: C_13  and  N_15
REMARK    8  A    between atoms: C_19  and  C_20
REMARK    9  A    between atoms: C_25  and  C_26
REMARK   10  A    between atoms: N_28  and  C_29
REMARK                            x       y       z     vdW  Elec       q    Type
REMARK                         _______ _______ _______ _____ _____    ______ ____
ROOT
ATOM      1  N   UNL     1      -0.695  11.029  19.027  0.00  0.00    +0.000 N 
ATOM      2  C   UNL     1      -0.991  10.104  18.025  0.00  0.00    +0.000 A 
ATOM      3  O   UNL     1      -0.243   9.192  17.672  0.00  0.00    +0.000 OA
ATOM      4  C   UNL     1      -2.276  10.255  17.300  0.00  0.00    +0.000 A 
ATOM      5  C   UNL     1      -3.254  11.060  17.741  0.00  0.00    +0.000 A 
ATOM      6  C   UNL     1      -3.070  11.781  18.960  0.00  0.00    +0.000 A 
ATOM      7  C   UNL     1      -3.876  12.551  19.844  0.00  0.00    +0.000 A 
ATOM      8  C   UNL     1      -5.321  12.889  19.905  0.00  0.00    +0.000 C 
ATOM      9  N   UNL     1      -3.138  13.024  20.853  0.00  0.00    +0.000 NA
ATOM     10  N   UNL     1      -1.916  12.481  20.700  0.00  0.00    +0.000 N 
ATOM     11  C   UNL     1      -1.034  12.595  21.838  0.00  0.00    +0.000 C 
ATOM     12  C   UNL     1      -1.801  11.748  19.541  0.00  0.00    +0.000 A 
ENDROOT
BRANCH   5  13
ATOM     13  C   UNL     1      -4.466  11.210  16.880  0.00  0.00    +0.000 C 
ATOM     14  F   UNL     1      -4.825  12.473  16.569  0.00  0.00    +0.000 F 
ATOM     15  F   UNL     1      -4.289  10.580  15.685  0.00  0.00    +0.000 F 
ATOM     16  F   UNL     1      -5.545  10.618  17.458  0.00  0.00    +0.000 F 
ENDBRANCH   5  13
BRANCH   1  17
ATOM     17  C   UNL     1       0.706  11.128  19.502  0.00  0.00    +0.000 C 
ATOM     18  C   UNL     1       1.766  11.158  18.382  0.00  0.00    +0.000 C 
BRANCH  17  20
ATOM     19  N   UNL     1       1.433   8.825  20.010  0.00  0.00    +0.000 N 
ATOM     20  C   UNL     1       1.080  10.046  20.523  0.00  0.00    +0.000 C 
ATOM     21  O   UNL     1       1.096  10.290  21.734  0.00  0.00    +0.000 OA
ATOM     22  H   UNL     1       1.346   8.667  19.008  0.00  0.00    +0.000 HD
BRANCH  19  23
ATOM     23  C   UNL     1       1.863   7.715  20.829  0.00  0.00    +0.000 C 
BRANCH  23  29
ATOM     24  C   UNL     1       2.516   6.339  18.784  0.00  0.00    +0.000 A 
ATOM     25  C   UNL     1       2.539   5.107  18.115  0.00  0.00    +0.000 A 
ATOM     26  C   UNL     1       1.894   3.994  18.653  0.00  0.00    +0.000 A 
ATOM     27  C   UNL     1       1.228   4.097  19.869  0.00  0.00    +0.000 A 
ATOM     28  C   UNL     1       1.230   5.307  20.560  0.00  0.00    +0.000 A 
ATOM     29  C   UNL     1       1.889   6.434  20.039  0.00  0.00    +0.000 A 
BRANCH  24  31
ATOM     30  C   UNL     1       4.092   7.234  17.275  0.00  0.00    +0.000 C 
ATOM     31  O   UNL     1       3.116   7.468  18.291  0.00  0.00    +0.000 OA
ENDBRANCH  24  31
ENDBRANCH  23  29
ENDBRANCH  19  23
ENDBRANCH  17  20
ENDBRANCH   1  17
TORSDOF 6
ENDMDL
MODEL 3
REMARK VINA RESULT:      -7.3      1.161      1.372
REMARK  Name = 
REMARK  10 active torsions:
REMARK  status: ('A' for Active; 'I' for Inactive)
REMARK    1  A    between atoms: C_1  and  O_2
REMARK    2  A    between atoms: O_2  and  C_3
REMARK    3  A    between atoms: C_8  and  C_9
REMARK    4  A    between atoms: C_9  and  N_10
REMARK    5  A    between atoms: C_11  and  C_13
REMARK    6  A    between atoms: C_13  and  C_14
REMARK    7  A    between atoms: C_13  and  N_15
REMARK    8  A    between atoms: C_19  and  C_20
REMARK    9  A    between atoms: C_25  and  C_26
REMARK   10  A    between atoms: N_28  and  C_29
REMARK                            x       y       z     vdW  Elec       q    Type
REMARK                         _______ _______ _______ _____ _____    ______ ____
ROOT
ATOM      1  N   UNL     1      -0.590  10.646  18.735  0.00  0.00    +0.000 N 
ATOM      2  C   UNL     1      -0.983   9.808  17.689  0.00  0.00    +0.000 A 
ATOM      3  O   UNL     1      -0.309   8.875  17.251  0.00  0.00    +0.000 OA
ATOM      4  C   UNL     1      -2.280  10.086  17.027  0.00  0.00    +0.000 A 
ATOM      5  C   UNL     1      -3.187  10.922  17.557  0.00  0.00    +0.000 A 
ATOM      6  C   UNL     1      -2.912  11.550  18.810  0.00  0.00    +0.000 A 
ATOM      7  C   UNL     1      -3.632  12.310  19.772  0.00  0.00    +0.000 A 
ATOM      8  C   UNL     1      -5.049  12.735  19.911  0.00  0.00    +0.000 C 
ATOM      9  N   UNL     1      -2.829  12.669  20.777  0.00  0.00    +0.000 NA
ATOM     10  N   UNL     1      -1.652  12.061  20.542  0.00  0.00    +0.000 N 
ATOM     11  C   UNL     1      -0.724  12.046  21.648  0.00  0.00    +0.000 C 
ATOM     12  C   UNL     1      -1.627  11.399  19.336  0.00  0.00    +0.000 A 
ENDROOT
BRANCH   5  13
ATOM     13  C   UNL     1      -4.416  11.204  16.756  0.00  0.00    +0.000 C 
ATOM     14  F   UNL     1      -4.436  10.713  15.499  0.00  0.00    +0.000 F 
ATOM     15  F   UNL     1      -5.517  10.682  17.364  0.00  0.00    +0.000 F 
ATOM     16  F   UNL     1      -4.638  12.542  16.667  0.00  0.00    +0.000 F 
ENDBRANCH   5  13
BRANCH   1  17
ATOM     17  C   UNL     1       0.830  10.625  19.157  0.00  0.00    +0.000 C 
ATOM     18  C   UNL     1       1.840  10.984  18.048  0.00  0.00    +0.000 C 
BRANCH  17  20
ATOM     19  N   UNL     1       1.901   8.407  19.009  0.00  0.00    +0.000 N 
ATOM     20  C   UNL     1       1.250   9.303  19.815  0.00  0.00    +0.000 C 
ATOM     21  O   UNL     1       1.042   9.093  21.014  0.00  0.00    +0.000 OA
ATOM     22  H   UNL     1       1.995   8.613  18.015  0.00  0.00    +0.000 HD
BRANCH  19  23
ATOM     23  C   UNL     1       2.411   7.140  19.481  0.00  0.00    +0.000 C 
BRANCH  23  29
ATOM     24  C   UNL     1       3.233   5.053  18.268  0.00  0.00    +0.000 A 
ATOM     25  C   UNL     1       3.983   4.474  17.235  0.00  0.00    +0.000 A 
ATOM     26  C   UNL     1       4.768   5.265  16.396  0.00  0.00    +0.000 A 
ATOM     27  C   UNL     1       4.803   6.644  16.575  0.00  0.00    +0.000 A 
ATOM     28  C   UNL     1       4.034   7.234  17.576  0.00  0.00    +0.000 A 
ATOM     29  C   UNL     1       3.225   6.451  18.419  0.00  0.00    +0.000 A 
BRANCH  24  31
ATOM     30  C   UNL     1       1.401   3.589  18.516  0.00  0.00    +0.000 C 
ATOM     31  O   UNL     1       2.461   4.321  19.132  0.00  0.00    +0.000 OA
ENDBRANCH  24  31
ENDBRANCH  23  29
ENDBRANCH  19  23
ENDBRANCH  17  20
ENDBRANCH   1  17
TORSDOF 6
ENDMDL
MODEL 4
REMARK VINA RESULT:      -6.9      4.891      7.738
REMARK  Name = 
REMARK  10 active torsions:
REMARK  status: ('A' for Active; 'I' for Inactive)
REMARK    1  A    between atoms: C_1  and  O_2
REMARK    2  A    between atoms: O_2  and  C_3
REMARK    3  A    between atoms: C_8  and  C_9
REMARK    4  A    between atoms: C_9  and  N_10
REMARK    5  A    between atoms: C_11  and  C_13
REMARK    6  A    between atoms: C_13  and  C_14
REMARK    7  A    between atoms: C_13  and  N_15
REMARK    8  A    between atoms: C_19  and  C_20
REMARK    9  A    between atoms: C_25  and  C_26
REMARK   10  A    between atoms: N_28  and  C_29
REMARK                            x       y       z     vdW  Elec       q    Type
REMARK                         _______ _______ _______ _____ _____    ______ ____
ROOT
ATOM      1  N   UNL     1       3.815   6.190  18.512  0.00  0.00    +0.000 N 
ATOM      2  C   UNL     1       3.790   7.054  17.416  0.00  0.00    +0.000 A 
ATOM      3  O   UNL     1       4.375   6.850  16.353  0.00  0.00    +0.000 OA
ATOM      4  C   UNL     1       3.044   8.328  17.554  0.00  0.00    +0.000 A 
ATOM      5  C   UNL     1       2.195   8.552  18.568  0.00  0.00    +0.000 A 
ATOM      6  C   UNL     1       1.978   7.526  19.538  0.00  0.00    +0.000 A 
ATOM      7  C   UNL     1       1.070   7.280  20.605  0.00  0.00    +0.000 A 
ATOM      8  C   UNL     1      -0.122   7.987  21.140  0.00  0.00    +0.000 C 
ATOM      9  N   UNL     1       1.365   6.125  21.210  0.00  0.00    +0.000 NA
ATOM     10  N   UNL     1       2.357   5.575  20.486  0.00  0.00    +0.000 N 
ATOM     11  C   UNL     1       2.633   4.184  20.759  0.00  0.00    +0.000 C 
ATOM     12  C   UNL     1       2.803   6.401  19.479  0.00  0.00    +0.000 A 
ENDROOT
BRANCH   5  13
ATOM     13  C   UNL     1       1.573   9.907  18.662  0.00  0.00    +0.000 C 
ATOM     14  F   UNL     1       1.497  10.445  19.898  0.00  0.00    +0.000 F 
ATOM     15  F   UNL     1       2.271  10.810  17.918  0.00  0.00    +0.000 F 
ATOM     16  F   UNL     1       0.313   9.897  18.151  0.00  0.00    +0.000 F 
ENDBRANCH   5  13
BRANCH   1  17
ATOM     17  C   UNL     1       4.832   5.113  18.536  0.00  0.00    +0.000 C 
ATOM     18  C   UNL     1       6.291   5.603  18.638  0.00  0.00    +0.000 C 
BRANCH  17  20
ATOM     19  N   UNL     1       5.621   4.287  16.349  0.00  0.00    +0.000 N 
ATOM     20  C   UNL     1       4.709   4.135  17.359  0.00  0.00    +0.000 C 
ATOM     21  O   UNL     1       3.857   3.240  17.360  0.00  0.00    +0.000 OA
ATOM     22  H   UNL     1       6.264   5.077  16.378  0.00  0.00    +0.000 HD
BRANCH  19  23
ATOM     23  C   UNL     1       5.680   3.419  15.195  0.00  0.00    +0.000 C 
BRANCH  23  29
ATOM     24  C   UNL     1       6.279   3.669  12.729  0.00  0.00    +0.000 A 
ATOM     25  C   UNL     1       6.994   4.331  11.722  0.00  0.00    +0.000 A 
ATOM     26  C   UNL     1       7.913   5.330  12.042  0.00  0.00    +0.000 A 
ATOM     27  C   UNL     1       8.119   5.685  13.371  0.00  0.00    +0.000 A 
ATOM     28  C   UNL     1       7.387   5.057  14.377  0.00  0.00    +0.000 A 
ATOM     29  C   UNL     1       6.446   4.060  14.069  0.00  0.00    +0.000 A 
BRANCH  24  31
ATOM     30  C   UNL     1       5.759   1.776  11.423  0.00  0.00    +0.000 C 
ATOM     31  O   UNL     1       5.380   2.667  12.472  0.00  0.00    +0.000 OA
ENDBRANCH  24  31
ENDBRANCH  23  29
ENDBRANCH  19  23
ENDBRANCH  17  20
ENDBRANCH   1  17
TORSDOF 6
ENDMDL
MODEL 5
REMARK VINA RESULT:      -6.7      3.585      6.501
REMARK  Name = 
REMARK  10 active torsions:
REMARK  status: ('A' for Active; 'I' for Inactive)
REMARK    1  A    between atoms: C_1  and  O_2
REMARK    2  A    between atoms: O_2  and  C_3
REMARK    3  A    between atoms: C_8  and  C_9
REMARK    4  A    between atoms: C_9  and  N_10
REMARK    5  A    between atoms: C_11  and  C_13
REMARK    6  A    between atoms: C_13  and  C_14
REMARK    7  A    between atoms: C_13  and  N_15
REMARK    8  A    between atoms: C_19  and  C_20
REMARK    9  A    between atoms: C_25  and  C_26
REMARK   10  A    between atoms: N_28  and  C_29
REMARK                            x       y       z     vdW  Elec       q    Type
REMARK                         _______ _______ _______ _____ _____    ______ ____
ROOT
ATOM      1  N   UNL     1      -1.777  12.100  20.469  0.00  0.00    +0.000 N 
ATOM      2  C   UNL     1      -2.876  12.950  20.602  0.00  0.00    +0.000 A 
ATOM      3  O   UNL     1      -2.937  13.894  21.390  0.00  0.00    +0.000 OA
ATOM      4  C   UNL     1      -4.073  12.672  19.770  0.00  0.00    +0.000 A 
ATOM      5  C   UNL     1      -4.039  11.823  18.733  0.00  0.00    +0.000 A 
ATOM      6  C   UNL     1      -2.810  11.178  18.396  0.00  0.00    +0.000 A 
ATOM      7  C   UNL     1      -2.307  10.399  17.317  0.00  0.00    +0.000 A 
ATOM      8  C   UNL     1      -2.853   9.962  16.007  0.00  0.00    +0.000 C 
ATOM      9  N   UNL     1      -1.045  10.030  17.560  0.00  0.00    +0.000 NA
ATOM     10  N   UNL     1      -0.694  10.650  18.701  0.00  0.00    +0.000 N 
ATOM     11  C   UNL     1       0.718  10.655  19.001  0.00  0.00    +0.000 C 
ATOM     12  C   UNL     1      -1.740  11.330  19.281  0.00  0.00    +0.000 A 
ENDROOT
BRANCH   5  13
ATOM     13  C   UNL     1      -5.326  11.545  18.027  0.00  0.00    +0.000 C 
ATOM     14  F   UNL     1      -6.426  12.143  18.531  0.00  0.00    +0.000 F 
ATOM     15  F   UNL     1      -5.260  11.948  16.727  0.00  0.00    +0.000 F 
ATOM     16  F   UNL     1      -5.578  10.209  17.990  0.00  0.00    +0.000 F 
ENDBRANCH   5  13
BRANCH   1  17
ATOM     17  C   UNL     1      -0.737  12.124  21.524  0.00  0.00    +0.000 C 
ATOM     18  C   UNL     1      -1.210  11.637  22.909  0.00  0.00    +0.000 C 
BRANCH  17  20
ATOM     19  N   UNL     1       0.224  14.159  20.511  0.00  0.00    +0.000 N 
ATOM     20  C   UNL     1      -0.055  13.491  21.674  0.00  0.00    +0.000 C 
ATOM     21  O   UNL     1       0.183  13.965  22.790  0.00  0.00    +0.000 OA
ATOM     22  H   UNL     1       0.056  13.693  19.621  0.00  0.00    +0.000 HD
BRANCH  19  23
ATOM     23  C   UNL     1       0.814  15.477  20.476  0.00  0.00    +0.000 C 
BRANCH  23  29
ATOM     24  C   UNL     1       1.782  16.696  18.456  0.00  0.00    +0.000 A 
ATOM     25  C   UNL     1       2.748  16.775  17.443  0.00  0.00    +0.000 A 
ATOM     26  C   UNL     1       3.681  15.753  17.268  0.00  0.00    +0.000 A 
ATOM     27  C   UNL     1       3.666  14.647  18.110  0.00  0.00    +0.000 A 
ATOM     28  C   UNL     1       2.733  14.575  19.143  0.00  0.00    +0.000 A 
ATOM     29  C   UNL     1       1.796  15.604  19.342  0.00  0.00    +0.000 A 
BRANCH  24  31
ATOM     30  C   UNL     1      -0.142  17.772  17.620  0.00  0.00    +0.000 C 
ATOM     31  O   UNL     1       0.831  17.661  18.659  0.00  0.00    +0.000 OA
ENDBRANCH  24  31
ENDBRANCH  23  29
ENDBRANCH  19  23
ENDBRANCH  17  20
ENDBRANCH   1  17
TORSDOF 6
ENDMDL
MODEL 6
REMARK VINA RESULT:      -6.7      4.271      8.076
REMARK  Name = 
REMARK  10 active torsions:
REMARK  status: ('A' for Active; 'I' for Inactive)
REMARK    1  A    between atoms: C_1  and  O_2
REMARK    2  A    between atoms: O_2  and  C_3
REMARK    3  A    between atoms: C_8  and  C_9
REMARK    4  A    between atoms: C_9  and  N_10
REMARK    5  A    between atoms: C_11  and  C_13
REMARK    6  A    between atoms: C_13  and  C_14
REMARK    7  A    between atoms: C_13  and  N_15
REMARK    8  A    between atoms: C_19  and  C_20
REMARK    9  A    between atoms: C_25  and  C_26
REMARK   10  A    between atoms: N_28  and  C_29
REMARK                            x       y       z     vdW  Elec       q    Type
REMARK                         _______ _______ _______ _____ _____    ______ ____
ROOT
ATOM      1  N   UNL     1       1.282   9.226  19.047  0.00  0.00    +0.000 N 
ATOM      2  C   UNL     1       2.233   9.606  18.098  0.00  0.00    +0.000 A 
ATOM      3  O   UNL     1       2.385  10.755  17.682  0.00  0.00    +0.000 OA
ATOM      4  C   UNL     1       3.091   8.547  17.514  0.00  0.00    +0.000 A 
ATOM      5  C   UNL     1       3.168   7.317  18.044  0.00  0.00    +0.000 A 
ATOM      6  C   UNL     1       2.421   7.016  19.224  0.00  0.00    +0.000 A 
ATOM      7  C   UNL     1       2.364   5.962  20.177  0.00  0.00    +0.000 A 
ATOM      8  C   UNL     1       3.131   4.708  20.388  0.00  0.00    +0.000 C 
ATOM      9  N   UNL     1       1.422   6.213  21.092  0.00  0.00    +0.000 NA
ATOM     10  N   UNL     1       0.964   7.448  20.818  0.00  0.00    +0.000 N 
ATOM     11  C   UNL     1       0.165   8.062  21.852  0.00  0.00    +0.000 C 
ATOM     12  C   UNL     1       1.503   7.972  19.666  0.00  0.00    +0.000 A 
ENDROOT
BRANCH   5  13
ATOM     13  C   UNL     1       3.986   6.301  17.317  0.00  0.00    +0.000 C 
ATOM     14  F   UNL     1       4.474   6.676  16.115  0.00  0.00    +0.000 F 
ATOM     15  F   UNL     1       5.076   5.944  18.052  0.00  0.00    +0.000 F 
ATOM     16  F   UNL     1       3.277   5.158  17.122  0.00  0.00    +0.000 F 
ENDBRANCH   5  13
BRANCH   1  17
ATOM     17  C   UNL     1       0.189  10.174  19.366  0.00  0.00    +0.000 C 
ATOM     18  C   UNL     1      -0.668  10.603  18.157  0.00  0.00    +0.000 C 
BRANCH  17  20
ATOM     19  N   UNL     1       0.490  12.621  19.471  0.00  0.00    +0.000 N 
ATOM     20  C   UNL     1       0.667  11.425  20.115  0.00  0.00    +0.000 C 
ATOM     21  O   UNL     1       1.145  11.344  21.252  0.00  0.00    +0.000 OA
ATOM     22  H   UNL     1       0.143  12.620  18.513  0.00  0.00    +0.000 HD
BRANCH  19  23
ATOM     23  C   UNL     1       0.836  13.897  20.056  0.00  0.00    +0.000 C 
BRANCH  23  29
ATOM     24  C   UNL     1       1.471  15.977  18.726  0.00  0.00    +0.000 A 
ATOM     25  C   UNL     1       2.395  16.661  17.924  0.00  0.00    +0.000 A 
ATOM     26  C   UNL     1       3.571  16.039  17.504  0.00  0.00    +0.000 A 
ATOM     27  C   UNL     1       3.841  14.731  17.891  0.00  0.00    +0.000 A 
ATOM     28  C   UNL     1       2.946  14.053  18.717  0.00  0.00    +0.000 A 
ATOM     29  C   UNL     1       1.764  14.672  19.161  0.00  0.00    +0.000 A 
BRANCH  24  31
ATOM     30  C   UNL     1      -0.523  17.075  18.109  0.00  0.00    +0.000 C 
ATOM     31  O   UNL     1       0.293  16.533  19.149  0.00  0.00    +0.000 OA
ENDBRANCH  24  31
ENDBRANCH  23  29
ENDBRANCH  19  23
ENDBRANCH  17  20
ENDBRANCH   1  17
TORSDOF 6
ENDMDL
MODEL 7
REMARK VINA RESULT:      -6.7      4.331      8.066
REMARK  Name = 
REMARK  10 active torsions:
REMARK  status: ('A' for Active; 'I' for Inactive)
REMARK    1  A    between atoms: C_1  and  O_2
REMARK    2  A    between atoms: O_2  and  C_3
REMARK    3  A    between atoms: C_8  and  C_9
REMARK    4  A    between atoms: C_9  and  N_10
REMARK    5  A    between atoms: C_11  and  C_13
REMARK    6  A    between atoms: C_13  and  C_14
REMARK    7  A    between atoms: C_13  and  N_15
REMARK    8  A    between atoms: C_19  and  C_20
REMARK    9  A    between atoms: C_25  and  C_26
REMARK   10  A    between atoms: N_28  and  C_29
REMARK                            x       y       z     vdW  Elec       q    Type
REMARK                         _______ _______ _______ _____ _____    ______ ____
ROOT
ATOM      1  N   UNL     1      -1.357  13.333  21.856  0.00  0.00    +0.000 N 
ATOM      2  C   UNL     1      -1.914  12.558  22.875  0.00  0.00    +0.000 A 
ATOM      3  O   UNL     1      -2.827  12.927  23.614  0.00  0.00    +0.000 OA
ATOM      4  C   UNL     1      -1.339  11.213  23.117  0.00  0.00    +0.000 A 
ATOM      5  C   UNL     1      -0.507  10.625  22.244  0.00  0.00    +0.000 A 
ATOM      6  C   UNL     1      -0.178  11.299  21.029  0.00  0.00    +0.000 A 
ATOM      7  C   UNL     1       0.471  10.977  19.805  0.00  0.00    +0.000 A 
ATOM      8  C   UNL     1       1.049   9.735  19.230  0.00  0.00    +0.000 C 
ATOM      9  N   UNL     1       0.516  12.048  19.006  0.00  0.00    +0.000 NA
ATOM     10  N   UNL     1      -0.189  13.005  19.637  0.00  0.00    +0.000 N 
ATOM     11  C   UNL     1      -0.545  14.151  18.833  0.00  0.00    +0.000 C 
ATOM     12  C   UNL     1      -0.601  12.623  20.893  0.00  0.00    +0.000 A 
ENDROOT
BRANCH   5  13
ATOM     13  C   UNL     1       0.089   9.312  22.635  0.00  0.00    +0.000 C 
ATOM     14  F   UNL     1       1.411   9.163  22.403  0.00  0.00    +0.000 F 
ATOM     15  F   UNL     1      -0.069   9.089  23.970  0.00  0.00    +0.000 F 
ATOM     16  F   UNL     1      -0.546   8.286  22.008  0.00  0.00    +0.000 F 
ENDBRANCH   5  13
BRANCH   1  17
ATOM     17  C   UNL     1      -1.652  14.785  21.835  0.00  0.00    +0.000 C 
ATOM     18  C   UNL     1      -1.099  15.574  23.040  0.00  0.00    +0.000 C 
BRANCH  17  20
ATOM     19  N   UNL     1      -3.764  14.534  20.583  0.00  0.00    +0.000 N 
ATOM     20  C   UNL     1      -3.145  15.099  21.667  0.00  0.00    +0.000 C 
ATOM     21  O   UNL     1      -3.748  15.791  22.494  0.00  0.00    +0.000 OA
ATOM     22  H   UNL     1      -3.203  14.020  19.906  0.00  0.00    +0.000 HD
BRANCH  19  23
ATOM     23  C   UNL     1      -5.174  14.685  20.307  0.00  0.00    +0.000 C 
BRANCH  23  29
ATOM     24  C   UNL     1      -6.580  12.889  21.448  0.00  0.00    +0.000 A 
ATOM     25  C   UNL     1      -7.246  11.657  21.385  0.00  0.00    +0.000 A 
ATOM     26  C   UNL     1      -7.168  10.863  20.241  0.00  0.00    +0.000 A 
ATOM     27  C   UNL     1      -6.432  11.297  19.144  0.00  0.00    +0.000 A 
ATOM     28  C   UNL     1      -5.795  12.536  19.182  0.00  0.00    +0.000 A 
ATOM     29  C   UNL     1      -5.877  13.354  20.322  0.00  0.00    +0.000 A 
BRANCH  24  31
ATOM     30  C   UNL     1      -6.826  13.018  23.790  0.00  0.00    +0.000 C 
ATOM     31  O   UNL     1      -6.607  13.698  22.553  0.00  0.00    +0.000 OA
ENDBRANCH  24  31
ENDBRANCH  23  29
ENDBRANCH  19  23
ENDBRANCH  17  20
ENDBRANCH   1  17
TORSDOF 6
ENDMDL
MODEL 8
REMARK VINA RESULT:      -6.7      2.195      3.103
REMARK  Name = 
REMARK  10 active torsions:
REMARK  status: ('A' for Active; 'I' for Inactive)
REMARK    1  A    between atoms: C_1  and  O_2
REMARK    2  A    between atoms: O_2  and  C_3
REMARK    3  A    between atoms: C_8  and  C_9
REMARK    4  A    between atoms: C_9  and  N_10
REMARK    5  A    between atoms: C_11  and  C_13
REMARK    6  A    between atoms: C_13  and  C_14
REMARK    7  A    between atoms: C_13  and  N_15
REMARK    8  A    between atoms: C_19  and  C_20
REMARK    9  A    between atoms: C_25  and  C_26
REMARK   10  A    between atoms: N_28  and  C_29
REMARK                            x       y       z     vdW  Elec       q    Type
REMARK                         _______ _______ _______ _____ _____    ______ ____
ROOT
ATOM      1  N   UNL     1      -0.334  11.481  20.206  0.00  0.00    +0.000 N 
ATOM      2  C   UNL     1      -0.289  12.576  21.071  0.00  0.00    +0.000 A 
ATOM      3  O   UNL     1       0.742  13.035  21.563  0.00  0.00    +0.000 OA
ATOM      4  C   UNL     1      -1.574  13.203  21.462  0.00  0.00    +0.000 A 
ATOM      5  C   UNL     1      -2.723  12.936  20.823  0.00  0.00    +0.000 A 
ATOM      6  C   UNL     1      -2.713  12.037  19.714  0.00  0.00    +0.000 A 
ATOM      7  C   UNL     1      -3.615  11.644  18.687  0.00  0.00    +0.000 A 
ATOM      8  C   UNL     1      -4.981  12.067  18.285  0.00  0.00    +0.000 C 
ATOM      9  N   UNL     1      -3.056  10.712  17.908  0.00  0.00    +0.000 NA
ATOM     10  N   UNL     1      -1.787  10.590  18.337  0.00  0.00    +0.000 N 
ATOM     11  C   UNL     1      -0.896   9.872  17.456  0.00  0.00    +0.000 C 
ATOM     12  C   UNL     1      -1.530  11.339  19.462  0.00  0.00    +0.000 A 
ENDROOT
BRANCH   5  13
ATOM     13  C   UNL     1      -3.973  13.549  21.365  0.00  0.00    +0.000 C 
ATOM     14  F   UNL     1      -4.997  12.703  21.608  0.00  0.00    +0.000 F 
ATOM     15  F   UNL     1      -3.730  14.172  22.552  0.00  0.00    +0.000 F 
ATOM     16  F   UNL     1      -4.441  14.513  20.527  0.00  0.00    +0.000 F 
ENDBRANCH   5  13
BRANCH   1  17
ATOM     17  C   UNL     1       0.869  10.623  20.094  0.00  0.00    +0.000 C 
ATOM     18  C   UNL     1       1.483  10.552  18.680  0.00  0.00    +0.000 C 
BRANCH  17  20
ATOM     19  N   UNL     1       1.605   8.275  20.285  0.00  0.00    +0.000 N 
ATOM     20  C   UNL     1       0.650   9.198  20.622  0.00  0.00    +0.000 C 
ATOM     21  O   UNL     1      -0.315   8.927  21.344  0.00  0.00    +0.000 OA
ATOM     22  H   UNL     1       2.347   8.544  19.641  0.00  0.00    +0.000 HD
BRANCH  19  23
ATOM     23  C   UNL     1       1.580   6.905  20.742  0.00  0.00    +0.000 C 
BRANCH  23  29
ATOM     24  C   UNL     1       1.858   4.587  19.718  0.00  0.00    +0.000 A 
ATOM     25  C   UNL     1       2.347   3.774  18.686  0.00  0.00    +0.000 A 
ATOM     26  C   UNL     1       3.133   4.313  17.668  0.00  0.00    +0.000 A 
ATOM     27  C   UNL     1       3.427   5.672  17.663  0.00  0.00    +0.000 A 
ATOM     28  C   UNL     1       2.915   6.496  18.664  0.00  0.00    +0.000 A 
ATOM     29  C   UNL     1       2.110   5.969  19.689  0.00  0.00    +0.000 A 
BRANCH  24  31
ATOM     30  C   UNL     1       1.472   2.806  21.215  0.00  0.00    +0.000 C 
ATOM     31  O   UNL     1       1.100   4.105  20.753  0.00  0.00    +0.000 OA
ENDBRANCH  24  31
ENDBRANCH  23  29
ENDBRANCH  19  23
ENDBRANCH  17  20
ENDBRANCH   1  17
TORSDOF 6
ENDMDL
MODEL 9
REMARK VINA RESULT:      -6.6      8.065      9.672
REMARK  Name = 
REMARK  10 active torsions:
REMARK  status: ('A' for Active; 'I' for Inactive)
REMARK    1  A    between atoms: C_1  and  O_2
REMARK    2  A    between atoms: O_2  and  C_3
REMARK    3  A    between atoms: C_8  and  C_9
REMARK    4  A    between atoms: C_9  and  N_10
REMARK    5  A    between atoms: C_11  and  C_13
REMARK    6  A    between atoms: C_13  and  C_14
REMARK    7  A    between atoms: C_13  and  N_15
REMARK    8  A    between atoms: C_19  and  C_20
REMARK    9  A    between atoms: C_25  and  C_26
REMARK   10  A    between atoms: N_28  and  C_29
REMARK                            x       y       z     vdW  Elec       q    Type
REMARK                         _______ _______ _______ _____ _____    ______ ____
ROOT
ATOM      1  N   UNL     1       6.353  15.612  20.633  0.00  0.00    +0.000 N 
ATOM      2  C   UNL     1       6.571  15.528  19.257  0.00  0.00    +0.000 A 
ATOM      3  O   UNL     1       7.677  15.587  18.720  0.00  0.00    +0.000 OA
ATOM      4  C   UNL     1       5.387  15.404  18.373  0.00  0.00    +0.000 A 
ATOM      5  C   UNL     1       4.168  15.108  18.850  0.00  0.00    +0.000 A 
ATOM      6  C   UNL     1       4.001  14.879  20.250  0.00  0.00    +0.000 A 
ATOM      7  C   UNL     1       2.984  14.377  21.107  0.00  0.00    +0.000 A 
ATOM      8  C   UNL     1       1.633  13.798  20.889  0.00  0.00    +0.000 C 
ATOM      9  N   UNL     1       3.387  14.415  22.381  0.00  0.00    +0.000 NA
ATOM     10  N   UNL     1       4.671  14.815  22.347  0.00  0.00    +0.000 N 
ATOM     11  C   UNL     1       5.415  14.634  23.571  0.00  0.00    +0.000 C 
ATOM     12  C   UNL     1       5.090  15.154  21.081  0.00  0.00    +0.000 A 
ENDROOT
BRANCH   5  13
ATOM     13  C   UNL     1       3.030  15.106  17.883  0.00  0.00    +0.000 C 
ATOM     14  F   UNL     1       1.944  15.825  18.236  0.00  0.00    +0.000 F 
ATOM     15  F   UNL     1       3.420  15.610  16.679  0.00  0.00    +0.000 F 
ATOM     16  F   UNL     1       2.608  13.837  17.636  0.00  0.00    +0.000 F 
ENDBRANCH   5  13
BRANCH   1  17
ATOM     17  C   UNL     1       7.458  16.098  21.493  0.00  0.00    +0.000 C 
ATOM     18  C   UNL     1       7.933  17.533  21.184  0.00  0.00    +0.000 C 
BRANCH  17  20
ATOM     19  N   UNL     1       9.750  15.547  20.764  0.00  0.00    +0.000 N 
ATOM     20  C   UNL     1       8.671  15.158  21.513  0.00  0.00    +0.000 C 
ATOM     21  O   UNL     1       8.673  14.135  22.205  0.00  0.00    +0.000 OA
ATOM     22  H   UNL     1       9.669  16.371  20.171  0.00  0.00    +0.000 HD
BRANCH  19  23
ATOM     23  C   UNL     1      10.990  14.806  20.715  0.00  0.00    +0.000 C 
BRANCH  23  29
ATOM     24  C   UNL     1      10.877  14.042  18.285  0.00  0.00    +0.000 A 
ATOM     25  C   UNL     1      10.876  13.002  17.346  0.00  0.00    +0.000 A 
ATOM     26  C   UNL     1      10.879  11.670  17.760  0.00  0.00    +0.000 A 
ATOM     27  C   UNL     1      10.894  11.364  19.116  0.00  0.00    +0.000 A 
ATOM     28  C   UNL     1      10.931  12.391  20.058  0.00  0.00    +0.000 A 
ATOM     29  C   UNL     1      10.944  13.738  19.656  0.00  0.00    +0.000 A 
BRANCH  24  31
ATOM     30  C   UNL     1      12.001  15.815  17.210  0.00  0.00    +0.000 C 
ATOM     31  O   UNL     1      10.854  15.366  17.934  0.00  0.00    +0.000 OA
ENDBRANCH  24  31
ENDBRANCH  23  29
ENDBRANCH  19  23
ENDBRANCH  17  20
ENDBRANCH   1  17
TORSDOF 6
ENDMDL
