MODEL 1
REMARK VINA RESULT:      -7.5      0.000      0.000
REMARK  Name = 
REMARK  12 active torsions:
REMARK  status: ('A' for Active; 'I' for Inactive)
REMARK    1  A    between atoms: C_1  and  C_2
REMARK    2  A    between atoms: C_2  and  O_3
REMARK    3  A    between atoms: O_3  and  C_4
REMARK    4  A    between atoms: C_4  and  C_6
REMARK    5  A    between atoms: N_9  and  C_10
REMARK    6  A    between atoms: C_10  and  C_11
REMARK    7  A    between atoms: N_13  and  C_14
REMARK    8  A    between atoms: C_20  and  C_21
REMARK    9  A    between atoms: C_22  and  C_23
REMARK   10  A    between atoms: C_23  and  O_25
REMARK   11  A    between atoms: O_25  and  C_26
REMARK   12  A    between atoms: C_26  and  C_27
REMARK                            x       y       z     vdW  Elec       q    Type
REMARK                         _______ _______ _______ _____ _____    ______ ____
ROOT
ATOM      1  C   UNL     1       5.805   4.388  15.923  0.00  0.00    +0.000 A 
ATOM      2  N   UNL     1       4.444   4.248  15.797  0.00  0.00    +0.000 NA
ATOM      3  N   UNL     1       3.907   4.325  17.001  0.00  0.00    +0.000 NA
ATOM      4  N   UNL     1       4.905   4.508  17.885  0.00  0.00    +0.000 N 
ATOM      5  C   UNL     1       6.125   4.574  17.261  0.00  0.00    +0.000 A 
ENDROOT
BRANCH   1   6
ATOM      6  C   UNL     1       6.696   4.395  14.777  0.00  0.00    +0.000 C 
ATOM      7  O   UNL     1       7.571   5.231  14.588  0.00  0.00    +0.000 OA
BRANCH   6   8
ATOM      8  O   UNL     1       6.376   3.400  13.902  0.00  0.00    +0.000 OA
BRANCH   8  10
ATOM      9  C   UNL     1       6.567   2.598  11.663  0.00  0.00    +0.000 C 
ATOM     10  C   UNL     1       6.245   3.800  12.535  0.00  0.00    +0.000 C 
ENDBRANCH   8  10
ENDBRANCH   6   8
ENDBRANCH   1   6
BRANCH   5  11
ATOM     11  C   UNL     1       7.404   4.870  17.840  0.00  0.00    +0.000 C 
ATOM     12  O   UNL     1       8.368   4.121  17.835  0.00  0.00    +0.000 OA
BRANCH  11  13
ATOM     13  O   UNL     1       7.394   6.116  18.381  0.00  0.00    +0.000 OA
BRANCH  13  14
ATOM     14  C   UNL     1       7.544   7.196  17.445  0.00  0.00    +0.000 C 
ATOM     15  C   UNL     1       8.186   8.405  18.101  0.00  0.00    +0.000 C 
ENDBRANCH  13  14
ENDBRANCH  11  13
ENDBRANCH   5  11
BRANCH   4  16
ATOM     16  C   UNL     1       4.541   4.693  19.271  0.00  0.00    +0.000 C 
BRANCH  16  17
ATOM     17  C   UNL     1       3.219   5.393  19.493  0.00  0.00    +0.000 C 
ATOM     18  O   UNL     1       2.207   4.696  19.580  0.00  0.00    +0.000 OA
ATOM     19  N   UNL     1       3.235   6.784  19.507  0.00  0.00    +0.000 N 
ATOM     20  H   UNL     1       4.087   7.248  19.204  0.00  0.00    +0.000 HD
BRANCH  19  21
ATOM     21  C   UNL     1       2.151   7.637  19.874  0.00  0.00    +0.000 A 
ATOM     22  C   UNL     1       1.581   7.571  21.155  0.00  0.00    +0.000 A 
ATOM     23  C   UNL     1       0.562   8.435  21.551  0.00  0.00    +0.000 A 
ATOM     24  C   UNL     1       0.106   9.406  20.674  0.00  0.00    +0.000 A 
ATOM     25  C   UNL     1       0.650   9.494  19.390  0.00  0.00    +0.000 A 
ATOM     26 CL   UNL     1       0.018  10.758  18.388  0.00  0.00    +0.000 Cl
ATOM     27  C   UNL     1       1.660   8.604  18.956  0.00  0.00    +0.000 A 
ATOM     28  C   UNL     1       2.179   8.659  17.540  0.00  0.00    +0.000 C 
ENDBRANCH  19  21
ENDBRANCH  16  17
ENDBRANCH   4  16
TORSDOF 9
ENDMDL
MODEL 2
REMARK VINA RESULT:      -7.2      2.874      4.083
REMARK  Name = 
REMARK  12 active torsions:
REMARK  status: ('A' for Active; 'I' for Inactive)
REMARK    1  A    between atoms: C_1  and  C_2
REMARK    2  A    between atoms: C_2  and  O_3
REMARK    3  A    between atoms: O_3  and  C_4
REMARK    4  A    between atoms: C_4  and  C_6
REMARK    5  A    between atoms: N_9  and  C_10
REMARK    6  A    between atoms: C_10  and  C_11
REMARK    7  A    between atoms: N_13  and  C_14
REMARK    8  A    between atoms: C_20  and  C_21
REMARK    9  A    between atoms: C_22  and  C_23
REMARK   10  A    between atoms: C_23  and  O_25
REMARK   11  A    between atoms: O_25  and  C_26
REMARK   12  A    between atoms: C_26  and  C_27
REMARK                            x       y       z     vdW  Elec       q    Type
REMARK                         _______ _______ _______ _____ _____    ______ ____
ROOT
ATOM      1  C   UNL     1       3.807   5.233  18.648  0.00  0.00    +0.000 A 
ATOM      2  N   UNL     1       2.687   5.412  19.425  0.00  0.00    +0.000 NA
ATOM      3  N   UNL     1       2.196   6.611  19.174  0.00  0.00    +0.000 NA
ATOM      4  N   UNL     1       2.987   7.194  18.255  0.00  0.00    +0.000 N 
ATOM      5  C   UNL     1       4.012   6.365  17.872  0.00  0.00    +0.000 A 
ENDROOT
BRANCH   1   6
ATOM      6  C   UNL     1       4.567   3.997  18.650  0.00  0.00    +0.000 C 
ATOM      7  O   UNL     1       5.531   3.780  19.376  0.00  0.00    +0.000 OA
BRANCH   6   8
ATOM      8  O   UNL     1       4.122   3.146  17.683  0.00  0.00    +0.000 OA
BRANCH   8  10
ATOM      9  C   UNL     1       2.296   1.981  18.683  0.00  0.00    +0.000 C 
ATOM     10  C   UNL     1       3.710   1.854  18.141  0.00  0.00    +0.000 C 
ENDBRANCH   8  10
ENDBRANCH   6   8
ENDBRANCH   1   6
BRANCH   5  11
ATOM     11  C   UNL     1       4.989   6.578  16.843  0.00  0.00    +0.000 C 
ATOM     12  O   UNL     1       4.862   6.247  15.674  0.00  0.00    +0.000 OA
BRANCH  11  13
ATOM     13  O   UNL     1       6.072   7.217  17.353  0.00  0.00    +0.000 OA
BRANCH  13  14
ATOM     14  C   UNL     1       7.292   6.456  17.356  0.00  0.00    +0.000 C 
ATOM     15  C   UNL     1       7.869   6.349  18.756  0.00  0.00    +0.000 C 
ENDBRANCH  13  14
ENDBRANCH  11  13
ENDBRANCH   5  11
BRANCH   4  16
ATOM     16  C   UNL     1       2.596   8.499  17.771  0.00  0.00    +0.000 C 
BRANCH  16  17
ATOM     17  C   UNL     1       1.504   9.172  18.572  0.00  0.00    +0.000 C 
ATOM     18  O   UNL     1       0.492   9.537  17.973  0.00  0.00    +0.000 OA
ATOM     19  N   UNL     1       1.760   9.399  19.921  0.00  0.00    +0.000 N 
ATOM     20  H   UNL     1       2.710   9.258  20.251  0.00  0.00    +0.000 HD
BRANCH  19  21
ATOM     21  C   UNL     1       0.817   9.849  20.894  0.00  0.00    +0.000 A 
ATOM     22  C   UNL     1       0.152   8.940  21.732  0.00  0.00    +0.000 A 
ATOM     23  C   UNL     1      -0.726   9.365  22.727  0.00  0.00    +0.000 A 
ATOM     24  C   UNL     1      -0.940  10.720  22.920  0.00  0.00    +0.000 A 
ATOM     25  C   UNL     1      -0.298  11.650  22.100  0.00  0.00    +0.000 A 
ATOM     26 CL   UNL     1      -0.624  13.315  22.446  0.00  0.00    +0.000 Cl
ATOM     27  C   UNL     1       0.571  11.239  21.060  0.00  0.00    +0.000 A 
ATOM     28  C   UNL     1       1.193  12.251  20.131  0.00  0.00    +0.000 C 
ENDBRANCH  19  21
ENDBRANCH  16  17
ENDBRANCH   4  16
TORSDOF 9
ENDMDL
MODEL 3
REMARK VINA RESULT:      -7.2      2.330      3.829
REMARK  Name = 
REMARK  12 active torsions:
REMARK  status: ('A' for Active; 'I' for Inactive)
REMARK    1  A    between atoms: C_1  and  C_2
REMARK    2  A    between atoms: C_2  and  O_3
REMARK    3  A    between atoms: O_3  and  C_4
REMARK    4  A    between atoms: C_4  and  C_6
REMARK    5  A    between atoms: N_9  and  C_10
REMARK    6  A    between atoms: C_10  and  C_11
REMARK    7  A    between atoms: N_13  and  C_14
REMARK    8  A    between atoms: C_20  and  C_21
REMARK    9  A    between atoms: C_22  and  C_23
REMARK   10  A    between atoms: C_23  and  O_25
REMARK   11  A    between atoms: O_25  and  C_26
REMARK   12  A    between atoms: C_26  and  C_27
REMARK                            x       y       z     vdW  Elec       q    Type
REMARK                         _______ _______ _______ _____ _____    ______ ____
ROOT
ATOM      1  C   UNL     1       4.521   6.160  17.234  0.00  0.00    +0.000 A 
ATOM      2  N   UNL     1       3.730   7.280  17.331  0.00  0.00    +0.000 NA
ATOM      3  N   UNL     1       3.012   7.186  18.436  0.00  0.00    +0.000 NA
ATOM      4  N   UNL     1       3.334   6.026  19.036  0.00  0.00    +0.000 N 
ATOM      5  C   UNL     1       4.294   5.342  18.333  0.00  0.00    +0.000 A 
ENDROOT
BRANCH   1   6
ATOM      6  C   UNL     1       5.468   5.967  16.151  0.00  0.00    +0.000 C 
ATOM      7  O   UNL     1       5.402   5.060  15.330  0.00  0.00    +0.000 OA
BRANCH   6   8
ATOM      8  O   UNL     1       6.483   6.873  16.221  0.00  0.00    +0.000 OA
BRANCH   8  10
ATOM      9  C   UNL     1       7.861   8.164  17.679  0.00  0.00    +0.000 C 
ATOM     10  C   UNL     1       7.317   6.778  17.380  0.00  0.00    +0.000 C 
ENDBRANCH   8  10
ENDBRANCH   6   8
ENDBRANCH   1   6
BRANCH   5  11
ATOM     11  C   UNL     1       4.973   4.134  18.701  0.00  0.00    +0.000 C 
ATOM     12  O   UNL     1       6.011   4.078  19.343  0.00  0.00    +0.000 OA
BRANCH  11  13
ATOM     13  O   UNL     1       4.285   3.055  18.247  0.00  0.00    +0.000 OA
BRANCH  13  14
ATOM     14  C   UNL     1       3.626   2.273  19.258  0.00  0.00    +0.000 C 
ATOM     15  C   UNL     1       2.153   2.096  18.940  0.00  0.00    +0.000 C 
ENDBRANCH  13  14
ENDBRANCH  11  13
ENDBRANCH   5  11
BRANCH   4  16
ATOM     16  C   UNL     1       2.717   5.743  20.313  0.00  0.00    +0.000 C 
BRANCH  16  17
ATOM     17  C   UNL     1       1.532   6.618  20.653  0.00  0.00    +0.000 C 
ATOM     18  O   UNL     1       0.418   6.094  20.679  0.00  0.00    +0.000 OA
ATOM     19  N   UNL     1       1.782   7.975  20.838  0.00  0.00    +0.000 N 
ATOM     20  H   UNL     1       2.698   8.325  20.572  0.00  0.00    +0.000 HD
BRANCH  19  21
ATOM     21  C   UNL     1       0.858   8.943  21.334  0.00  0.00    +0.000 A 
ATOM     22  C   UNL     1       0.518   8.985  22.696  0.00  0.00    +0.000 A 
ATOM     23  C   UNL     1      -0.336   9.959  23.210  0.00  0.00    +0.000 A 
ATOM     24  C   UNL     1      -0.852  10.932  22.370  0.00  0.00    +0.000 A 
ATOM     25  C   UNL     1      -0.535  10.915  21.009  0.00  0.00    +0.000 A 
ATOM     26 CL   UNL     1      -1.219  12.191  20.058  0.00  0.00    +0.000 Cl
ATOM     27  C   UNL     1       0.301   9.914  20.460  0.00  0.00    +0.000 A 
ATOM     28  C   UNL     1       0.567   9.861  18.975  0.00  0.00    +0.000 C 
ENDBRANCH  19  21
ENDBRANCH  16  17
ENDBRANCH   4  16
TORSDOF 9
ENDMDL
MODEL 4
REMARK VINA RESULT:      -7.1      1.535      2.213
REMARK  Name = 
REMARK  12 active torsions:
REMARK  status: ('A' for Active; 'I' for Inactive)
REMARK    1  A    between atoms: C_1  and  C_2
REMARK    2  A    between atoms: C_2  and  O_3
REMARK    3  A    between atoms: O_3  and  C_4
REMARK    4  A    between atoms: C_4  and  C_6
REMARK    5  A    between atoms: N_9  and  C_10
REMARK    6  A    between atoms: C_10  and  C_11
REMARK    7  A    between atoms: N_13  and  C_14
REMARK    8  A    between atoms: C_20  and  C_21
REMARK    9  A    between atoms: C_22  and  C_23
REMARK   10  A    between atoms: C_23  and  O_25
REMARK   11  A    between atoms: O_25  and  C_26
REMARK   12  A    between atoms: C_26  and  C_27
REMARK                            x       y       z     vdW  Elec       q    Type
REMARK                         _______ _______ _______ _____ _____    ______ ____
ROOT
ATOM      1  C   UNL     1       5.386   4.288  16.986  0.00  0.00    +0.000 A 
ATOM      2  N   UNL     1       4.136   3.802  16.687  0.00  0.00    +0.000 NA
ATOM      3  N   UNL     1       3.293   4.232  17.607  0.00  0.00    +0.000 NA
ATOM      4  N   UNL     1       3.988   4.978  18.484  0.00  0.00    +0.000 N 
ATOM      5  C   UNL     1       5.313   5.065  18.135  0.00  0.00    +0.000 A 
ENDROOT
BRANCH   1   6
ATOM      6  C   UNL     1       6.542   4.036  16.146  0.00  0.00    +0.000 C 
ATOM      7  O   UNL     1       7.697   4.294  16.464  0.00  0.00    +0.000 OA
BRANCH   6   8
ATOM      8  O   UNL     1       6.166   3.555  14.927  0.00  0.00    +0.000 OA
BRANCH   8  10
ATOM      9  C   UNL     1       6.273   3.540  12.544  0.00  0.00    +0.000 C 
ATOM     10  C   UNL     1       6.586   4.333  13.801  0.00  0.00    +0.000 C 
ENDBRANCH   8  10
ENDBRANCH   6   8
ENDBRANCH   1   6
BRANCH   5  11
ATOM     11  C   UNL     1       6.343   5.853  18.747  0.00  0.00    +0.000 C 
ATOM     12  O   UNL     1       7.014   5.508  19.708  0.00  0.00    +0.000 OA
BRANCH  11  13
ATOM     13  O   UNL     1       6.478   7.035  18.092  0.00  0.00    +0.000 OA
BRANCH  13  14
ATOM     14  C   UNL     1       7.826   7.399  17.750  0.00  0.00    +0.000 C 
ATOM     15  C   UNL     1       8.047   8.892  17.904  0.00  0.00    +0.000 C 
ENDBRANCH  13  14
ENDBRANCH  11  13
ENDBRANCH   5  11
BRANCH   4  16
ATOM     16  C   UNL     1       3.248   5.617  19.549  0.00  0.00    +0.000 C 
BRANCH  16  17
ATOM     17  C   UNL     1       2.692   6.981  19.206  0.00  0.00    +0.000 C 
ATOM     18  O   UNL     1       2.920   7.429  18.082  0.00  0.00    +0.000 OA
ATOM     19  N   UNL     1       2.025   7.663  20.218  0.00  0.00    +0.000 N 
ATOM     20  H   UNL     1       2.093   7.292  21.161  0.00  0.00    +0.000 HD
BRANCH  19  21
ATOM     21  C   UNL     1       1.274   8.869  20.071  0.00  0.00    +0.000 A 
ATOM     22  C   UNL     1       0.958   9.372  18.799  0.00  0.00    +0.000 A 
ATOM     23  C   UNL     1       0.177  10.514  18.634  0.00  0.00    +0.000 A 
ATOM     24  C   UNL     1      -0.327  11.167  19.748  0.00  0.00    +0.000 A 
ATOM     25  C   UNL     1      -0.027  10.694  21.027  0.00  0.00    +0.000 A 
ATOM     26 CL   UNL     1      -0.728  11.576  22.343  0.00  0.00    +0.000 Cl
ATOM     27  C   UNL     1       0.794   9.556  21.218  0.00  0.00    +0.000 A 
ATOM     28  C   UNL     1       1.177   9.107  22.606  0.00  0.00    +0.000 C 
ENDBRANCH  19  21
ENDBRANCH  16  17
ENDBRANCH   4  16
TORSDOF 9
ENDMDL
MODEL 5
REMARK VINA RESULT:      -7.0      1.061      1.086
REMARK  Name = 
REMARK  12 active torsions:
REMARK  status: ('A' for Active; 'I' for Inactive)
REMARK    1  A    between atoms: C_1  and  C_2
REMARK    2  A    between atoms: C_2  and  O_3
REMARK    3  A    between atoms: O_3  and  C_4
REMARK    4  A    between atoms: C_4  and  C_6
REMARK    5  A    between atoms: N_9  and  C_10
REMARK    6  A    between atoms: C_10  and  C_11
REMARK    7  A    between atoms: N_13  and  C_14
REMARK    8  A    between atoms: C_20  and  C_21
REMARK    9  A    between atoms: C_22  and  C_23
REMARK   10  A    between atoms: C_23  and  O_25
REMARK   11  A    between atoms: O_25  and  C_26
REMARK   12  A    between atoms: C_26  and  C_27
REMARK                            x       y       z     vdW  Elec       q    Type
REMARK                         _______ _______ _______ _____ _____    ______ ____
ROOT
ATOM      1  C   UNL     1       5.049   4.518  16.401  0.00  0.00    +0.000 A 
ATOM      2  N   UNL     1       3.841   3.896  16.194  0.00  0.00    +0.000 NA
ATOM      3  N   UNL     1       3.324   3.592  17.370  0.00  0.00    +0.000 NA
ATOM      4  N   UNL     1       4.185   4.008  18.316  0.00  0.00    +0.000 N 
ATOM      5  C   UNL     1       5.285   4.617  17.766  0.00  0.00    +0.000 A 
ENDROOT
BRANCH   1   6
ATOM      6  C   UNL     1       5.863   5.023  15.311  0.00  0.00    +0.000 C 
ATOM      7  O   UNL     1       5.900   6.197  14.963  0.00  0.00    +0.000 OA
BRANCH   6   8
ATOM      8  O   UNL     1       6.513   4.008  14.674  0.00  0.00    +0.000 OA
BRANCH   8  10
ATOM      9  C   UNL     1       7.089   4.080  12.360  0.00  0.00    +0.000 C 
ATOM     10  C   UNL     1       6.023   3.686  13.368  0.00  0.00    +0.000 C 
ENDBRANCH   8  10
ENDBRANCH   6   8
ENDBRANCH   1   6
BRANCH   5  11
ATOM     11  C   UNL     1       6.360   5.285  18.440  0.00  0.00    +0.000 C 
ATOM     12  O   UNL     1       7.085   4.779  19.282  0.00  0.00    +0.000 OA
BRANCH  11  13
ATOM     13  O   UNL     1       6.469   6.563  17.993  0.00  0.00    +0.000 OA
BRANCH  13  14
ATOM     14  C   UNL     1       7.811   7.064  17.878  0.00  0.00    +0.000 C 
ATOM     15  C   UNL     1       7.820   8.570  17.687  0.00  0.00    +0.000 C 
ENDBRANCH  13  14
ENDBRANCH  11  13
ENDBRANCH   5  11
BRANCH   4  16
ATOM     16  C   UNL     1       3.789   3.842  19.697  0.00  0.00    +0.000 C 
BRANCH  16  17
ATOM     17  C   UNL     1       2.861   4.913  20.224  0.00  0.00    +0.000 C 
ATOM     18  O   UNL     1       2.275   4.696  21.285  0.00  0.00    +0.000 OA
ATOM     19  N   UNL     1       2.681   6.040  19.428  0.00  0.00    +0.000 N 
ATOM     20  H   UNL     1       3.040   6.008  18.478  0.00  0.00    +0.000 HD
BRANCH  19  21
ATOM     21  C   UNL     1       2.002   7.239  19.803  0.00  0.00    +0.000 A 
ATOM     22  C   UNL     1       1.377   7.354  21.055  0.00  0.00    +0.000 A 
ATOM     23  C   UNL     1       0.761   8.535  21.463  0.00  0.00    +0.000 A 
ATOM     24  C   UNL     1       0.778   9.641  20.628  0.00  0.00    +0.000 A 
ATOM     25  C   UNL     1       1.387   9.557  19.374  0.00  0.00    +0.000 A 
ATOM     26 CL   UNL     1       1.366  11.006  18.426  0.00  0.00    +0.000 Cl
ATOM     27  C   UNL     1       1.988   8.356  18.926  0.00  0.00    +0.000 A 
ATOM     28  C   UNL     1       2.569   8.257  17.537  0.00  0.00    +0.000 C 
ENDBRANCH  19  21
ENDBRANCH  16  17
ENDBRANCH   4  16
TORSDOF 9
ENDMDL
MODEL 6
REMARK VINA RESULT:      -7.0      1.611      3.556
REMARK  Name = 
REMARK  12 active torsions:
REMARK  status: ('A' for Active; 'I' for Inactive)
REMARK    1  A    between atoms: C_1  and  C_2
REMARK    2  A    between atoms: C_2  and  O_3
REMARK    3  A    between atoms: O_3  and  C_4
REMARK    4  A    between atoms: C_4  and  C_6
REMARK    5  A    between atoms: N_9  and  C_10
REMARK    6  A    between atoms: C_10  and  C_11
REMARK    7  A    between atoms: N_13  and  C_14
REMARK    8  A    between atoms: C_20  and  C_21
REMARK    9  A    between atoms: C_22  and  C_23
REMARK   10  A    between atoms: C_23  and  O_25
REMARK   11  A    between atoms: O_25  and  C_26
REMARK   12  A    between atoms: C_26  and  C_27
REMARK                            x       y       z     vdW  Elec       q    Type
REMARK                         _______ _______ _______ _____ _____    ______ ____
ROOT
ATOM      1  C   UNL     1       6.310   5.117  18.589  0.00  0.00    +0.000 A 
ATOM      2  N   UNL     1       6.071   4.725  19.885  0.00  0.00    +0.000 NA
ATOM      3  N   UNL     1       4.768   4.586  20.042  0.00  0.00    +0.000 NA
ATOM      4  N   UNL     1       4.179   4.885  18.871  0.00  0.00    +0.000 N 
ATOM      5  C   UNL     1       5.102   5.211  17.909  0.00  0.00    +0.000 A 
ENDROOT
BRANCH   1   6
ATOM      6  C   UNL     1       7.650   5.318  18.070  0.00  0.00    +0.000 C 
ATOM      7  O   UNL     1       8.299   4.461  17.482  0.00  0.00    +0.000 OA
BRANCH   6   8
ATOM      8  O   UNL     1       8.121   6.555  18.396  0.00  0.00    +0.000 OA
BRANCH   8  10
ATOM      9  C   UNL     1       8.296   8.912  18.074  0.00  0.00    +0.000 C 
ATOM     10  C   UNL     1       7.665   7.627  17.565  0.00  0.00    +0.000 C 
ENDBRANCH   8  10
ENDBRANCH   6   8
ENDBRANCH   1   6
BRANCH   5  11
ATOM     11  C   UNL     1       4.880   5.478  16.518  0.00  0.00    +0.000 C 
ATOM     12  O   UNL     1       4.693   6.584  16.035  0.00  0.00    +0.000 OA
BRANCH  11  13
ATOM     13  O   UNL     1       4.924   4.321  15.808  0.00  0.00    +0.000 OA
BRANCH  13  14
ATOM     14  C   UNL     1       5.380   4.449  14.450  0.00  0.00    +0.000 C 
ATOM     15  C   UNL     1       6.894   4.527  14.384  0.00  0.00    +0.000 C 
ENDBRANCH  13  14
ENDBRANCH  11  13
ENDBRANCH   5  11
BRANCH   4  16
ATOM     16  C   UNL     1       2.744   4.730  18.788  0.00  0.00    +0.000 C 
BRANCH  16  17
ATOM     17  C   UNL     1       1.950   5.716  19.615  0.00  0.00    +0.000 C 
ATOM     18  O   UNL     1       1.194   5.267  20.478  0.00  0.00    +0.000 OA
ATOM     19  N   UNL     1       2.078   7.062  19.287  0.00  0.00    +0.000 N 
ATOM     20  H   UNL     1       2.554   7.292  18.420  0.00  0.00    +0.000 HD
BRANCH  19  21
ATOM     21  C   UNL     1       1.570   8.166  20.037  0.00  0.00    +0.000 A 
ATOM     22  C   UNL     1       1.476   8.106  21.437  0.00  0.00    +0.000 A 
ATOM     23  C   UNL     1       1.039   9.193  22.191  0.00  0.00    +0.000 A 
ATOM     24  C   UNL     1       0.706  10.379  21.556  0.00  0.00    +0.000 A 
ATOM     25  C   UNL     1       0.785  10.469  20.164  0.00  0.00    +0.000 A 
ATOM     26 CL   UNL     1       0.366  12.004  19.481  0.00  0.00    +0.000 Cl
ATOM     27  C   UNL     1       1.193   9.365  19.377  0.00  0.00    +0.000 A 
ATOM     28  C   UNL     1       1.193   9.452  17.870  0.00  0.00    +0.000 C 
ENDBRANCH  19  21
ENDBRANCH  16  17
ENDBRANCH   4  16
TORSDOF 9
ENDMDL
MODEL 7
REMARK VINA RESULT:      -6.9      1.339      1.913
REMARK  Name = 
REMARK  12 active torsions:
REMARK  status: ('A' for Active; 'I' for Inactive)
REMARK    1  A    between atoms: C_1  and  C_2
REMARK    2  A    between atoms: C_2  and  O_3
REMARK    3  A    between atoms: O_3  and  C_4
REMARK    4  A    between atoms: C_4  and  C_6
REMARK    5  A    between atoms: N_9  and  C_10
REMARK    6  A    between atoms: C_10  and  C_11
REMARK    7  A    between atoms: N_13  and  C_14
REMARK    8  A    between atoms: C_20  and  C_21
REMARK    9  A    between atoms: C_22  and  C_23
REMARK   10  A    between atoms: C_23  and  O_25
REMARK   11  A    between atoms: O_25  and  C_26
REMARK   12  A    between atoms: C_26  and  C_27
REMARK                            x       y       z     vdW  Elec       q    Type
REMARK                         _______ _______ _______ _____ _____    ______ ____
ROOT
ATOM      1  C   UNL     1       5.959   4.313  14.961  0.00  0.00    +0.000 A 
ATOM      2  N   UNL     1       4.651   3.909  14.833  0.00  0.00    +0.000 NA
ATOM      3  N   UNL     1       4.150   3.740  16.042  0.00  0.00    +0.000 NA
ATOM      4  N   UNL     1       5.117   4.027  16.932  0.00  0.00    +0.000 N 
ATOM      5  C   UNL     1       6.278   4.412  16.309  0.00  0.00    +0.000 A 
ENDROOT
BRANCH   1   6
ATOM      6  C   UNL     1       6.792   4.630  13.816  0.00  0.00    +0.000 C 
ATOM      7  O   UNL     1       7.838   5.265  13.878  0.00  0.00    +0.000 OA
BRANCH   6   8
ATOM      8  O   UNL     1       6.215   4.203  12.657  0.00  0.00    +0.000 OA
BRANCH   8  10
ATOM      9  C   UNL     1       5.621   2.236  11.445  0.00  0.00    +0.000 C 
ATOM     10  C   UNL     1       6.757   2.998  12.107  0.00  0.00    +0.000 C 
ENDBRANCH   8  10
ENDBRANCH   6   8
ENDBRANCH   1   6
BRANCH   5  11
ATOM     11  C   UNL     1       7.487   4.900  16.906  0.00  0.00    +0.000 C 
ATOM     12  O   UNL     1       8.328   4.207  17.458  0.00  0.00    +0.000 OA
BRANCH  11  13
ATOM     13  O   UNL     1       7.572   6.247  16.755  0.00  0.00    +0.000 OA
BRANCH  13  14
ATOM     14  C   UNL     1       7.798   6.989  17.965  0.00  0.00    +0.000 C 
ATOM     15  C   UNL     1       7.837   8.482  17.694  0.00  0.00    +0.000 C 
ENDBRANCH  13  14
ENDBRANCH  11  13
ENDBRANCH   5  11
BRANCH   4  16
ATOM     16  C   UNL     1       4.769   3.978  18.334  0.00  0.00    +0.000 C 
BRANCH  16  17
ATOM     17  C   UNL     1       4.298   5.291  18.917  0.00  0.00    +0.000 C 
ATOM     18  O   UNL     1       4.985   5.809  19.798  0.00  0.00    +0.000 OA
ATOM     19  N   UNL     1       3.076   5.780  18.465  0.00  0.00    +0.000 N 
ATOM     20  H   UNL     1       2.497   5.158  17.907  0.00  0.00    +0.000 HD
BRANCH  19  21
ATOM     21  C   UNL     1       2.529   7.069  18.740  0.00  0.00    +0.000 A 
ATOM     22  C   UNL     1       2.695   8.132  17.837  0.00  0.00    +0.000 A 
ATOM     23  C   UNL     1       2.119   9.381  18.060  0.00  0.00    +0.000 A 
ATOM     24  C   UNL     1       1.341   9.587  19.187  0.00  0.00    +0.000 A 
ATOM     25  C   UNL     1       1.160   8.551  20.106  0.00  0.00    +0.000 A 
ATOM     26 CL   UNL     1       0.151   8.916  21.466  0.00  0.00    +0.000 Cl
ATOM     27  C   UNL     1       1.765   7.285  19.918  0.00  0.00    +0.000 A 
ATOM     28  C   UNL     1       1.629   6.204  20.961  0.00  0.00    +0.000 C 
ENDBRANCH  19  21
ENDBRANCH  16  17
ENDBRANCH   4  16
TORSDOF 9
ENDMDL
MODEL 8
REMARK VINA RESULT:      -6.9      2.236      3.848
REMARK  Name = 
REMARK  12 active torsions:
REMARK  status: ('A' for Active; 'I' for Inactive)
REMARK    1  A    between atoms: C_1  and  C_2
REMARK    2  A    between atoms: C_2  and  O_3
REMARK    3  A    between atoms: O_3  and  C_4
REMARK    4  A    between atoms: C_4  and  C_6
REMARK    5  A    between atoms: N_9  and  C_10
REMARK    6  A    between atoms: C_10  and  C_11
REMARK    7  A    between atoms: N_13  and  C_14
REMARK    8  A    between atoms: C_20  and  C_21
REMARK    9  A    between atoms: C_22  and  C_23
REMARK   10  A    between atoms: C_23  and  O_25
REMARK   11  A    between atoms: O_25  and  C_26
REMARK   12  A    between atoms: C_26  and  C_27
REMARK                            x       y       z     vdW  Elec       q    Type
REMARK                         _______ _______ _______ _____ _____    ______ ____
ROOT
ATOM      1  C   UNL     1       5.746   5.628  17.459  0.00  0.00    +0.000 A 
ATOM      2  N   UNL     1       5.685   6.979  17.217  0.00  0.00    +0.000 NA
ATOM      3  N   UNL     1       4.447   7.383  17.433  0.00  0.00    +0.000 NA
ATOM      4  N   UNL     1       3.724   6.311  17.805  0.00  0.00    +0.000 N 
ATOM      5  C   UNL     1       4.495   5.176  17.856  0.00  0.00    +0.000 A 
ENDROOT
BRANCH   1   6
ATOM      6  C   UNL     1       6.981   4.873  17.354  0.00  0.00    +0.000 C 
ATOM      7  O   UNL     1       7.665   4.532  18.312  0.00  0.00    +0.000 OA
BRANCH   6   8
ATOM      8  O   UNL     1       7.322   4.668  16.051  0.00  0.00    +0.000 OA
BRANCH   8  10
ATOM      9  C   UNL     1       5.753   4.417  14.271  0.00  0.00    +0.000 C 
ATOM     10  C   UNL     1       6.538   3.695  15.354  0.00  0.00    +0.000 C 
ENDBRANCH   8  10
ENDBRANCH   6   8
ENDBRANCH   1   6
BRANCH   5  11
ATOM     11  C   UNL     1       4.121   3.868  18.311  0.00  0.00    +0.000 C 
ATOM     12  O   UNL     1       3.869   2.917  17.588  0.00  0.00    +0.000 OA
BRANCH  11  13
ATOM     13  O   UNL     1       4.104   3.834  19.669  0.00  0.00    +0.000 OA
BRANCH  13  14
ATOM     14  C   UNL     1       3.050   3.049  20.252  0.00  0.00    +0.000 C 
ATOM     15  C   UNL     1       1.883   3.924  20.672  0.00  0.00    +0.000 C 
ENDBRANCH  13  14
ENDBRANCH  11  13
ENDBRANCH   5  11
BRANCH   4  16
ATOM     16  C   UNL     1       2.342   6.531  18.165  0.00  0.00    +0.000 C 
BRANCH  16  17
ATOM     17  C   UNL     1       2.050   7.889  18.763  0.00  0.00    +0.000 C 
ATOM     18  O   UNL     1       2.137   8.010  19.986  0.00  0.00    +0.000 OA
ATOM     19  N   UNL     1       1.630   8.886  17.889  0.00  0.00    +0.000 N 
ATOM     20  H   UNL     1       1.382   8.610  16.943  0.00  0.00    +0.000 HD
BRANCH  19  21
ATOM     21  C   UNL     1       1.474  10.271  18.200  0.00  0.00    +0.000 A 
ATOM     22  C   UNL     1       2.531  11.177  18.014  0.00  0.00    +0.000 A 
ATOM     23  C   UNL     1       2.380  12.541  18.256  0.00  0.00    +0.000 A 
ATOM     24  C   UNL     1       1.153  13.033  18.670  0.00  0.00    +0.000 A 
ATOM     25  C   UNL     1       0.084  12.156  18.869  0.00  0.00    +0.000 A 
ATOM     26 CL   UNL     1      -1.407  12.885  19.367  0.00  0.00    +0.000 Cl
ATOM     27  C   UNL     1       0.225  10.763  18.663  0.00  0.00    +0.000 A 
ATOM     28  C   UNL     1      -0.915   9.821  18.962  0.00  0.00    +0.000 C 
ENDBRANCH  19  21
ENDBRANCH  16  17
ENDBRANCH   4  16
TORSDOF 9
ENDMDL
MODEL 9
REMARK VINA RESULT:      -6.9      2.707      4.479
REMARK  Name = 
REMARK  12 active torsions:
REMARK  status: ('A' for Active; 'I' for Inactive)
REMARK    1  A    between atoms: C_1  and  C_2
REMARK    2  A    between atoms: C_2  and  O_3
REMARK    3  A    between atoms: O_3  and  C_4
REMARK    4  A    between atoms: C_4  and  C_6
REMARK    5  A    between atoms: N_9  and  C_10
REMARK    6  A    between atoms: C_10  and  C_11
REMARK    7  A    between atoms: N_13  and  C_14
REMARK    8  A    between atoms: C_20  and  C_21
REMARK    9  A    between atoms: C_22  and  C_23
REMARK   10  A    between atoms: C_23  and  O_25
REMARK   11  A    between atoms: O_25  and  C_26
REMARK   12  A    between atoms: C_26  and  C_27
REMARK                            x       y       z     vdW  Elec       q    Type
REMARK                         _______ _______ _______ _____ _____    ______ ____
ROOT
ATOM      1  C   UNL     1       3.553   4.643  19.425  0.00  0.00    +0.000 A 
ATOM      2  N   UNL     1       2.677   5.319  20.239  0.00  0.00    +0.000 NA
ATOM      3  N   UNL     1       2.453   6.508  19.709  0.00  0.00    +0.000 NA
ATOM      4  N   UNL     1       3.174   6.595  18.577  0.00  0.00    +0.000 N 
ATOM      5  C   UNL     1       3.877   5.441  18.336  0.00  0.00    +0.000 A 
ENDROOT
BRANCH   1   6
ATOM      6  C   UNL     1       3.978   3.282  19.697  0.00  0.00    +0.000 C 
ATOM      7  O   UNL     1       5.147   2.920  19.746  0.00  0.00    +0.000 OA
BRANCH   6   8
ATOM      8  O   UNL     1       2.906   2.447  19.807  0.00  0.00    +0.000 OA
BRANCH   8  10
ATOM      9  C   UNL     1       0.773   2.416  18.738  0.00  0.00    +0.000 C 
ATOM     10  C   UNL     1       2.254   2.116  18.577  0.00  0.00    +0.000 C 
ENDBRANCH   8  10
ENDBRANCH   6   8
ENDBRANCH   1   6
BRANCH   5  11
ATOM     11  C   UNL     1       4.665   5.105  17.185  0.00  0.00    +0.000 C 
ATOM     12  O   UNL     1       4.366   4.266  16.349  0.00  0.00    +0.000 OA
BRANCH  11  13
ATOM     13  O   UNL     1       5.788   5.867  17.150  0.00  0.00    +0.000 OA
BRANCH  13  14
ATOM     14  C   UNL     1       6.900   5.361  17.907  0.00  0.00    +0.000 C 
ATOM     15  C   UNL     1       7.772   6.491  18.424  0.00  0.00    +0.000 C 
ENDBRANCH  13  14
ENDBRANCH  11  13
ENDBRANCH   5  11
BRANCH   4  16
ATOM     16  C   UNL     1       3.028   7.795  17.784  0.00  0.00    +0.000 C 
BRANCH  16  17
ATOM     17  C   UNL     1       1.821   8.639  18.128  0.00  0.00    +0.000 C 
ATOM     18  O   UNL     1       0.813   8.510  17.433  0.00  0.00    +0.000 OA
ATOM     19  N   UNL     1       1.967   9.558  19.162  0.00  0.00    +0.000 N 
ATOM     20  H   UNL     1       2.906   9.729  19.511  0.00  0.00    +0.000 HD
BRANCH  19  21
ATOM     21  C   UNL     1       0.924  10.321  19.767  0.00  0.00    +0.000 A 
ATOM     22  C   UNL     1       0.235  11.307  19.040  0.00  0.00    +0.000 A 
ATOM     23  C   UNL     1      -0.826  12.021  19.594  0.00  0.00    +0.000 A 
ATOM     24  C   UNL     1      -1.237  11.746  20.888  0.00  0.00    +0.000 A 
ATOM     25  C   UNL     1      -0.569  10.775  21.638  0.00  0.00    +0.000 A 
ATOM     26 CL   UNL     1      -1.183  10.500  23.235  0.00  0.00    +0.000 Cl
ATOM     27  C   UNL     1       0.533  10.062  21.107  0.00  0.00    +0.000 A 
ATOM     28  C   UNL     1       1.295   9.076  21.958  0.00  0.00    +0.000 C 
ENDBRANCH  19  21
ENDBRANCH  16  17
ENDBRANCH   4  16
TORSDOF 9
ENDMDL
