MODEL 1
REMARK VINA RESULT:      -8.3      0.000      0.000
REMARK  Name = 
REMARK  6 active torsions:
REMARK  status: ('A' for Active; 'I' for Inactive)
REMARK    1  A    between atoms: C_1  and  C_2
REMARK    2  A    between atoms: N_4  and  C_5
REMARK    3  A    between atoms: C_7  and  C_8
REMARK    4  A    between atoms: C_12  and  C_13
REMARK    5  A    between atoms: C_13  and  N_14
REMARK    6  A    between atoms: C_21  and  C_22
REMARK                            x       y       z     vdW  Elec       q    Type
REMARK                         _______ _______ _______ _____ _____    ______ ____
ROOT
ATOM      1  C   UNL     1       3.024   3.258  18.647  0.00  0.00    +0.000 C 
ATOM      2  C   UNL     1       1.995   4.147  17.962  0.00  0.00    +0.000 C 
ATOM      3  C   UNL     1       2.527   5.486  17.457  0.00  0.00    +0.000 C 
ATOM      4  O   UNL     1       3.782   5.437  16.801  0.00  0.00    +0.000 OA
ATOM      5  C   UNL     1       4.818   4.574  17.265  0.00  0.00    +0.000 C 
ATOM      6  C   UNL     1       4.338   3.240  17.867  0.00  0.00    +0.000 C 
ENDROOT
BRANCH   3   7
ATOM      7  C   UNL     1       2.329   6.580  18.501  0.00  0.00    +0.000 A 
ATOM      8  C   UNL     1       2.176   6.294  19.858  0.00  0.00    +0.000 A 
ATOM      9  C   UNL     1       1.759   7.282  20.751  0.00  0.00    +0.000 A 
ATOM     10  C   UNL     1       1.483   8.573  20.301  0.00  0.00    +0.000 A 
ATOM     11  C   UNL     1       1.649   8.905  18.952  0.00  0.00    +0.000 A 
ATOM     12  C   UNL     1       2.105   7.908  18.071  0.00  0.00    +0.000 A 
BRANCH  11  13
ATOM     13  C   UNL     1       1.382  10.309  18.455  0.00  0.00    +0.000 C 
BRANCH  13  14
ATOM     14  N   UNL     1       0.009  10.807  18.561  0.00  0.00    +0.000 N 
ATOM     15  C   UNL     1      -0.510  11.845  19.287  0.00  0.00    +0.000 A 
ATOM     16  C   UNL     1      -1.876  11.813  19.095  0.00  0.00    +0.000 A 
ATOM     17  C   UNL     1      -2.092  10.731  18.229  0.00  0.00    +0.000 A 
ATOM     18  N   UNL     1      -0.955  10.117  17.895  0.00  0.00    +0.000 NA
ENDBRANCH  13  14
ENDBRANCH  11  13
ENDBRANCH   3   7
BRANCH   5  19
ATOM     19  C   UNL     1       5.946   5.379  17.910  0.00  0.00    +0.000 A 
ATOM     20  C   UNL     1       6.581   5.013  19.105  0.00  0.00    +0.000 A 
ATOM     21  C   UNL     1       7.683   5.738  19.583  0.00  0.00    +0.000 A 
ATOM     22  C   UNL     1       8.177   6.829  18.873  0.00  0.00    +0.000 A 
ATOM     23  C   UNL     1       7.575   7.197  17.676  0.00  0.00    +0.000 A 
ATOM     24  C   UNL     1       6.476   6.477  17.201  0.00  0.00    +0.000 A 
ENDBRANCH   5  19
BRANCH   1  28
ATOM     25  C   UNL     1       0.957   2.807  20.858  0.00  0.00    +0.000 C 
ATOM     26  C   UNL     1       2.371   3.255  21.112  0.00  0.00    +0.000 C 
ATOM     27  O   UNL     1       2.787   3.417  22.263  0.00  0.00    +0.000 OA
ATOM     28  N   UNL     1       3.215   3.514  20.072  0.00  0.00    +0.000 N 
ATOM     29  H   UNL     1       4.141   3.759  20.402  0.00  0.00    +0.000 HD
ENDBRANCH   1  28
TORSDOF 5
ENDMDL
MODEL 2
REMARK VINA RESULT:      -8.0      0.586      1.248
REMARK  Name = 
REMARK  6 active torsions:
REMARK  status: ('A' for Active; 'I' for Inactive)
REMARK    1  A    between atoms: C_1  and  C_2
REMARK    2  A    between atoms: N_4  and  C_5
REMARK    3  A    between atoms: C_7  and  C_8
REMARK    4  A    between atoms: C_12  and  C_13
REMARK    5  A    between atoms: C_13  and  N_14
REMARK    6  A    between atoms: C_21  and  C_22
REMARK                            x       y       z     vdW  Elec       q    Type
REMARK                         _______ _______ _______ _____ _____    ______ ____
ROOT
ATOM      1  C   UNL     1       2.916   2.858  18.710  0.00  0.00    +0.000 C 
ATOM      2  C   UNL     1       1.873   3.743  18.040  0.00  0.00    +0.000 C 
ATOM      3  C   UNL     1       2.411   5.035  17.429  0.00  0.00    +0.000 C 
ATOM      4  O   UNL     1       3.621   4.910  16.703  0.00  0.00    +0.000 OA
ATOM      5  C   UNL     1       4.658   4.039  17.151  0.00  0.00    +0.000 C 
ATOM      6  C   UNL     1       4.177   2.756  17.854  0.00  0.00    +0.000 C 
ENDROOT
BRANCH   3   7
ATOM      7  C   UNL     1       2.311   6.190  18.421  0.00  0.00    +0.000 A 
ATOM      8  C   UNL     1       2.135   5.981  19.789  0.00  0.00    +0.000 A 
ATOM      9  C   UNL     1       1.808   7.042  20.634  0.00  0.00    +0.000 A 
ATOM     10  C   UNL     1       1.645   8.331  20.124  0.00  0.00    +0.000 A 
ATOM     11  C   UNL     1       1.839   8.584  18.761  0.00  0.00    +0.000 A 
ATOM     12  C   UNL     1       2.205   7.510  17.930  0.00  0.00    +0.000 A 
BRANCH  11  13
ATOM     13  C   UNL     1       1.696   9.981  18.199  0.00  0.00    +0.000 C 
BRANCH  13  14
ATOM     14  N   UNL     1       0.457  10.701  18.500  0.00  0.00    +0.000 N 
ATOM     15  C   UNL     1      -0.849  10.359  18.279  0.00  0.00    +0.000 A 
ATOM     16  C   UNL     1      -1.610  11.443  18.666  0.00  0.00    +0.000 A 
ATOM     17  C   UNL     1      -0.679  12.390  19.120  0.00  0.00    +0.000 A 
ATOM     18  N   UNL     1       0.577  11.948  19.028  0.00  0.00    +0.000 NA
ENDBRANCH  13  14
ENDBRANCH  11  13
ENDBRANCH   3   7
BRANCH   5  19
ATOM     19  C   UNL     1       5.847   4.839  17.680  0.00  0.00    +0.000 A 
ATOM     20  C   UNL     1       6.566   5.768  16.914  0.00  0.00    +0.000 A 
ATOM     21  C   UNL     1       7.578   6.547  17.495  0.00  0.00    +0.000 A 
ATOM     22  C   UNL     1       7.882   6.423  18.847  0.00  0.00    +0.000 A 
ATOM     23  C   UNL     1       7.169   5.522  19.630  0.00  0.00    +0.000 A 
ATOM     24  C   UNL     1       6.163   4.744  19.051  0.00  0.00    +0.000 A 
ENDBRANCH   5  19
BRANCH   1  28
ATOM     25  C   UNL     1       0.944   2.702  21.046  0.00  0.00    +0.000 C 
ATOM     26  C   UNL     1       2.400   3.055  21.200  0.00  0.00    +0.000 C 
ATOM     27  O   UNL     1       2.889   3.252  22.316  0.00  0.00    +0.000 OA
ATOM     28  N   UNL     1       3.202   3.185  20.104  0.00  0.00    +0.000 N 
ATOM     29  H   UNL     1       4.161   3.377  20.372  0.00  0.00    +0.000 HD
ENDBRANCH   1  28
TORSDOF 5
ENDMDL
MODEL 3
REMARK VINA RESULT:      -7.8      1.155      1.602
REMARK  Name = 
REMARK  6 active torsions:
REMARK  status: ('A' for Active; 'I' for Inactive)
REMARK    1  A    between atoms: C_1  and  C_2
REMARK    2  A    between atoms: N_4  and  C_5
REMARK    3  A    between atoms: C_7  and  C_8
REMARK    4  A    between atoms: C_12  and  C_13
REMARK    5  A    between atoms: C_13  and  N_14
REMARK    6  A    between atoms: C_21  and  C_22
REMARK                            x       y       z     vdW  Elec       q    Type
REMARK                         _______ _______ _______ _____ _____    ______ ____
ROOT
ATOM      1  C   UNL     1       3.032   3.416  18.601  0.00  0.00    +0.000 C 
ATOM      2  C   UNL     1       2.025   4.302  17.879  0.00  0.00    +0.000 C 
ATOM      3  C   UNL     1       2.579   5.629  17.365  0.00  0.00    +0.000 C 
ATOM      4  O   UNL     1       3.848   5.560  16.739  0.00  0.00    +0.000 OA
ATOM      5  C   UNL     1       4.866   4.697  17.240  0.00  0.00    +0.000 C 
ATOM      6  C   UNL     1       4.362   3.376  17.852  0.00  0.00    +0.000 C 
ENDROOT
BRANCH   3   7
ATOM      7  C   UNL     1       2.366   6.741  18.387  0.00  0.00    +0.000 A 
ATOM      8  C   UNL     1       2.377   6.499  19.761  0.00  0.00    +0.000 A 
ATOM      9  C   UNL     1       1.945   7.476  20.659  0.00  0.00    +0.000 A 
ATOM     10  C   UNL     1       1.488   8.711  20.197  0.00  0.00    +0.000 A 
ATOM     11  C   UNL     1       1.487   9.000  18.828  0.00  0.00    +0.000 A 
ATOM     12  C   UNL     1       1.961   8.018  17.939  0.00  0.00    +0.000 A 
BRANCH  11  13
ATOM     13  C   UNL     1       1.024  10.345  18.315  0.00  0.00    +0.000 C 
BRANCH  13  14
ATOM     14  N   UNL     1       1.520  11.535  19.010  0.00  0.00    +0.000 N 
ATOM     15  C   UNL     1       1.159  12.081  20.212  0.00  0.00    +0.000 A 
ATOM     16  C   UNL     1       1.874  13.254  20.341  0.00  0.00    +0.000 A 
ATOM     17  C   UNL     1       2.650  13.330  19.175  0.00  0.00    +0.000 A 
ATOM     18  N   UNL     1       2.446  12.291  18.363  0.00  0.00    +0.000 NA
ENDBRANCH  13  14
ENDBRANCH  11  13
ENDBRANCH   3   7
BRANCH   5  19
ATOM     19  C   UNL     1       5.986   5.502  17.898  0.00  0.00    +0.000 A 
ATOM     20  C   UNL     1       6.658   5.100  19.061  0.00  0.00    +0.000 A 
ATOM     21  C   UNL     1       7.750   5.833  19.549  0.00  0.00    +0.000 A 
ATOM     22  C   UNL     1       8.197   6.969  18.881  0.00  0.00    +0.000 A 
ATOM     23  C   UNL     1       7.559   7.376  17.715  0.00  0.00    +0.000 A 
ATOM     24  C   UNL     1       6.469   6.647  17.231  0.00  0.00    +0.000 A 
ENDBRANCH   5  19
BRANCH   1  28
ATOM     25  C   UNL     1       0.990   2.817  20.801  0.00  0.00    +0.000 C 
ATOM     26  C   UNL     1       2.363   3.374  21.062  0.00  0.00    +0.000 C 
ATOM     27  O   UNL     1       2.758   3.573  22.215  0.00  0.00    +0.000 OA
ATOM     28  N   UNL     1       3.191   3.693  20.025  0.00  0.00    +0.000 N 
ATOM     29  H   UNL     1       4.094   4.010  20.361  0.00  0.00    +0.000 HD
ENDBRANCH   1  28
TORSDOF 5
ENDMDL
MODEL 4
REMARK VINA RESULT:      -7.8      5.051      9.360
REMARK  Name = 
REMARK  6 active torsions:
REMARK  status: ('A' for Active; 'I' for Inactive)
REMARK    1  A    between atoms: C_1  and  C_2
REMARK    2  A    between atoms: N_4  and  C_5
REMARK    3  A    between atoms: C_7  and  C_8
REMARK    4  A    between atoms: C_12  and  C_13
REMARK    5  A    between atoms: C_13  and  N_14
REMARK    6  A    between atoms: C_21  and  C_22
REMARK                            x       y       z     vdW  Elec       q    Type
REMARK                         _______ _______ _______ _____ _____    ______ ____
ROOT
ATOM      1  C   UNL     1       0.246  11.469  21.101  0.00  0.00    +0.000 C 
ATOM      2  C   UNL     1       0.166  11.815  19.620  0.00  0.00    +0.000 C 
ATOM      3  C   UNL     1      -1.101  12.551  19.193  0.00  0.00    +0.000 C 
ATOM      4  O   UNL     1      -1.526  13.590  20.057  0.00  0.00    +0.000 OA
ATOM      5  C   UNL     1      -1.420  13.455  21.473  0.00  0.00    +0.000 C 
ATOM      6  C   UNL     1      -0.204  12.646  21.964  0.00  0.00    +0.000 C 
ENDROOT
BRANCH   3   7
ATOM      7  C   UNL     1      -2.164  11.570  18.709  0.00  0.00    +0.000 A 
ATOM      8  C   UNL     1      -1.840  10.413  18.001  0.00  0.00    +0.000 A 
ATOM      9  C   UNL     1      -2.833   9.665  17.367  0.00  0.00    +0.000 A 
ATOM     10  C   UNL     1      -4.168  10.066  17.425  0.00  0.00    +0.000 A 
ATOM     11  C   UNL     1      -4.536  11.206  18.147  0.00  0.00    +0.000 A 
ATOM     12  C   UNL     1      -3.527  11.928  18.811  0.00  0.00    +0.000 A 
BRANCH  11  13
ATOM     13  C   UNL     1      -5.983  11.635  18.245  0.00  0.00    +0.000 C 
BRANCH  13  14
ATOM     14  N   UNL     1      -6.784  11.051  19.322  0.00  0.00    +0.000 N 
ATOM     15  C   UNL     1      -7.359  11.630  20.421  0.00  0.00    +0.000 A 
ATOM     16  C   UNL     1      -7.917  10.606  21.158  0.00  0.00    +0.000 A 
ATOM     17  C   UNL     1      -7.642   9.444  20.422  0.00  0.00    +0.000 A 
ATOM     18  N   UNL     1      -6.959   9.703  19.304  0.00  0.00    +0.000 NA
ENDBRANCH  13  14
ENDBRANCH  11  13
ENDBRANCH   3   7
BRANCH   5  19
ATOM     19  C   UNL     1      -2.799  13.283  22.106  0.00  0.00    +0.000 A 
ATOM     20  C   UNL     1      -3.053  12.462  23.215  0.00  0.00    +0.000 A 
ATOM     21  C   UNL     1      -4.321  12.435  23.813  0.00  0.00    +0.000 A 
ATOM     22  C   UNL     1      -5.353  13.233  23.325  0.00  0.00    +0.000 A 
ATOM     23  C   UNL     1      -5.119  14.068  22.240  0.00  0.00    +0.000 A 
ATOM     24  C   UNL     1      -3.857  14.093  21.642  0.00  0.00    +0.000 A 
ENDBRANCH   5  19
BRANCH   1  28
ATOM     25  C   UNL     1       1.365   8.658  20.637  0.00  0.00    +0.000 C 
ATOM     26  C   UNL     1       0.087   8.939  21.381  0.00  0.00    +0.000 C 
ATOM     27  O   UNL     1      -0.561   8.023  21.896  0.00  0.00    +0.000 OA
ATOM     28  N   UNL     1      -0.394  10.212  21.479  0.00  0.00    +0.000 N 
ATOM     29  H   UNL     1      -1.233  10.245  22.047  0.00  0.00    +0.000 HD
ENDBRANCH   1  28
TORSDOF 5
ENDMDL
MODEL 5
REMARK VINA RESULT:      -7.7      0.938      1.006
REMARK  Name = 
REMARK  6 active torsions:
REMARK  status: ('A' for Active; 'I' for Inactive)
REMARK    1  A    between atoms: C_1  and  C_2
REMARK    2  A    between atoms: N_4  and  C_5
REMARK    3  A    between atoms: C_7  and  C_8
REMARK    4  A    between atoms: C_12  and  C_13
REMARK    5  A    between atoms: C_13  and  N_14
REMARK    6  A    between atoms: C_21  and  C_22
REMARK                            x       y       z     vdW  Elec       q    Type
REMARK                         _______ _______ _______ _____ _____    ______ ____
ROOT
ATOM      1  C   UNL     1       2.561   2.542  18.829  0.00  0.00    +0.000 C 
ATOM      2  C   UNL     1       1.549   3.486  18.195  0.00  0.00    +0.000 C 
ATOM      3  C   UNL     1       2.141   4.746  17.567  0.00  0.00    +0.000 C 
ATOM      4  O   UNL     1       3.316   4.553  16.800  0.00  0.00    +0.000 OA
ATOM      5  C   UNL     1       4.316   3.623  17.214  0.00  0.00    +0.000 C 
ATOM      6  C   UNL     1       3.786   2.369  17.933  0.00  0.00    +0.000 C 
ENDROOT
BRANCH   3   7
ATOM      7  C   UNL     1       2.140   5.903  18.561  0.00  0.00    +0.000 A 
ATOM      8  C   UNL     1       1.928   5.709  19.926  0.00  0.00    +0.000 A 
ATOM      9  C   UNL     1       1.694   6.794  20.771  0.00  0.00    +0.000 A 
ATOM     10  C   UNL     1       1.662   8.093  20.264  0.00  0.00    +0.000 A 
ATOM     11  C   UNL     1       1.895   8.330  18.904  0.00  0.00    +0.000 A 
ATOM     12  C   UNL     1       2.166   7.228  18.073  0.00  0.00    +0.000 A 
BRANCH  11  13
ATOM     13  C   UNL     1       1.893   9.735  18.346  0.00  0.00    +0.000 C 
BRANCH  13  14
ATOM     14  N   UNL     1       0.627  10.472  18.389  0.00  0.00    +0.000 N 
ATOM     15  C   UNL     1       0.317  11.679  18.954  0.00  0.00    +0.000 A 
ATOM     16  C   UNL     1      -1.041  11.854  18.784  0.00  0.00    +0.000 A 
ATOM     17  C   UNL     1      -1.467  10.709  18.095  0.00  0.00    +0.000 A 
ATOM     18  N   UNL     1      -0.462   9.866  17.846  0.00  0.00    +0.000 NA
ENDBRANCH  13  14
ENDBRANCH  11  13
ENDBRANCH   3   7
BRANCH   5  19
ATOM     19  C   UNL     1       5.566   4.353  17.703  0.00  0.00    +0.000 A 
ATOM     20  C   UNL     1       5.659   4.997  18.945  0.00  0.00    +0.000 A 
ATOM     21  C   UNL     1       6.872   5.554  19.377  0.00  0.00    +0.000 A 
ATOM     22  C   UNL     1       8.014   5.466  18.586  0.00  0.00    +0.000 A 
ATOM     23  C   UNL     1       7.951   4.814  17.360  0.00  0.00    +0.000 A 
ATOM     24  C   UNL     1       6.741   4.263  16.929  0.00  0.00    +0.000 A 
ENDBRANCH   5  19
BRANCH   1  28
ATOM     25  C   UNL     1       0.648   2.558  21.219  0.00  0.00    +0.000 C 
ATOM     26  C   UNL     1       2.132   2.789  21.331  0.00  0.00    +0.000 C 
ATOM     27  O   UNL     1       2.666   2.950  22.432  0.00  0.00    +0.000 OA
ATOM     28  N   UNL     1       2.912   2.848  20.213  0.00  0.00    +0.000 N 
ATOM     29  H   UNL     1       3.890   2.961  20.454  0.00  0.00    +0.000 HD
ENDBRANCH   1  28
TORSDOF 5
ENDMDL
MODEL 6
REMARK VINA RESULT:      -7.7      3.269      7.819
REMARK  Name = 
REMARK  6 active torsions:
REMARK  status: ('A' for Active; 'I' for Inactive)
REMARK    1  A    between atoms: C_1  and  C_2
REMARK    2  A    between atoms: N_4  and  C_5
REMARK    3  A    between atoms: C_7  and  C_8
REMARK    4  A    between atoms: C_12  and  C_13
REMARK    5  A    between atoms: C_13  and  N_14
REMARK    6  A    between atoms: C_21  and  C_22
REMARK                            x       y       z     vdW  Elec       q    Type
REMARK                         _______ _______ _______ _____ _____    ______ ____
ROOT
ATOM      1  C   UNL     1      -1.529  11.200  19.813  0.00  0.00    +0.000 C 
ATOM      2  C   UNL     1      -1.053  10.003  20.626  0.00  0.00    +0.000 C 
ATOM      3  C   UNL     1       0.424  10.025  21.012  0.00  0.00    +0.000 C 
ATOM      4  O   UNL     1       0.918  11.272  21.468  0.00  0.00    +0.000 OA
ATOM      5  C   UNL     1       0.486  12.493  20.871  0.00  0.00    +0.000 C 
ATOM      6  C   UNL     1      -0.974  12.504  20.382  0.00  0.00    +0.000 C 
ENDROOT
BRANCH   3   7
ATOM      7  C   UNL     1       1.267   9.277  19.984  0.00  0.00    +0.000 A 
ATOM      8  C   UNL     1       1.361   9.692  18.655  0.00  0.00    +0.000 A 
ATOM      9  C   UNL     1       1.936   8.864  17.691  0.00  0.00    +0.000 A 
ATOM     10  C   UNL     1       2.423   7.603  18.038  0.00  0.00    +0.000 A 
ATOM     11  C   UNL     1       2.370   7.162  19.365  0.00  0.00    +0.000 A 
ATOM     12  C   UNL     1       1.820   8.024  20.331  0.00  0.00    +0.000 A 
BRANCH  11  13
ATOM     13  C   UNL     1       2.921   5.811  19.760  0.00  0.00    +0.000 C 
BRANCH  13  14
ATOM     14  N   UNL     1       2.086   4.639  19.484  0.00  0.00    +0.000 N 
ATOM     15  C   UNL     1       1.190   3.977  20.278  0.00  0.00    +0.000 A 
ATOM     16  C   UNL     1       0.757   2.885  19.554  0.00  0.00    +0.000 A 
ATOM     17  C   UNL     1       1.437   2.975  18.330  0.00  0.00    +0.000 A 
ATOM     18  N   UNL     1       2.242   4.037  18.276  0.00  0.00    +0.000 NA
ENDBRANCH  13  14
ENDBRANCH  11  13
ENDBRANCH   3   7
BRANCH   5  19
ATOM     19  C   UNL     1       1.608  13.118  20.043  0.00  0.00    +0.000 A 
ATOM     20  C   UNL     1       1.546  13.297  18.654  0.00  0.00    +0.000 A 
ATOM     21  C   UNL     1       2.565  13.977  17.971  0.00  0.00    +0.000 A 
ATOM     22  C   UNL     1       3.656  14.499  18.661  0.00  0.00    +0.000 A 
ATOM     23  C   UNL     1       3.729  14.350  20.041  0.00  0.00    +0.000 A 
ATOM     24  C   UNL     1       2.715  13.671  20.720  0.00  0.00    +0.000 A 
ENDBRANCH   5  19
BRANCH   1  28
ATOM     25  C   UNL     1      -3.523  10.022  17.811  0.00  0.00    +0.000 C 
ATOM     26  C   UNL     1      -2.214  10.653  17.417  0.00  0.00    +0.000 C 
ATOM     27  O   UNL     1      -1.900  10.772  16.230  0.00  0.00    +0.000 OA
ATOM     28  N   UNL     1      -1.337  11.084  18.370  0.00  0.00    +0.000 N 
ATOM     29  H   UNL     1      -0.528  11.526  17.950  0.00  0.00    +0.000 HD
ENDBRANCH   1  28
TORSDOF 5
ENDMDL
MODEL 7
REMARK VINA RESULT:      -7.6      5.662      8.985
REMARK  Name = 
REMARK  6 active torsions:
REMARK  status: ('A' for Active; 'I' for Inactive)
REMARK    1  A    between atoms: C_1  and  C_2
REMARK    2  A    between atoms: N_4  and  C_5
REMARK    3  A    between atoms: C_7  and  C_8
REMARK    4  A    between atoms: C_12  and  C_13
REMARK    5  A    between atoms: C_13  and  N_14
REMARK    6  A    between atoms: C_21  and  C_22
REMARK                            x       y       z     vdW  Elec       q    Type
REMARK                         _______ _______ _______ _____ _____    ______ ____
ROOT
ATOM      1  C   UNL     1       0.602  11.082  20.237  0.00  0.00    +0.000 C 
ATOM      2  C   UNL     1       0.445  11.446  18.766  0.00  0.00    +0.000 C 
ATOM      3  C   UNL     1      -0.741  12.353  18.445  0.00  0.00    +0.000 C 
ATOM      4  O   UNL     1      -0.944  13.435  19.337  0.00  0.00    +0.000 OA
ATOM      5  C   UNL     1      -0.737  13.276  20.739  0.00  0.00    +0.000 C 
ATOM      6  C   UNL     1       0.392  12.305  21.129  0.00  0.00    +0.000 C 
ENDROOT
BRANCH   3   7
ATOM      7  C   UNL     1      -1.966  11.531  18.057  0.00  0.00    +0.000 A 
ATOM      8  C   UNL     1      -1.869  10.368  17.293  0.00  0.00    +0.000 A 
ATOM      9  C   UNL     1      -3.011   9.773  16.755  0.00  0.00    +0.000 A 
ATOM     10  C   UNL     1      -4.270  10.336  16.966  0.00  0.00    +0.000 A 
ATOM     11  C   UNL     1      -4.410  11.488  17.748  0.00  0.00    +0.000 A 
ATOM     12  C   UNL     1      -3.253  12.053  18.315  0.00  0.00    +0.000 A 
BRANCH  11  13
ATOM     13  C   UNL     1      -5.772  12.092  18.011  0.00  0.00    +0.000 C 
BRANCH  13  14
ATOM     14  N   UNL     1      -6.569  11.505  19.091  0.00  0.00    +0.000 N 
ATOM     15  C   UNL     1      -7.166  12.088  20.175  0.00  0.00    +0.000 A 
ATOM     16  C   UNL     1      -7.706  11.062  20.924  0.00  0.00    +0.000 A 
ATOM     17  C   UNL     1      -7.395   9.895  20.210  0.00  0.00    +0.000 A 
ATOM     18  N   UNL     1      -6.710  10.153  19.094  0.00  0.00    +0.000 NA
ENDBRANCH  13  14
ENDBRANCH  11  13
ENDBRANCH   3   7
BRANCH   5  19
ATOM     19  C   UNL     1      -2.069  13.291  21.488  0.00  0.00    +0.000 A 
ATOM     20  C   UNL     1      -3.178  14.054  21.096  0.00  0.00    +0.000 A 
ATOM     21  C   UNL     1      -4.404  13.937  21.767  0.00  0.00    +0.000 A 
ATOM     22  C   UNL     1      -4.550  13.050  22.829  0.00  0.00    +0.000 A 
ATOM     23  C   UNL     1      -3.470  12.269  23.223  0.00  0.00    +0.000 A 
ATOM     24  C   UNL     1      -2.248  12.388  22.557  0.00  0.00    +0.000 A 
ENDBRANCH   5  19
BRANCH   1  28
ATOM     25  C   UNL     1       1.452   9.031  22.344  0.00  0.00    +0.000 C 
ATOM     26  C   UNL     1       0.109   9.026  21.663  0.00  0.00    +0.000 C 
ATOM     27  O   UNL     1      -0.754   8.199  21.971  0.00  0.00    +0.000 OA
ATOM     28  N   UNL     1      -0.171   9.923  20.674  0.00  0.00    +0.000 N 
ATOM     29  H   UNL     1      -1.126   9.825  20.349  0.00  0.00    +0.000 HD
ENDBRANCH   1  28
TORSDOF 5
ENDMDL
MODEL 8
REMARK VINA RESULT:      -7.6      4.995      9.251
REMARK  Name = 
REMARK  6 active torsions:
REMARK  status: ('A' for Active; 'I' for Inactive)
REMARK    1  A    between atoms: C_1  and  C_2
REMARK    2  A    between atoms: N_4  and  C_5
REMARK    3  A    between atoms: C_7  and  C_8
REMARK    4  A    between atoms: C_12  and  C_13
REMARK    5  A    between atoms: C_13  and  N_14
REMARK    6  A    between atoms: C_21  and  C_22
REMARK                            x       y       z     vdW  Elec       q    Type
REMARK                         _______ _______ _______ _____ _____    ______ ____
ROOT
ATOM      1  C   UNL     1       0.413  11.275  20.771  0.00  0.00    +0.000 C 
ATOM      2  C   UNL     1       0.241  11.571  19.287  0.00  0.00    +0.000 C 
ATOM      3  C   UNL     1      -0.950  12.459  18.936  0.00  0.00    +0.000 C 
ATOM      4  O   UNL     1      -1.147  13.580  19.779  0.00  0.00    +0.000 OA
ATOM      5  C   UNL     1      -0.927  13.486  21.185  0.00  0.00    +0.000 C 
ATOM      6  C   UNL     1       0.209  12.536  21.608  0.00  0.00    +0.000 C 
ENDROOT
BRANCH   3   7
ATOM      7  C   UNL     1      -2.177  11.617  18.598  0.00  0.00    +0.000 A 
ATOM      8  C   UNL     1      -2.073  10.346  18.033  0.00  0.00    +0.000 A 
ATOM      9  C   UNL     1      -3.199   9.703  17.517  0.00  0.00    +0.000 A 
ATOM     10  C   UNL     1      -4.448  10.323  17.552  0.00  0.00    +0.000 A 
ATOM     11  C   UNL     1      -4.596  11.587  18.134  0.00  0.00    +0.000 A 
ATOM     12  C   UNL     1      -3.458  12.206  18.683  0.00  0.00    +0.000 A 
BRANCH  11  13
ATOM     13  C   UNL     1      -5.950  12.258  18.207  0.00  0.00    +0.000 C 
BRANCH  13  14
ATOM     14  N   UNL     1      -6.624  12.271  19.507  0.00  0.00    +0.000 N 
ATOM     15  C   UNL     1      -6.787  11.280  20.436  0.00  0.00    +0.000 A 
ATOM     16  C   UNL     1      -7.584  11.804  21.433  0.00  0.00    +0.000 A 
ATOM     17  C   UNL     1      -7.844  13.122  21.028  0.00  0.00    +0.000 A 
ATOM     18  N   UNL     1      -7.263  13.417  19.863  0.00  0.00    +0.000 NA
ENDBRANCH  13  14
ENDBRANCH  11  13
ENDBRANCH   3   7
BRANCH   5  19
ATOM     19  C   UNL     1      -2.251  13.532  21.946  0.00  0.00    +0.000 A 
ATOM     20  C   UNL     1      -3.315  14.382  21.612  0.00  0.00    +0.000 A 
ATOM     21  C   UNL     1      -4.542  14.295  22.285  0.00  0.00    +0.000 A 
ATOM     22  C   UNL     1      -4.735  13.353  23.292  0.00  0.00    +0.000 A 
ATOM     23  C   UNL     1      -3.701  12.487  23.627  0.00  0.00    +0.000 A 
ATOM     24  C   UNL     1      -2.477  12.576  22.959  0.00  0.00    +0.000 A 
ENDBRANCH   5  19
BRANCH   1  28
ATOM     25  C   UNL     1       1.355   8.363  20.859  0.00  0.00    +0.000 C 
ATOM     26  C   UNL     1       0.038   8.835  21.415  0.00  0.00    +0.000 C 
ATOM     27  O   UNL     1      -0.721   8.054  21.994  0.00  0.00    +0.000 OA
ATOM     28  N   UNL     1      -0.352  10.135  21.268  0.00  0.00    +0.000 N 
ATOM     29  H   UNL     1      -1.235  10.308  21.734  0.00  0.00    +0.000 HD
ENDBRANCH   1  28
TORSDOF 5
ENDMDL
MODEL 9
REMARK VINA RESULT:      -7.4      4.888      8.917
REMARK  Name = 
REMARK  6 active torsions:
REMARK  status: ('A' for Active; 'I' for Inactive)
REMARK    1  A    between atoms: C_1  and  C_2
REMARK    2  A    between atoms: N_4  and  C_5
REMARK    3  A    between atoms: C_7  and  C_8
REMARK    4  A    between atoms: C_12  and  C_13
REMARK    5  A    between atoms: C_13  and  N_14
REMARK    6  A    between atoms: C_21  and  C_22
REMARK                            x       y       z     vdW  Elec       q    Type
REMARK                         _______ _______ _______ _____ _____    ______ ____
ROOT
ATOM      1  C   UNL     1       0.667  11.029  20.447  0.00  0.00    +0.000 C 
ATOM      2  C   UNL     1       0.585  11.294  18.949  0.00  0.00    +0.000 C 
ATOM      3  C   UNL     1      -0.527  12.246  18.518  0.00  0.00    +0.000 C 
ATOM      4  O   UNL     1      -0.691  13.400  19.323  0.00  0.00    +0.000 OA
ATOM      5  C   UNL     1      -0.545  13.332  20.739  0.00  0.00    +0.000 C 
ATOM      6  C   UNL     1       0.505  12.324  21.242  0.00  0.00    +0.000 C 
ENDROOT
BRANCH   3   7
ATOM      7  C   UNL     1      -1.788  11.476  18.141  0.00  0.00    +0.000 A 
ATOM      8  C   UNL     1      -1.746  10.308  17.379  0.00  0.00    +0.000 A 
ATOM      9  C   UNL     1      -2.915   9.761  16.849  0.00  0.00    +0.000 A 
ATOM     10  C   UNL     1      -4.148  10.376  17.068  0.00  0.00    +0.000 A 
ATOM     11  C   UNL     1      -4.234  11.534  17.849  0.00  0.00    +0.000 A 
ATOM     12  C   UNL     1      -3.051  12.052  18.406  0.00  0.00    +0.000 A 
BRANCH  11  13
ATOM     13  C   UNL     1      -5.567  12.194  18.120  0.00  0.00    +0.000 C 
BRANCH  13  14
ATOM     14  N   UNL     1      -6.317  11.737  19.292  0.00  0.00    +0.000 N 
ATOM     15  C   UNL     1      -7.045  10.597  19.496  0.00  0.00    +0.000 A 
ATOM     16  C   UNL     1      -7.622  10.718  20.743  0.00  0.00    +0.000 A 
ATOM     17  C   UNL     1      -7.177  11.957  21.226  0.00  0.00    +0.000 A 
ATOM     18  N   UNL     1      -6.381  12.582  20.355  0.00  0.00    +0.000 NA
ENDBRANCH  13  14
ENDBRANCH  11  13
ENDBRANCH   3   7
BRANCH   5  19
ATOM     19  C   UNL     1      -1.899  13.484  21.432  0.00  0.00    +0.000 A 
ATOM     20  C   UNL     1      -2.506  12.472  22.189  0.00  0.00    +0.000 A 
ATOM     21  C   UNL     1      -3.698  12.715  22.888  0.00  0.00    +0.000 A 
ATOM     22  C   UNL     1      -4.296  13.972  22.855  0.00  0.00    +0.000 A 
ATOM     23  C   UNL     1      -3.701  14.995  22.127  0.00  0.00    +0.000 A 
ATOM     24  C   UNL     1      -2.516  14.752  21.429  0.00  0.00    +0.000 A 
ENDBRANCH   5  19
BRANCH   1  28
ATOM     25  C   UNL     1       1.532   8.160  21.071  0.00  0.00    +0.000 C 
ATOM     26  C   UNL     1       0.143   8.687  21.311  0.00  0.00    +0.000 C 
ATOM     27  O   UNL     1      -0.722   7.979  21.834  0.00  0.00    +0.000 OA
ATOM     28  N   UNL     1      -0.194   9.955  20.933  0.00  0.00    +0.000 N 
ATOM     29  H   UNL     1      -1.145  10.178  21.204  0.00  0.00    +0.000 HD
ENDBRANCH   1  28
TORSDOF 5
ENDMDL
