MODEL 1
REMARK VINA RESULT:      -7.3      0.000      0.000
REMARK  Name = 
REMARK  11 active torsions:
REMARK  status: ('A' for Active; 'I' for Inactive)
REMARK    1  A    between atoms: C_1  and  C_2
REMARK    2  A    between atoms: C_4  and  O_5
REMARK    3  A    between atoms: C_7  and  O_8
REMARK    4  A    between atoms: C_9  and  C_10
REMARK    5  A    between atoms: C_10  and  O_12
REMARK    6  A    between atoms: O_12  and  C_13
REMARK    7  A    between atoms: C_17  and  C_18
REMARK    8  A    between atoms: C_19  and  C_20
REMARK    9  A    between atoms: C_20  and  O_21
REMARK   10  A    between atoms: C_27  and  C_28
REMARK   11  A    between atoms: C_27  and  O_29
REMARK                            x       y       z     vdW  Elec       q    Type
REMARK                         _______ _______ _______ _____ _____    ______ ____
ROOT
ATOM      1  C   UNL     1       4.028   3.981  18.619  0.00  0.00    +0.000 C 
ATOM      2  C   UNL     1       3.156   4.971  19.350  0.00  0.00    +0.000 C 
ATOM      3  C   UNL     1       3.497   6.266  19.475  0.00  0.00    +0.000 C 
ATOM      4  O   UNL     1       2.714   7.223  20.083  0.00  0.00    +0.000 OA
ATOM      5  C   UNL     1       1.463   6.853  20.576  0.00  0.00    +0.000 C 
ATOM      6  C   UNL     1       1.021   5.583  20.522  0.00  0.00    +0.000 C 
ATOM      7  C   UNL     1       1.876   4.561  19.919  0.00  0.00    +0.000 C 
ATOM      8  C   UNL     1       1.450   3.290  19.867  0.00  0.00    +0.000 C 
ATOM      9  C   UNL     1       2.260   2.220  19.243  0.00  0.00    +0.000 C 
ATOM     10  O   UNL     1       1.733   1.122  19.045  0.00  0.00    +0.000 OA
ATOM     11  C   UNL     1       3.740   2.485  18.918  0.00  0.00    +0.000 C 
ATOM     12  C   UNL     1       4.531   2.024  20.149  0.00  0.00    +0.000 C 
ENDROOT
BRANCH   5  13
ATOM     13  C   UNL     1       0.688   7.939  21.146  0.00  0.00    +0.000 C 
ATOM     14  C   UNL     1       1.186   8.868  21.981  0.00  0.00    +0.000 C 
BRANCH  14  15
ATOM     15  C   UNL     1       0.399   9.986  22.572  0.00  0.00    +0.000 C 
BRANCH  15  16
ATOM     16  O   UNL     1      -0.158   9.540  23.797  0.00  0.00    +0.000 OA
ATOM     17  H   UNL     1       0.017   8.585  23.855  0.00  0.00    +0.000 HD
ENDBRANCH  15  16
ENDBRANCH  14  15
ENDBRANCH   5  13
BRANCH  11  18
ATOM     18  O   UNL     1       4.182   1.654  17.835  0.00  0.00    +0.000 OA
ATOM     19  H   UNL     1       4.795   1.005  18.234  0.00  0.00    +0.000 HD
ENDBRANCH  11  18
BRANCH   1  20
ATOM     20  O   UNL     1       4.080   4.319  17.204  0.00  0.00    +0.000 OA
BRANCH  20  21
ATOM     21  C   UNL     1       5.280   4.405  16.595  0.00  0.00    +0.000 C 
ATOM     22  O   UNL     1       5.716   3.581  15.802  0.00  0.00    +0.000 OA
BRANCH  21  29
ATOM     23  C   UNL     1       4.465   7.214  16.015  0.00  0.00    +0.000 C 
ATOM     24  C   UNL     1       5.728   6.872  16.765  0.00  0.00    +0.000 A 
ATOM     25  C   UNL     1       6.559   7.932  17.166  0.00  0.00    +0.000 A 
ATOM     26  C   UNL     1       7.694   7.682  17.927  0.00  0.00    +0.000 A 
ATOM     27  C   UNL     1       8.001   6.396  18.348  0.00  0.00    +0.000 A 
ATOM     28  C   UNL     1       7.196   5.330  17.946  0.00  0.00    +0.000 A 
ATOM     29  C   UNL     1       6.087   5.544  17.109  0.00  0.00    +0.000 A 
BRANCH  26  30
ATOM     30  O   UNL     1       8.532   8.691  18.301  0.00  0.00    +0.000 OA
ATOM     31  H   UNL     1       9.074   8.947  17.536  0.00  0.00    +0.000 HD
ENDBRANCH  26  30
BRANCH  28  32
ATOM     32  O   UNL     1       7.481   4.079  18.428  0.00  0.00    +0.000 OA
ATOM     33  H   UNL     1       8.443   3.939  18.407  0.00  0.00    +0.000 HD
ENDBRANCH  28  32
ENDBRANCH  21  29
ENDBRANCH  20  21
ENDBRANCH   1  20
TORSDOF 9
ENDMDL
MODEL 2
REMARK VINA RESULT:      -7.3      1.968      2.211
REMARK  Name = 
REMARK  11 active torsions:
REMARK  status: ('A' for Active; 'I' for Inactive)
REMARK    1  A    between atoms: C_1  and  C_2
REMARK    2  A    between atoms: C_4  and  O_5
REMARK    3  A    between atoms: C_7  and  O_8
REMARK    4  A    between atoms: C_9  and  C_10
REMARK    5  A    between atoms: C_10  and  O_12
REMARK    6  A    between atoms: O_12  and  C_13
REMARK    7  A    between atoms: C_17  and  C_18
REMARK    8  A    between atoms: C_19  and  C_20
REMARK    9  A    between atoms: C_20  and  O_21
REMARK   10  A    between atoms: C_27  and  C_28
REMARK   11  A    between atoms: C_27  and  O_29
REMARK                            x       y       z     vdW  Elec       q    Type
REMARK                         _______ _______ _______ _____ _____    ______ ____
ROOT
ATOM      1  C   UNL     1       3.903   3.957  19.605  0.00  0.00    +0.000 C 
ATOM      2  C   UNL     1       3.213   5.240  19.216  0.00  0.00    +0.000 C 
ATOM      3  C   UNL     1       3.457   6.401  19.850  0.00  0.00    +0.000 C 
ATOM      4  O   UNL     1       2.898   7.611  19.501  0.00  0.00    +0.000 OA
ATOM      5  C   UNL     1       2.047   7.666  18.398  0.00  0.00    +0.000 C 
ATOM      6  C   UNL     1       1.716   6.565  17.696  0.00  0.00    +0.000 C 
ATOM      7  C   UNL     1       2.275   5.275  18.099  0.00  0.00    +0.000 C 
ATOM      8  C   UNL     1       1.946   4.170  17.414  0.00  0.00    +0.000 C 
ATOM      9  C   UNL     1       2.503   2.842  17.758  0.00  0.00    +0.000 C 
ATOM     10  O   UNL     1       2.324   1.907  16.973  0.00  0.00    +0.000 OA
ATOM     11  C   UNL     1       3.228   2.652  19.101  0.00  0.00    +0.000 C 
ATOM     12  C   UNL     1       2.158   2.186  20.097  0.00  0.00    +0.000 C 
ENDROOT
BRANCH   5  13
ATOM     13  C   UNL     1       1.554   8.991  18.074  0.00  0.00    +0.000 C 
ATOM     14  C   UNL     1       0.900   9.787  18.937  0.00  0.00    +0.000 C 
BRANCH  14  15
ATOM     15  C   UNL     1       0.388  11.148  18.614  0.00  0.00    +0.000 C 
BRANCH  15  16
ATOM     16  O   UNL     1       1.469  11.928  18.130  0.00  0.00    +0.000 OA
ATOM     17  H   UNL     1       2.286  11.504  18.446  0.00  0.00    +0.000 HD
ENDBRANCH  15  16
ENDBRANCH  14  15
ENDBRANCH   5  13
BRANCH  11  18
ATOM     18  O   UNL     1       4.180   1.582  19.021  0.00  0.00    +0.000 OA
ATOM     19  H   UNL     1       3.713   0.789  19.349  0.00  0.00    +0.000 HD
ENDBRANCH  11  18
BRANCH   1  20
ATOM     20  O   UNL     1       5.327   4.054  19.316  0.00  0.00    +0.000 OA
BRANCH  20  21
ATOM     21  C   UNL     1       5.722   4.397  18.073  0.00  0.00    +0.000 C 
ATOM     22  O   UNL     1       5.613   3.681  17.088  0.00  0.00    +0.000 OA
BRANCH  21  29
ATOM     23  C   UNL     1       4.966   6.523  16.123  0.00  0.00    +0.000 C 
ATOM     24  C   UNL     1       6.124   6.670  17.077  0.00  0.00    +0.000 A 
ATOM     25  C   UNL     1       6.889   7.847  17.003  0.00  0.00    +0.000 A 
ATOM     26  C   UNL     1       7.918   8.071  17.909  0.00  0.00    +0.000 A 
ATOM     27  C   UNL     1       8.178   7.168  18.930  0.00  0.00    +0.000 A 
ATOM     28  C   UNL     1       7.440   5.987  19.008  0.00  0.00    +0.000 A 
ATOM     29  C   UNL     1       6.446   5.697  18.057  0.00  0.00    +0.000 A 
BRANCH  26  30
ATOM     30  O   UNL     1       8.693   9.191  17.836  0.00  0.00    +0.000 OA
ATOM     31  H   UNL     1       8.812   9.547  18.733  0.00  0.00    +0.000 HD
ENDBRANCH  26  30
BRANCH  28  32
ATOM     32  O   UNL     1       7.670   5.142  20.063  0.00  0.00    +0.000 OA
ATOM     33  H   UNL     1       8.230   4.404  19.765  0.00  0.00    +0.000 HD
ENDBRANCH  28  32
ENDBRANCH  21  29
ENDBRANCH  20  21
ENDBRANCH   1  20
TORSDOF 9
ENDMDL
MODEL 3
REMARK VINA RESULT:      -7.0      5.542      9.770
REMARK  Name = 
REMARK  11 active torsions:
REMARK  status: ('A' for Active; 'I' for Inactive)
REMARK    1  A    between atoms: C_1  and  C_2
REMARK    2  A    between atoms: C_4  and  O_5
REMARK    3  A    between atoms: C_7  and  O_8
REMARK    4  A    between atoms: C_9  and  C_10
REMARK    5  A    between atoms: C_10  and  O_12
REMARK    6  A    between atoms: O_12  and  C_13
REMARK    7  A    between atoms: C_17  and  C_18
REMARK    8  A    between atoms: C_19  and  C_20
REMARK    9  A    between atoms: C_20  and  O_21
REMARK   10  A    between atoms: C_27  and  C_28
REMARK   11  A    between atoms: C_27  and  O_29
REMARK                            x       y       z     vdW  Elec       q    Type
REMARK                         _______ _______ _______ _____ _____    ______ ____
ROOT
ATOM      1  C   UNL     1      -2.264  12.426  20.385  0.00  0.00    +0.000 C 
ATOM      2  C   UNL     1      -2.730  12.044  19.003  0.00  0.00    +0.000 C 
ATOM      3  C   UNL     1      -1.870  11.872  17.983  0.00  0.00    +0.000 C 
ATOM      4  O   UNL     1      -2.235  11.469  16.716  0.00  0.00    +0.000 OA
ATOM      5  C   UNL     1      -3.576  11.182  16.462  0.00  0.00    +0.000 C 
ATOM      6  C   UNL     1      -4.529  11.334  17.401  0.00  0.00    +0.000 C 
ATOM      7  C   UNL     1      -4.144  11.806  18.730  0.00  0.00    +0.000 C 
ATOM      8  C   UNL     1      -5.085  11.970  19.671  0.00  0.00    +0.000 C 
ATOM      9  C   UNL     1      -4.751  12.418  21.042  0.00  0.00    +0.000 C 
ATOM     10  O   UNL     1      -5.623  12.354  21.912  0.00  0.00    +0.000 OA
ATOM     11  C   UNL     1      -3.356  13.002  21.326  0.00  0.00    +0.000 C 
ATOM     12  C   UNL     1      -3.485  14.518  21.129  0.00  0.00    +0.000 C 
ENDROOT
BRANCH   5  13
ATOM     13  C   UNL     1      -3.853  10.711  15.119  0.00  0.00    +0.000 C 
ATOM     14  C   UNL     1      -2.983  10.020  14.363  0.00  0.00    +0.000 C 
BRANCH  14  15
ATOM     15  C   UNL     1      -3.258   9.534  12.982  0.00  0.00    +0.000 C 
BRANCH  15  16
ATOM     16  O   UNL     1      -2.038   9.532  12.259  0.00  0.00    +0.000 OA
ATOM     17  H   UNL     1      -1.914  10.433  11.914  0.00  0.00    +0.000 HD
ENDBRANCH  15  16
ENDBRANCH  14  15
ENDBRANCH   5  13
BRANCH  11  18
ATOM     18  O   UNL     1      -2.994  12.816  22.702  0.00  0.00    +0.000 OA
ATOM     19  H   UNL     1      -3.435  11.989  22.981  0.00  0.00    +0.000 HD
ENDBRANCH  11  18
BRANCH   1  20
ATOM     20  O   UNL     1      -1.477  11.343  20.958  0.00  0.00    +0.000 OA
BRANCH  20  21
ATOM     21  C   UNL     1      -0.153  11.521  21.140  0.00  0.00    +0.000 C 
ATOM     22  O   UNL     1       0.339  12.311  21.934  0.00  0.00    +0.000 OA
BRANCH  21  29
ATOM     23  C   UNL     1       1.394  12.938  19.021  0.00  0.00    +0.000 C 
ATOM     24  C   UNL     1       1.326  11.434  19.109  0.00  0.00    +0.000 A 
ATOM     25  C   UNL     1       1.993  10.689  18.122  0.00  0.00    +0.000 A 
ATOM     26  C   UNL     1       2.030   9.302  18.197  0.00  0.00    +0.000 A 
ATOM     27  C   UNL     1       1.457   8.631  19.268  0.00  0.00    +0.000 A 
ATOM     28  C   UNL     1       0.776   9.354  20.248  0.00  0.00    +0.000 A 
ATOM     29  C   UNL     1       0.654  10.751  20.155  0.00  0.00    +0.000 A 
BRANCH  26  30
ATOM     30  O   UNL     1       2.645   8.558  17.235  0.00  0.00    +0.000 OA
ATOM     31  H   UNL     1       2.052   8.486  16.468  0.00  0.00    +0.000 HD
ENDBRANCH  26  30
BRANCH  28  32
ATOM     32  O   UNL     1       0.274   8.676  21.329  0.00  0.00    +0.000 OA
ATOM     33  H   UNL     1      -0.325   9.261  21.824  0.00  0.00    +0.000 HD
ENDBRANCH  28  32
ENDBRANCH  21  29
ENDBRANCH  20  21
ENDBRANCH   1  20
TORSDOF 9
ENDMDL
MODEL 4
REMARK VINA RESULT:      -7.0      5.277      9.802
REMARK  Name = 
REMARK  11 active torsions:
REMARK  status: ('A' for Active; 'I' for Inactive)
REMARK    1  A    between atoms: C_1  and  C_2
REMARK    2  A    between atoms: C_4  and  O_5
REMARK    3  A    between atoms: C_7  and  O_8
REMARK    4  A    between atoms: C_9  and  C_10
REMARK    5  A    between atoms: C_10  and  O_12
REMARK    6  A    between atoms: O_12  and  C_13
REMARK    7  A    between atoms: C_17  and  C_18
REMARK    8  A    between atoms: C_19  and  C_20
REMARK    9  A    between atoms: C_20  and  O_21
REMARK   10  A    between atoms: C_27  and  C_28
REMARK   11  A    between atoms: C_27  and  O_29
REMARK                            x       y       z     vdW  Elec       q    Type
REMARK                         _______ _______ _______ _____ _____    ______ ____
ROOT
ATOM      1  C   UNL     1      -1.971  12.558  20.536  0.00  0.00    +0.000 C 
ATOM      2  C   UNL     1      -2.532  12.143  19.199  0.00  0.00    +0.000 C 
ATOM      3  C   UNL     1      -1.741  11.886  18.143  0.00  0.00    +0.000 C 
ATOM      4  O   UNL     1      -2.196  11.450  16.917  0.00  0.00    +0.000 OA
ATOM      5  C   UNL     1      -3.562  11.220  16.750  0.00  0.00    +0.000 C 
ATOM      6  C   UNL     1      -4.451  11.458  17.732  0.00  0.00    +0.000 C 
ATOM      7  C   UNL     1      -3.969  11.965  19.016  0.00  0.00    +0.000 C 
ATOM      8  C   UNL     1      -4.847  12.214  19.999  0.00  0.00    +0.000 C 
ATOM      9  C   UNL     1      -4.414  12.701  21.329  0.00  0.00    +0.000 C 
ATOM     10  O   UNL     1      -5.237  12.717  22.247  0.00  0.00    +0.000 OA
ATOM     11  C   UNL     1      -2.979  13.226  21.510  0.00  0.00    +0.000 C 
ATOM     12  C   UNL     1      -3.047  14.738  21.253  0.00  0.00    +0.000 C 
ENDROOT
BRANCH   5  13
ATOM     13  C   UNL     1      -3.937  10.709  15.446  0.00  0.00    +0.000 C 
ATOM     14  C   UNL     1      -3.061  10.312  14.506  0.00  0.00    +0.000 C 
BRANCH  14  15
ATOM     15  C   UNL     1      -3.437   9.788  13.164  0.00  0.00    +0.000 C 
BRANCH  15  16
ATOM     16  O   UNL     1      -2.247   9.487  12.454  0.00  0.00    +0.000 OA
ATOM     17  H   UNL     1      -1.905  10.329  12.108  0.00  0.00    +0.000 HD
ENDBRANCH  15  16
ENDBRANCH  14  15
ENDBRANCH   5  13
BRANCH  11  18
ATOM     18  O   UNL     1      -2.549  13.080  22.871  0.00  0.00    +0.000 OA
ATOM     19  H   UNL     1      -3.258  12.578  23.318  0.00  0.00    +0.000 HD
ENDBRANCH  11  18
BRANCH   1  20
ATOM     20  O   UNL     1      -1.205  11.462  21.113  0.00  0.00    +0.000 OA
BRANCH  20  21
ATOM     21  C   UNL     1       0.141  11.493  21.040  0.00  0.00    +0.000 C 
ATOM     22  O   UNL     1       0.821  12.499  21.189  0.00  0.00    +0.000 OA
BRANCH  21  29
ATOM     23  C   UNL     1       0.020   9.122  22.843  0.00  0.00    +0.000 C 
ATOM     24  C   UNL     1       0.707   9.088  21.501  0.00  0.00    +0.000 A 
ATOM     25  C   UNL     1       1.341   7.893  21.120  0.00  0.00    +0.000 A 
ATOM     26  C   UNL     1       1.922   7.780  19.863  0.00  0.00    +0.000 A 
ATOM     27  C   UNL     1       1.843   8.818  18.945  0.00  0.00    +0.000 A 
ATOM     28  C   UNL     1       1.232  10.016  19.313  0.00  0.00    +0.000 A 
ATOM     29  C   UNL     1       0.707  10.188  20.605  0.00  0.00    +0.000 A 
BRANCH  26  30
ATOM     30  O   UNL     1       2.570   6.642  19.483  0.00  0.00    +0.000 OA
ATOM     31  H   UNL     1       3.440   6.882  19.124  0.00  0.00    +0.000 HD
ENDBRANCH  26  30
BRANCH  28  32
ATOM     32  O   UNL     1       1.109  11.003  18.369  0.00  0.00    +0.000 OA
ATOM     33  H   UNL     1       0.694  10.633  17.571  0.00  0.00    +0.000 HD
ENDBRANCH  28  32
ENDBRANCH  21  29
ENDBRANCH  20  21
ENDBRANCH   1  20
TORSDOF 9
ENDMDL
MODEL 5
REMARK VINA RESULT:      -6.8      7.137     10.368
REMARK  Name = 
REMARK  11 active torsions:
REMARK  status: ('A' for Active; 'I' for Inactive)
REMARK    1  A    between atoms: C_1  and  C_2
REMARK    2  A    between atoms: C_4  and  O_5
REMARK    3  A    between atoms: C_7  and  O_8
REMARK    4  A    between atoms: C_9  and  C_10
REMARK    5  A    between atoms: C_10  and  O_12
REMARK    6  A    between atoms: O_12  and  C_13
REMARK    7  A    between atoms: C_17  and  C_18
REMARK    8  A    between atoms: C_19  and  C_20
REMARK    9  A    between atoms: C_20  and  O_21
REMARK   10  A    between atoms: C_27  and  C_28
REMARK   11  A    between atoms: C_27  and  O_29
REMARK                            x       y       z     vdW  Elec       q    Type
REMARK                         _______ _______ _______ _____ _____    ______ ____
ROOT
ATOM      1  C   UNL     1      -2.614  12.584  20.386  0.00  0.00    +0.000 C 
ATOM      2  C   UNL     1      -3.029  12.102  19.018  0.00  0.00    +0.000 C 
ATOM      3  C   UNL     1      -2.140  11.930  18.023  0.00  0.00    +0.000 C 
ATOM      4  O   UNL     1      -2.455  11.440  16.774  0.00  0.00    +0.000 OA
ATOM      5  C   UNL     1      -3.771  11.057  16.514  0.00  0.00    +0.000 C 
ATOM      6  C   UNL     1      -4.750  11.199  17.428  0.00  0.00    +0.000 C 
ATOM      7  C   UNL     1      -4.420  11.763  18.736  0.00  0.00    +0.000 C 
ATOM      8  C   UNL     1      -5.388  11.916  19.652  0.00  0.00    +0.000 C 
ATOM      9  C   UNL     1      -5.107  12.455  21.003  0.00  0.00    +0.000 C 
ATOM     10  O   UNL     1      -5.991  12.383  21.860  0.00  0.00    +0.000 OA
ATOM     11  C   UNL     1      -3.757  13.139  21.277  0.00  0.00    +0.000 C 
ATOM     12  C   UNL     1      -3.975  14.632  20.998  0.00  0.00    +0.000 C 
ENDROOT
BRANCH   5  13
ATOM     13  C   UNL     1      -3.993  10.501  15.193  0.00  0.00    +0.000 C 
ATOM     14  C   UNL     1      -3.013  10.184  14.330  0.00  0.00    +0.000 C 
BRANCH  14  15
ATOM     15  C   UNL     1      -3.231   9.615  12.971  0.00  0.00    +0.000 C 
BRANCH  15  16
ATOM     16  O   UNL     1      -1.973   9.501  12.328  0.00  0.00    +0.000 OA
ATOM     17  H   UNL     1      -1.301   9.789  12.970  0.00  0.00    +0.000 HD
ENDBRANCH  15  16
ENDBRANCH  14  15
ENDBRANCH   5  13
BRANCH  11  18
ATOM     18  O   UNL     1      -3.411  13.048  22.667  0.00  0.00    +0.000 OA
ATOM     19  H   UNL     1      -2.598  12.506  22.701  0.00  0.00    +0.000 HD
ENDBRANCH  11  18
BRANCH   1  20
ATOM     20  O   UNL     1      -1.774  11.583  21.029  0.00  0.00    +0.000 OA
BRANCH  20  21
ATOM     21  C   UNL     1      -0.574  11.953  21.522  0.00  0.00    +0.000 C 
ATOM     22  O   UNL     1      -0.329  12.104  22.711  0.00  0.00    +0.000 OA
BRANCH  21  29
ATOM     23  C   UNL     1       0.491   9.845  19.701  0.00  0.00    +0.000 C 
ATOM     24  C   UNL     1       0.941  11.283  19.631  0.00  0.00    +0.000 A 
ATOM     25  C   UNL     1       1.929  11.615  18.689  0.00  0.00    +0.000 A 
ATOM     26  C   UNL     1       2.326  12.937  18.526  0.00  0.00    +0.000 A 
ATOM     27  C   UNL     1       1.722  13.956  19.250  0.00  0.00    +0.000 A 
ATOM     28  C   UNL     1       0.751  13.642  20.200  0.00  0.00    +0.000 A 
ATOM     29  C   UNL     1       0.388  12.306  20.443  0.00  0.00    +0.000 A 
BRANCH  26  30
ATOM     30  O   UNL     1       3.305  13.278  17.641  0.00  0.00    +0.000 OA
ATOM     31  H   UNL     1       2.912  13.356  16.756  0.00  0.00    +0.000 HD
ENDBRANCH  26  30
BRANCH  28  32
ATOM     32  O   UNL     1       0.122  14.670  20.856  0.00  0.00    +0.000 OA
ATOM     33  H   UNL     1       0.717  15.438  20.891  0.00  0.00    +0.000 HD
ENDBRANCH  28  32
ENDBRANCH  21  29
ENDBRANCH  20  21
ENDBRANCH   1  20
TORSDOF 9
ENDMDL
MODEL 6
REMARK VINA RESULT:      -6.7      1.937      5.239
REMARK  Name = 
REMARK  11 active torsions:
REMARK  status: ('A' for Active; 'I' for Inactive)
REMARK    1  A    between atoms: C_1  and  C_2
REMARK    2  A    between atoms: C_4  and  O_5
REMARK    3  A    between atoms: C_7  and  O_8
REMARK    4  A    between atoms: C_9  and  C_10
REMARK    5  A    between atoms: C_10  and  O_12
REMARK    6  A    between atoms: O_12  and  C_13
REMARK    7  A    between atoms: C_17  and  C_18
REMARK    8  A    between atoms: C_19  and  C_20
REMARK    9  A    between atoms: C_20  and  O_21
REMARK   10  A    between atoms: C_27  and  C_28
REMARK   11  A    between atoms: C_27  and  O_29
REMARK                            x       y       z     vdW  Elec       q    Type
REMARK                         _______ _______ _______ _____ _____    ______ ____
ROOT
ATOM      1  C   UNL     1       4.458   4.355  16.943  0.00  0.00    +0.000 C 
ATOM      2  C   UNL     1       3.729   5.617  17.328  0.00  0.00    +0.000 C 
ATOM      3  C   UNL     1       2.475   5.596  17.814  0.00  0.00    +0.000 C 
ATOM      4  O   UNL     1       1.783   6.712  18.234  0.00  0.00    +0.000 OA
ATOM      5  C   UNL     1       2.420   7.952  18.195  0.00  0.00    +0.000 C 
ATOM      6  C   UNL     1       3.669   8.098  17.714  0.00  0.00    +0.000 C 
ATOM      7  C   UNL     1       4.382   6.918  17.225  0.00  0.00    +0.000 C 
ATOM      8  C   UNL     1       5.623   7.052  16.736  0.00  0.00    +0.000 C 
ATOM      9  C   UNL     1       6.404   5.889  16.254  0.00  0.00    +0.000 C 
ATOM     10  O   UNL     1       7.602   6.045  16.008  0.00  0.00    +0.000 OA
ATOM     11  C   UNL     1       5.690   4.547  16.018  0.00  0.00    +0.000 C 
ATOM     12  C   UNL     1       5.257   4.552  14.546  0.00  0.00    +0.000 C 
ENDROOT
BRANCH   5  13
ATOM     13  C   UNL     1       1.634   9.056  18.710  0.00  0.00    +0.000 C 
ATOM     14  C   UNL     1       1.130   9.112  19.954  0.00  0.00    +0.000 C 
BRANCH  14  15
ATOM     15  C   UNL     1       0.320  10.241  20.492  0.00  0.00    +0.000 C 
BRANCH  15  16
ATOM     16  O   UNL     1       0.776  10.532  21.803  0.00  0.00    +0.000 OA
ATOM     17  H   UNL     1       1.696  10.836  21.720  0.00  0.00    +0.000 HD
ENDBRANCH  15  16
ENDBRANCH  14  15
ENDBRANCH   5  13
BRANCH  11  18
ATOM     18  O   UNL     1       6.606   3.451  16.153  0.00  0.00    +0.000 OA
ATOM     19  H   UNL     1       6.465   2.891  15.364  0.00  0.00    +0.000 HD
ENDBRANCH  11  18
BRANCH   1  20
ATOM     20  O   UNL     1       4.708   3.546  18.128  0.00  0.00    +0.000 OA
BRANCH  20  21
ATOM     21  C   UNL     1       4.062   2.370  18.267  0.00  0.00    +0.000 C 
ATOM     22  O   UNL     1       4.096   1.459  17.452  0.00  0.00    +0.000 OA
BRANCH  21  29
ATOM     23  C   UNL     1       1.099   2.475  17.947  0.00  0.00    +0.000 C 
ATOM     24  C   UNL     1       1.772   2.482  19.297  0.00  0.00    +0.000 A 
ATOM     25  C   UNL     1       0.954   2.581  20.436  0.00  0.00    +0.000 A 
ATOM     26  C   UNL     1       1.512   2.514  21.706  0.00  0.00    +0.000 A 
ATOM     27  C   UNL     1       2.873   2.298  21.876  0.00  0.00    +0.000 A 
ATOM     28  C   UNL     1       3.701   2.215  20.757  0.00  0.00    +0.000 A 
ATOM     29  C   UNL     1       3.175   2.360  19.462  0.00  0.00    +0.000 A 
BRANCH  26  30
ATOM     30  O   UNL     1       0.743   2.638  22.825  0.00  0.00    +0.000 OA
ATOM     31  H   UNL     1       1.017   3.437  23.306  0.00  0.00    +0.000 HD
ENDBRANCH  26  30
BRANCH  28  32
ATOM     32  O   UNL     1       5.030   1.937  20.948  0.00  0.00    +0.000 OA
ATOM     33  H   UNL     1       5.208   1.858  21.901  0.00  0.00    +0.000 HD
ENDBRANCH  28  32
ENDBRANCH  21  29
ENDBRANCH  20  21
ENDBRANCH   1  20
TORSDOF 9
ENDMDL
MODEL 7
REMARK VINA RESULT:      -6.7      5.364      9.037
REMARK  Name = 
REMARK  11 active torsions:
REMARK  status: ('A' for Active; 'I' for Inactive)
REMARK    1  A    between atoms: C_1  and  C_2
REMARK    2  A    between atoms: C_4  and  O_5
REMARK    3  A    between atoms: C_7  and  O_8
REMARK    4  A    between atoms: C_9  and  C_10
REMARK    5  A    between atoms: C_10  and  O_12
REMARK    6  A    between atoms: O_12  and  C_13
REMARK    7  A    between atoms: C_17  and  C_18
REMARK    8  A    between atoms: C_19  and  C_20
REMARK    9  A    between atoms: C_20  and  O_21
REMARK   10  A    between atoms: C_27  and  C_28
REMARK   11  A    between atoms: C_27  and  O_29
REMARK                            x       y       z     vdW  Elec       q    Type
REMARK                         _______ _______ _______ _____ _____    ______ ____
ROOT
ATOM      1  C   UNL     1      -1.118  11.603  19.588  0.00  0.00    +0.000 C 
ATOM      2  C   UNL     1      -1.922  11.244  18.363  0.00  0.00    +0.000 C 
ATOM      3  C   UNL     1      -1.362  10.658  17.289  0.00  0.00    +0.000 C 
ATOM      4  O   UNL     1      -2.058  10.259  16.169  0.00  0.00    +0.000 OA
ATOM      5  C   UNL     1      -3.442  10.431  16.140  0.00  0.00    +0.000 C 
ATOM      6  C   UNL     1      -4.109  11.020  17.150  0.00  0.00    +0.000 C 
ATOM      7  C   UNL     1      -3.361  11.485  18.317  0.00  0.00    +0.000 C 
ATOM      8  C   UNL     1      -4.013  12.081  19.325  0.00  0.00    +0.000 C 
ATOM      9  C   UNL     1      -3.312  12.546  20.544  0.00  0.00    +0.000 C 
ATOM     10  O   UNL     1      -3.987  12.898  21.514  0.00  0.00    +0.000 OA
ATOM     11  C   UNL     1      -1.776  12.634  20.544  0.00  0.00    +0.000 C 
ATOM     12  C   UNL     1      -1.436  14.064  20.102  0.00  0.00    +0.000 C 
ENDROOT
BRANCH   5  13
ATOM     13  C   UNL     1      -4.092   9.929  14.945  0.00  0.00    +0.000 C 
ATOM     14  C   UNL     1      -3.687  10.197  13.692  0.00  0.00    +0.000 C 
BRANCH  14  15
ATOM     15  C   UNL     1      -4.349   9.688  12.459  0.00  0.00    +0.000 C 
BRANCH  15  16
ATOM     16  O   UNL     1      -3.411   9.736  11.396  0.00  0.00    +0.000 OA
ATOM     17  H   UNL     1      -3.497  10.613  10.985  0.00  0.00    +0.000 HD
ENDBRANCH  15  16
ENDBRANCH  14  15
ENDBRANCH   5  13
BRANCH  11  18
ATOM     18  O   UNL     1      -1.256  12.501  21.874  0.00  0.00    +0.000 OA
ATOM     19  H   UNL     1      -1.803  13.090  22.431  0.00  0.00    +0.000 HD
ENDBRANCH  11  18
BRANCH   1  20
ATOM     20  O   UNL     1      -0.641  10.391  20.238  0.00  0.00    +0.000 OA
BRANCH  20  21
ATOM     21  C   UNL     1       0.654  10.314  20.611  0.00  0.00    +0.000 C 
ATOM     22  O   UNL     1       1.212  11.114  21.348  0.00  0.00    +0.000 OA
BRANCH  21  29
ATOM     23  C   UNL     1       1.902  10.813  17.949  0.00  0.00    +0.000 C 
ATOM     24  C   UNL     1       1.901   9.455  18.604  0.00  0.00    +0.000 A 
ATOM     25  C   UNL     1       2.482   8.387  17.900  0.00  0.00    +0.000 A 
ATOM     26  C   UNL     1       2.579   7.131  18.487  0.00  0.00    +0.000 A 
ATOM     27  C   UNL     1       2.153   6.919  19.790  0.00  0.00    +0.000 A 
ATOM     28  C   UNL     1       1.558   7.964  20.498  0.00  0.00    +0.000 A 
ATOM     29  C   UNL     1       1.374   9.223  19.901  0.00  0.00    +0.000 A 
BRANCH  26  30
ATOM     30  O   UNL     1       3.111   6.073  17.811  0.00  0.00    +0.000 OA
ATOM     31  H   UNL     1       4.080   6.133  17.849  0.00  0.00    +0.000 HD
ENDBRANCH  26  30
BRANCH  28  32
ATOM     32  O   UNL     1       1.205   7.749  21.805  0.00  0.00    +0.000 OA
ATOM     33  H   UNL     1       0.259   7.945  21.918  0.00  0.00    +0.000 HD
ENDBRANCH  28  32
ENDBRANCH  21  29
ENDBRANCH  20  21
ENDBRANCH   1  20
TORSDOF 9
ENDMDL
MODEL 8
REMARK VINA RESULT:      -6.6      0.790      1.651
REMARK  Name = 
REMARK  11 active torsions:
REMARK  status: ('A' for Active; 'I' for Inactive)
REMARK    1  A    between atoms: C_1  and  C_2
REMARK    2  A    between atoms: C_4  and  O_5
REMARK    3  A    between atoms: C_7  and  O_8
REMARK    4  A    between atoms: C_9  and  C_10
REMARK    5  A    between atoms: C_10  and  O_12
REMARK    6  A    between atoms: O_12  and  C_13
REMARK    7  A    between atoms: C_17  and  C_18
REMARK    8  A    between atoms: C_19  and  C_20
REMARK    9  A    between atoms: C_20  and  O_21
REMARK   10  A    between atoms: C_27  and  C_28
REMARK   11  A    between atoms: C_27  and  O_29
REMARK                            x       y       z     vdW  Elec       q    Type
REMARK                         _______ _______ _______ _____ _____    ______ ____
ROOT
ATOM      1  C   UNL     1       4.114   4.097  18.531  0.00  0.00    +0.000 C 
ATOM      2  C   UNL     1       3.313   5.177  19.214  0.00  0.00    +0.000 C 
ATOM      3  C   UNL     1       3.742   6.450  19.278  0.00  0.00    +0.000 C 
ATOM      4  O   UNL     1       3.027   7.486  19.839  0.00  0.00    +0.000 OA
ATOM      5  C   UNL     1       1.754   7.226  20.347  0.00  0.00    +0.000 C 
ATOM      6  C   UNL     1       1.227   5.987  20.353  0.00  0.00    +0.000 C 
ATOM      7  C   UNL     1       2.009   4.882  19.800  0.00  0.00    +0.000 C 
ATOM      8  C   UNL     1       1.498   3.643  19.807  0.00  0.00    +0.000 C 
ATOM      9  C   UNL     1       2.232   2.491  19.235  0.00  0.00    +0.000 C 
ATOM     10  O   UNL     1       1.632   1.424  19.088  0.00  0.00    +0.000 OA
ATOM     11  C   UNL     1       3.726   2.639  18.900  0.00  0.00    +0.000 C 
ATOM     12  C   UNL     1       4.487   2.185  20.152  0.00  0.00    +0.000 C 
ENDROOT
BRANCH   5  13
ATOM     13  C   UNL     1       1.057   8.388  20.864  0.00  0.00    +0.000 C 
ATOM     14  C   UNL     1       0.220   8.363  21.915  0.00  0.00    +0.000 C 
BRANCH  14  15
ATOM     15  C   UNL     1      -0.503   9.550  22.452  0.00  0.00    +0.000 C 
BRANCH  15  16
ATOM     16  O   UNL     1       0.089   9.910  23.689  0.00  0.00    +0.000 OA
ATOM     17  H   UNL     1      -0.639  10.127  24.297  0.00  0.00    +0.000 HD
ENDBRANCH  15  16
ENDBRANCH  14  15
ENDBRANCH   5  13
BRANCH  11  18
ATOM     18  O   UNL     1       4.109   1.730  17.858  0.00  0.00    +0.000 OA
ATOM     19  H   UNL     1       5.085   1.769  17.820  0.00  0.00    +0.000 HD
ENDBRANCH  11  18
BRANCH   1  20
ATOM     20  O   UNL     1       4.187   4.363  17.102  0.00  0.00    +0.000 OA
BRANCH  20  21
ATOM     21  C   UNL     1       5.395   4.408  16.504  0.00  0.00    +0.000 C 
ATOM     22  O   UNL     1       5.874   3.500  15.840  0.00  0.00    +0.000 OA
BRANCH  21  29
ATOM     23  C   UNL     1       7.861   4.222  18.170  0.00  0.00    +0.000 C 
ATOM     24  C   UNL     1       7.282   5.539  17.720  0.00  0.00    +0.000 A 
ATOM     25  C   UNL     1       7.923   6.716  18.145  0.00  0.00    +0.000 A 
ATOM     26  C   UNL     1       7.480   7.955  17.698  0.00  0.00    +0.000 A 
ATOM     27  C   UNL     1       6.436   8.052  16.789  0.00  0.00    +0.000 A 
ATOM     28  C   UNL     1       5.778   6.896  16.370  0.00  0.00    +0.000 A 
ATOM     29  C   UNL     1       6.152   5.636  16.868  0.00  0.00    +0.000 A 
BRANCH  26  30
ATOM     30  O   UNL     1       8.066   9.110  18.121  0.00  0.00    +0.000 OA
ATOM     31  H   UNL     1       9.031   9.010  18.066  0.00  0.00    +0.000 HD
ENDBRANCH  26  30
BRANCH  28  32
ATOM     32  O   UNL     1       4.793   7.011  15.423  0.00  0.00    +0.000 OA
ATOM     33  H   UNL     1       5.006   7.751  14.828  0.00  0.00    +0.000 HD
ENDBRANCH  28  32
ENDBRANCH  21  29
ENDBRANCH  20  21
ENDBRANCH   1  20
TORSDOF 9
ENDMDL
MODEL 9
REMARK VINA RESULT:      -6.5      7.077     10.462
REMARK  Name = 
REMARK  11 active torsions:
REMARK  status: ('A' for Active; 'I' for Inactive)
REMARK    1  A    between atoms: C_1  and  C_2
REMARK    2  A    between atoms: C_4  and  O_5
REMARK    3  A    between atoms: C_7  and  O_8
REMARK    4  A    between atoms: C_9  and  C_10
REMARK    5  A    between atoms: C_10  and  O_12
REMARK    6  A    between atoms: O_12  and  C_13
REMARK    7  A    between atoms: C_17  and  C_18
REMARK    8  A    between atoms: C_19  and  C_20
REMARK    9  A    between atoms: C_20  and  O_21
REMARK   10  A    between atoms: C_27  and  C_28
REMARK   11  A    between atoms: C_27  and  O_29
REMARK                            x       y       z     vdW  Elec       q    Type
REMARK                         _______ _______ _______ _____ _____    ______ ____
ROOT
ATOM      1  C   UNL     1      -2.945  12.672  20.392  0.00  0.00    +0.000 C 
ATOM      2  C   UNL     1      -3.294  12.099  19.041  0.00  0.00    +0.000 C 
ATOM      3  C   UNL     1      -2.362  11.880  18.097  0.00  0.00    +0.000 C 
ATOM      4  O   UNL     1      -2.616  11.308  16.869  0.00  0.00    +0.000 OA
ATOM      5  C   UNL     1      -3.914  10.889  16.578  0.00  0.00    +0.000 C 
ATOM      6  C   UNL     1      -4.933  11.072  17.440  0.00  0.00    +0.000 C 
ATOM      7  C   UNL     1      -4.668  11.722  18.722  0.00  0.00    +0.000 C 
ATOM      8  C   UNL     1      -5.676  11.916  19.585  0.00  0.00    +0.000 C 
ATOM      9  C   UNL     1      -5.462  12.543  20.909  0.00  0.00    +0.000 C 
ATOM     10  O   UNL     1      -6.380  12.511  21.732  0.00  0.00    +0.000 OA
ATOM     11  C   UNL     1      -4.133  13.263  21.198  0.00  0.00    +0.000 C 
ATOM     12  C   UNL     1      -4.358  14.732  20.816  0.00  0.00    +0.000 C 
ENDROOT
BRANCH   5  13
ATOM     13  C   UNL     1      -4.071  10.249  15.287  0.00  0.00    +0.000 C 
ATOM     14  C   UNL     1      -3.152  10.283  14.307  0.00  0.00    +0.000 C 
BRANCH  14  15
ATOM     15  C   UNL     1      -3.305   9.630  12.977  0.00  0.00    +0.000 C 
BRANCH  15  16
ATOM     16  O   UNL     1      -2.029   9.564  12.363  0.00  0.00    +0.000 OA
ATOM     17  H   UNL     1      -1.426   9.157  13.010  0.00  0.00    +0.000 HD
ENDBRANCH  15  16
ENDBRANCH  14  15
ENDBRANCH   5  13
BRANCH  11  18
ATOM     18  O   UNL     1      -3.847  13.264  22.604  0.00  0.00    +0.000 OA
ATOM     19  H   UNL     1      -2.936  13.608  22.686  0.00  0.00    +0.000 HD
ENDBRANCH  11  18
BRANCH   1  20
ATOM     20  O   UNL     1      -2.121  11.726  21.132  0.00  0.00    +0.000 OA
BRANCH  20  21
ATOM     21  C   UNL     1      -0.927  12.132  21.610  0.00  0.00    +0.000 C 
ATOM     22  O   UNL     1      -0.729  12.499  22.760  0.00  0.00    +0.000 OA
BRANCH  21  29
ATOM     23  C   UNL     1       0.158  14.787  20.792  0.00  0.00    +0.000 C 
ATOM     24  C   UNL     1       0.553  13.502  20.110  0.00  0.00    +0.000 A 
ATOM     25  C   UNL     1       1.441  13.584  19.023  0.00  0.00    +0.000 A 
ATOM     26  C   UNL     1       1.901  12.427  18.406  0.00  0.00    +0.000 A 
ATOM     27  C   UNL     1       1.537  11.174  18.879  0.00  0.00    +0.000 A 
ATOM     28  C   UNL     1       0.644  11.074  19.946  0.00  0.00    +0.000 A 
ATOM     29  C   UNL     1       0.100  12.228  20.537  0.00  0.00    +0.000 A 
BRANCH  26  30
ATOM     30  O   UNL     1       2.737  12.483  17.331  0.00  0.00    +0.000 OA
ATOM     31  H   UNL     1       2.204  12.582  16.524  0.00  0.00    +0.000 HD
ENDBRANCH  26  30
BRANCH  28  32
ATOM     32  O   UNL     1       0.350   9.829  20.437  0.00  0.00    +0.000 OA
ATOM     33  H   UNL     1      -0.506   9.537  20.080  0.00  0.00    +0.000 HD
ENDBRANCH  28  32
ENDBRANCH  21  29
ENDBRANCH  20  21
ENDBRANCH   1  20
TORSDOF 9
ENDMDL
