MODEL 1
REMARK VINA RESULT:      -6.7      0.000      0.000
REMARK  Name = 
REMARK  3 active torsions:
REMARK  status: ('A' for Active; 'I' for Inactive)
REMARK    1  A    between atoms: C_1  and  C_2
REMARK    2  A    between atoms: N_6  and  C_7
REMARK    3  A    between atoms: C_12  and  C_14
REMARK                            x       y       z     vdW  Elec       q    Type
REMARK                         _______ _______ _______ _____ _____    ______ ____
ROOT
ATOM      1  C   UNL     1       2.242   5.998  19.010  0.00  0.00    +0.000 C 
ATOM      2  C   UNL     1       1.805   5.713  20.459  0.00  0.00    +0.000 C 
ATOM      3  C   UNL     1       0.909   6.869  20.946  0.00  0.00    +0.000 C 
ATOM      4  C   UNL     1       1.553   8.254  20.713  0.00  0.00    +0.000 C 
ATOM      5  N   UNL     1       2.053   8.375  19.336  0.00  0.00    +0.000 N 
ATOM      6  C   UNL     1       1.531   9.121  18.265  0.00  0.00    +0.000 C 
ATOM      7  O   UNL     1       2.035   9.060  17.143  0.00  0.00    +0.000 OA
ATOM      8  C   UNL     1       3.009   7.325  18.982  0.00  0.00    +0.000 C 
ENDROOT
BRANCH   6   9
ATOM      9  C   UNL     1       0.313   9.958  18.412  0.00  0.00    +0.000 A 
ATOM     10  C   UNL     1      -0.881   9.636  17.749  0.00  0.00    +0.000 A 
ATOM     11  C   UNL     1      -2.025  10.436  17.866  0.00  0.00    +0.000 A 
ATOM     12  C   UNL     1      -1.973  11.632  18.578  0.00  0.00    +0.000 A 
ATOM     13  C   UNL     1      -0.763  11.986  19.137  0.00  0.00    +0.000 A 
ATOM     14  C   UNL     1       0.352  11.179  19.070  0.00  0.00    +0.000 A 
ATOM     15  O   UNL     1       1.418  11.756  19.695  0.00  0.00    +0.000 OA
ATOM     16  C   UNL     1       0.882  13.043  20.053  0.00  0.00    +0.000 C 
ATOM     17  O   UNL     1      -0.530  13.155  19.796  0.00  0.00    +0.000 OA
ENDBRANCH   6   9
BRANCH   1  23
ATOM     18  C   UNL     1       1.096   3.238  18.456  0.00  0.00    +0.000 C 
ATOM     19  C   UNL     1       2.432   3.713  18.002  0.00  0.00    +0.000 A 
ATOM     20  N   UNL     1       3.262   3.046  17.226  0.00  0.00    +0.000 NA
ATOM     21  C   UNL     1       4.341   3.866  17.038  0.00  0.00    +0.000 A 
ATOM     22  C   UNL     1       4.191   5.040  17.737  0.00  0.00    +0.000 A 
ATOM     23  N   UNL     1       2.961   4.948  18.323  0.00  0.00    +0.000 N 
ENDBRANCH   1  23
TORSDOF 2
ENDMDL
MODEL 2
REMARK VINA RESULT:      -6.6      2.835      7.471
REMARK  Name = 
REMARK  3 active torsions:
REMARK  status: ('A' for Active; 'I' for Inactive)
REMARK    1  A    between atoms: C_1  and  C_2
REMARK    2  A    between atoms: N_6  and  C_7
REMARK    3  A    between atoms: C_12  and  C_14
REMARK                            x       y       z     vdW  Elec       q    Type
REMARK                         _______ _______ _______ _____ _____    ______ ____
ROOT
ATOM      1  C   UNL     1       1.933   7.371  20.027  0.00  0.00    +0.000 C 
ATOM      2  C   UNL     1       1.590   6.097  20.822  0.00  0.00    +0.000 C 
ATOM      3  C   UNL     1       2.594   4.989  20.446  0.00  0.00    +0.000 C 
ATOM      4  C   UNL     1       2.715   4.797  18.918  0.00  0.00    +0.000 C 
ATOM      5  N   UNL     1       2.911   6.087  18.240  0.00  0.00    +0.000 N 
ATOM      6  C   UNL     1       4.073   6.610  17.648  0.00  0.00    +0.000 C 
ATOM      7  O   UNL     1       4.089   7.749  17.178  0.00  0.00    +0.000 OA
ATOM      8  C   UNL     1       1.848   7.050  18.530  0.00  0.00    +0.000 C 
ENDROOT
BRANCH   6   9
ATOM      9  C   UNL     1       5.351   5.853  17.622  0.00  0.00    +0.000 A 
ATOM     10  C   UNL     1       6.159   5.742  18.762  0.00  0.00    +0.000 A 
ATOM     11  C   UNL     1       7.376   5.048  18.736  0.00  0.00    +0.000 A 
ATOM     12  C   UNL     1       7.857   4.527  17.537  0.00  0.00    +0.000 A 
ATOM     13  C   UNL     1       7.101   4.735  16.404  0.00  0.00    +0.000 A 
ATOM     14  C   UNL     1       5.877   5.370  16.433  0.00  0.00    +0.000 A 
ATOM     15  O   UNL     1       5.335   5.453  15.185  0.00  0.00    +0.000 OA
ATOM     16  C   UNL     1       6.391   4.909  14.372  0.00  0.00    +0.000 C 
ATOM     17  O   UNL     1       7.470   4.355  15.149  0.00  0.00    +0.000 OA
ENDBRANCH   6   9
BRANCH   1  23
ATOM     18  C   UNL     1       1.704   9.787  18.197  0.00  0.00    +0.000 C 
ATOM     19  C   UNL     1       1.028   9.649  19.516  0.00  0.00    +0.000 A 
ATOM     20  N   UNL     1       0.169  10.505  20.033  0.00  0.00    +0.000 NA
ATOM     21  C   UNL     1      -0.223   9.967  21.228  0.00  0.00    +0.000 A 
ATOM     22  C   UNL     1       0.429   8.781  21.469  0.00  0.00    +0.000 A 
ATOM     23  N   UNL     1       1.200   8.571  20.361  0.00  0.00    +0.000 N 
ENDBRANCH   1  23
TORSDOF 2
ENDMDL
MODEL 3
REMARK VINA RESULT:      -6.6      2.790      7.494
REMARK  Name = 
REMARK  3 active torsions:
REMARK  status: ('A' for Active; 'I' for Inactive)
REMARK    1  A    between atoms: C_1  and  C_2
REMARK    2  A    between atoms: N_6  and  C_7
REMARK    3  A    between atoms: C_12  and  C_14
REMARK                            x       y       z     vdW  Elec       q    Type
REMARK                         _______ _______ _______ _____ _____    ______ ____
ROOT
ATOM      1  C   UNL     1       1.849   7.783  19.703  0.00  0.00    +0.000 C 
ATOM      2  C   UNL     1       1.428   6.599  20.592  0.00  0.00    +0.000 C 
ATOM      3  C   UNL     1       2.417   5.436  20.374  0.00  0.00    +0.000 C 
ATOM      4  C   UNL     1       2.611   5.099  18.879  0.00  0.00    +0.000 C 
ATOM      5  N   UNL     1       2.879   6.315  18.098  0.00  0.00    +0.000 N 
ATOM      6  C   UNL     1       4.086   6.752  17.524  0.00  0.00    +0.000 C 
ATOM      7  O   UNL     1       4.159   7.841  16.952  0.00  0.00    +0.000 OA
ATOM      8  C   UNL     1       1.831   7.326  18.240  0.00  0.00    +0.000 C 
ENDROOT
BRANCH   6   9
ATOM      9  C   UNL     1       5.340   5.965  17.637  0.00  0.00    +0.000 A 
ATOM     10  C   UNL     1       6.029   5.856  18.853  0.00  0.00    +0.000 A 
ATOM     11  C   UNL     1       7.225   5.134  18.959  0.00  0.00    +0.000 A 
ATOM     12  C   UNL     1       7.809   4.579  17.823  0.00  0.00    +0.000 A 
ATOM     13  C   UNL     1       7.173   4.783  16.617  0.00  0.00    +0.000 A 
ATOM     14  C   UNL     1       5.969   5.447  16.514  0.00  0.00    +0.000 A 
ATOM     15  O   UNL     1       5.554   5.518  15.217  0.00  0.00    +0.000 OA
ATOM     16  C   UNL     1       6.671   4.935  14.522  0.00  0.00    +0.000 C 
ATOM     17  O   UNL     1       7.654   4.371  15.411  0.00  0.00    +0.000 OA
ENDBRANCH   6   9
BRANCH   1  23
ATOM     18  C   UNL     1       1.411   9.109  22.402  0.00  0.00    +0.000 C 
ATOM     19  C   UNL     1       0.985   9.678  21.094  0.00  0.00    +0.000 A 
ATOM     20  N   UNL     1       0.446  10.867  20.912  0.00  0.00    +0.000 NA
ATOM     21  C   UNL     1       0.250  10.986  19.563  0.00  0.00    +0.000 A 
ATOM     22  C   UNL     1       0.639   9.842  18.908  0.00  0.00    +0.000 A 
ATOM     23  N   UNL     1       1.134   9.027  19.885  0.00  0.00    +0.000 N 
ENDBRANCH   1  23
TORSDOF 2
ENDMDL
MODEL 4
REMARK VINA RESULT:      -6.5      2.876      7.179
REMARK  Name = 
REMARK  3 active torsions:
REMARK  status: ('A' for Active; 'I' for Inactive)
REMARK    1  A    between atoms: C_1  and  C_2
REMARK    2  A    between atoms: N_6  and  C_7
REMARK    3  A    between atoms: C_12  and  C_14
REMARK                            x       y       z     vdW  Elec       q    Type
REMARK                         _______ _______ _______ _____ _____    ______ ____
ROOT
ATOM      1  C   UNL     1       2.203   7.150  19.852  0.00  0.00    +0.000 C 
ATOM      2  C   UNL     1       1.973   5.810  20.576  0.00  0.00    +0.000 C 
ATOM      3  C   UNL     1       2.878   4.737  19.939  0.00  0.00    +0.000 C 
ATOM      4  C   UNL     1       2.739   4.685  18.401  0.00  0.00    +0.000 C 
ATOM      5  N   UNL     1       2.844   6.031  17.819  0.00  0.00    +0.000 N 
ATOM      6  C   UNL     1       3.902   6.602  17.090  0.00  0.00    +0.000 C 
ATOM      7  O   UNL     1       3.861   7.779  16.728  0.00  0.00    +0.000 OA
ATOM      8  C   UNL     1       1.863   6.968  18.369  0.00  0.00    +0.000 C 
ENDROOT
BRANCH   6   9
ATOM      9  C   UNL     1       5.142   5.845  16.782  0.00  0.00    +0.000 A 
ATOM     10  C   UNL     1       5.309   5.181  15.558  0.00  0.00    +0.000 A 
ATOM     11  C   UNL     1       6.467   4.446  15.272  0.00  0.00    +0.000 A 
ATOM     12  C   UNL     1       7.449   4.282  16.247  0.00  0.00    +0.000 A 
ATOM     13  C   UNL     1       7.222   4.854  17.480  0.00  0.00    +0.000 A 
ATOM     14  C   UNL     1       6.109   5.622  17.751  0.00  0.00    +0.000 A 
ATOM     15  O   UNL     1       6.118   6.067  19.039  0.00  0.00    +0.000 OA
ATOM     16  C   UNL     1       7.283   5.407  19.567  0.00  0.00    +0.000 C 
ATOM     17  O   UNL     1       8.046   4.721  18.557  0.00  0.00    +0.000 OA
ENDBRANCH   6   9
BRANCH   1  23
ATOM     18  C   UNL     1       1.502   9.634  18.249  0.00  0.00    +0.000 C 
ATOM     19  C   UNL     1       1.172   9.426  19.685  0.00  0.00    +0.000 A 
ATOM     20  N   UNL     1       0.456  10.239  20.435  0.00  0.00    +0.000 NA
ATOM     21  C   UNL     1       0.375   9.642  21.664  0.00  0.00    +0.000 A 
ATOM     22  C   UNL     1       1.081   8.463  21.683  0.00  0.00    +0.000 A 
ATOM     23  N   UNL     1       1.559   8.317  20.412  0.00  0.00    +0.000 N 
ENDBRANCH   1  23
TORSDOF 2
ENDMDL
MODEL 5
REMARK VINA RESULT:      -6.2      3.186      5.354
REMARK  Name = 
REMARK  3 active torsions:
REMARK  status: ('A' for Active; 'I' for Inactive)
REMARK    1  A    between atoms: C_1  and  C_2
REMARK    2  A    between atoms: N_6  and  C_7
REMARK    3  A    between atoms: C_12  and  C_14
REMARK                            x       y       z     vdW  Elec       q    Type
REMARK                         _______ _______ _______ _____ _____    ______ ____
ROOT
ATOM      1  C   UNL     1      -0.064  10.458  19.546  0.00  0.00    +0.000 C 
ATOM      2  C   UNL     1       0.527  11.868  19.729  0.00  0.00    +0.000 C 
ATOM      3  C   UNL     1      -0.557  12.910  19.385  0.00  0.00    +0.000 C 
ATOM      4  C   UNL     1      -1.216  12.645  18.013  0.00  0.00    +0.000 C 
ATOM      5  N   UNL     1      -1.627  11.239  17.891  0.00  0.00    +0.000 N 
ATOM      6  C   UNL     1      -2.919  10.685  17.930  0.00  0.00    +0.000 C 
ATOM      7  O   UNL     1      -3.088   9.466  17.881  0.00  0.00    +0.000 OA
ATOM      8  C   UNL     1      -0.520  10.303  18.092  0.00  0.00    +0.000 C 
ENDROOT
BRANCH   6   9
ATOM      9  C   UNL     1      -4.129  11.528  18.101  0.00  0.00    +0.000 A 
ATOM     10  C   UNL     1      -4.961  11.843  17.017  0.00  0.00    +0.000 A 
ATOM     11  C   UNL     1      -6.091  12.657  17.169  0.00  0.00    +0.000 A 
ATOM     12  C   UNL     1      -6.363  13.252  18.399  0.00  0.00    +0.000 A 
ATOM     13  C   UNL     1      -5.477  13.017  19.428  0.00  0.00    +0.000 A 
ATOM     14  C   UNL     1      -4.393  12.175  19.300  0.00  0.00    +0.000 A 
ATOM     15  O   UNL     1      -3.674  12.115  20.456  0.00  0.00    +0.000 OA
ATOM     16  C   UNL     1      -4.355  13.086  21.272  0.00  0.00    +0.000 C 
ATOM     17  O   UNL     1      -5.562  13.584  20.664  0.00  0.00    +0.000 OA
ENDBRANCH   6   9
BRANCH   1  23
ATOM     18  C   UNL     1      -0.291   9.135  22.273  0.00  0.00    +0.000 C 
ATOM     19  C   UNL     1       0.618   8.688  21.182  0.00  0.00    +0.000 A 
ATOM     20  N   UNL     1       1.379   7.612  21.207  0.00  0.00    +0.000 NA
ATOM     21  C   UNL     1       2.010   7.571  19.994  0.00  0.00    +0.000 A 
ATOM     22  C   UNL     1       1.663   8.656  19.224  0.00  0.00    +0.000 A 
ATOM     23  N   UNL     1       0.754   9.345  19.975  0.00  0.00    +0.000 N 
ENDBRANCH   1  23
TORSDOF 2
ENDMDL
MODEL 6
REMARK VINA RESULT:      -6.2      2.705      7.227
REMARK  Name = 
REMARK  3 active torsions:
REMARK  status: ('A' for Active; 'I' for Inactive)
REMARK    1  A    between atoms: C_1  and  C_2
REMARK    2  A    between atoms: N_6  and  C_7
REMARK    3  A    between atoms: C_12  and  C_14
REMARK                            x       y       z     vdW  Elec       q    Type
REMARK                         _______ _______ _______ _____ _____    ______ ____
ROOT
ATOM      1  C   UNL     1      -0.708  10.702  20.177  0.00  0.00    +0.000 C 
ATOM      2  C   UNL     1      -1.185  10.812  18.717  0.00  0.00    +0.000 C 
ATOM      3  C   UNL     1      -0.599   9.635  17.912  0.00  0.00    +0.000 C 
ATOM      4  C   UNL     1       0.928   9.495  18.096  0.00  0.00    +0.000 C 
ATOM      5  N   UNL     1       1.290   9.532  19.520  0.00  0.00    +0.000 N 
ATOM      6  C   UNL     1       1.712   8.483  20.355  0.00  0.00    +0.000 C 
ATOM      7  O   UNL     1       1.913   8.669  21.557  0.00  0.00    +0.000 OA
ATOM      8  C   UNL     1       0.824  10.743  20.196  0.00  0.00    +0.000 C 
ENDROOT
BRANCH   6   9
ATOM      9  C   UNL     1       1.869   7.094  19.853  0.00  0.00    +0.000 A 
ATOM     10  C   UNL     1       1.293   6.004  20.523  0.00  0.00    +0.000 A 
ATOM     11  C   UNL     1       1.458   4.690  20.066  0.00  0.00    +0.000 A 
ATOM     12  C   UNL     1       2.283   4.428  18.975  0.00  0.00    +0.000 A 
ATOM     13  C   UNL     1       2.925   5.499  18.392  0.00  0.00    +0.000 A 
ATOM     14  C   UNL     1       2.726   6.800  18.803  0.00  0.00    +0.000 A 
ATOM     15  O   UNL     1       3.477   7.670  18.070  0.00  0.00    +0.000 OA
ATOM     16  C   UNL     1       4.241   6.771  17.245  0.00  0.00    +0.000 C 
ATOM     17  O   UNL     1       3.820   5.399  17.369  0.00  0.00    +0.000 OA
ENDBRANCH   6   9
BRANCH   1  23
ATOM     18  C   UNL     1      -0.843  10.201  23.172  0.00  0.00    +0.000 C 
ATOM     19  C   UNL     1      -1.290  11.450  22.496  0.00  0.00    +0.000 A 
ATOM     20  N   UNL     1      -1.718  12.540  23.100  0.00  0.00    +0.000 NA
ATOM     21  C   UNL     1      -1.984  13.440  22.103  0.00  0.00    +0.000 A 
ATOM     22  C   UNL     1      -1.753  12.885  20.867  0.00  0.00    +0.000 A 
ATOM     23  N   UNL     1      -1.282  11.630  21.126  0.00  0.00    +0.000 N 
ENDBRANCH   1  23
TORSDOF 2
ENDMDL
MODEL 7
REMARK VINA RESULT:      -6.2      0.639      1.231
REMARK  Name = 
REMARK  3 active torsions:
REMARK  status: ('A' for Active; 'I' for Inactive)
REMARK    1  A    between atoms: C_1  and  C_2
REMARK    2  A    between atoms: N_6  and  C_7
REMARK    3  A    between atoms: C_12  and  C_14
REMARK                            x       y       z     vdW  Elec       q    Type
REMARK                         _______ _______ _______ _____ _____    ______ ____
ROOT
ATOM      1  C   UNL     1       2.064   5.982  19.068  0.00  0.00    +0.000 C 
ATOM      2  C   UNL     1       1.676   5.785  20.545  0.00  0.00    +0.000 C 
ATOM      3  C   UNL     1       0.888   7.021  21.023  0.00  0.00    +0.000 C 
ATOM      4  C   UNL     1       1.620   8.345  20.707  0.00  0.00    +0.000 C 
ATOM      5  N   UNL     1       2.063   8.378  19.305  0.00  0.00    +0.000 N 
ATOM      6  C   UNL     1       1.547   9.120  18.229  0.00  0.00    +0.000 C 
ATOM      7  O   UNL     1       1.994   8.980  17.089  0.00  0.00    +0.000 OA
ATOM      8  C   UNL     1       2.923   7.247  18.953  0.00  0.00    +0.000 C 
ENDROOT
BRANCH   6   9
ATOM      9  C   UNL     1       0.401  10.050  18.394  0.00  0.00    +0.000 A 
ATOM     10  C   UNL     1      -0.868   9.746  17.881  0.00  0.00    +0.000 A 
ATOM     11  C   UNL     1      -1.946  10.631  18.014  0.00  0.00    +0.000 A 
ATOM     12  C   UNL     1      -1.754  11.886  18.586  0.00  0.00    +0.000 A 
ATOM     13  C   UNL     1      -0.477  12.210  18.991  0.00  0.00    +0.000 A 
ATOM     14  C   UNL     1       0.577  11.325  18.912  0.00  0.00    +0.000 A 
ATOM     15  O   UNL     1       1.730  11.887  19.372  0.00  0.00    +0.000 OA
ATOM     16  C   UNL     1       1.310  13.238  19.637  0.00  0.00    +0.000 C 
ATOM     17  O   UNL     1      -0.112  13.421  19.498  0.00  0.00    +0.000 OA
ENDBRANCH   6   9
BRANCH   1  23
ATOM     18  C   UNL     1       4.988   5.207  19.359  0.00  0.00    +0.000 C 
ATOM     19  C   UNL     1       3.980   4.449  18.567  0.00  0.00    +0.000 A 
ATOM     20  N   UNL     1       4.186   3.297  17.960  0.00  0.00    +0.000 NA
ATOM     21  C   UNL     1       2.990   2.954  17.392  0.00  0.00    +0.000 A 
ATOM     22  C   UNL     1       2.043   3.924  17.620  0.00  0.00    +0.000 A 
ATOM     23  N   UNL     1       2.672   4.857  18.394  0.00  0.00    +0.000 N 
ENDBRANCH   1  23
TORSDOF 2
ENDMDL
MODEL 8
REMARK VINA RESULT:      -6.2      8.818     10.917
REMARK  Name = 
REMARK  3 active torsions:
REMARK  status: ('A' for Active; 'I' for Inactive)
REMARK    1  A    between atoms: C_1  and  C_2
REMARK    2  A    between atoms: N_6  and  C_7
REMARK    3  A    between atoms: C_12  and  C_14
REMARK                            x       y       z     vdW  Elec       q    Type
REMARK                         _______ _______ _______ _____ _____    ______ ____
ROOT
ATOM      1  C   UNL     1      10.242  13.887  18.877  0.00  0.00    +0.000 C 
ATOM      2  C   UNL     1      10.093  12.490  18.246  0.00  0.00    +0.000 C 
ATOM      3  C   UNL     1       9.339  11.575  19.233  0.00  0.00    +0.000 C 
ATOM      4  C   UNL     1       9.959  11.596  20.648  0.00  0.00    +0.000 C 
ATOM      5  N   UNL     1      10.180  12.976  21.104  0.00  0.00    +0.000 N 
ATOM      6  C   UNL     1       9.475  13.714  22.070  0.00  0.00    +0.000 C 
ATOM      7  O   UNL     1       9.746  14.896  22.289  0.00  0.00    +0.000 OA
ATOM      8  C   UNL     1      11.020  13.750  20.190  0.00  0.00    +0.000 C 
ENDROOT
BRANCH   6   9
ATOM      9  C   UNL     1       8.331  13.135  22.820  0.00  0.00    +0.000 A 
ATOM     10  C   UNL     1       8.506  12.071  23.716  0.00  0.00    +0.000 A 
ATOM     11  C   UNL     1       7.426  11.506  24.408  0.00  0.00    +0.000 A 
ATOM     12  C   UNL     1       6.128  11.937  24.147  0.00  0.00    +0.000 A 
ATOM     13  C   UNL     1       5.962  12.912  23.188  0.00  0.00    +0.000 A 
ATOM     14  C   UNL     1       7.024  13.509  22.541  0.00  0.00    +0.000 A 
ATOM     15  O   UNL     1       6.595  14.436  21.639  0.00  0.00    +0.000 OA
ATOM     16  C   UNL     1       5.167  14.273  21.711  0.00  0.00    +0.000 C 
ATOM     17  O   UNL     1       4.755  13.384  22.766  0.00  0.00    +0.000 OA
ENDBRANCH   6   9
BRANCH   1  23
ATOM     18  C   UNL     1       8.616  16.222  17.810  0.00  0.00    +0.000 C 
ATOM     19  C   UNL     1      10.078  16.035  17.600  0.00  0.00    +0.000 A 
ATOM     20  N   UNL     1      10.886  16.891  17.007  0.00  0.00    +0.000 NA
ATOM     21  C   UNL     1      12.134  16.332  17.068  0.00  0.00    +0.000 A 
ATOM     22  C   UNL     1      12.090  15.100  17.674  0.00  0.00    +0.000 A 
ATOM     23  N   UNL     1      10.784  14.931  18.037  0.00  0.00    +0.000 N 
ENDBRANCH   1  23
TORSDOF 2
ENDMDL
MODEL 9
REMARK VINA RESULT:      -6.2      2.629      7.044
REMARK  Name = 
REMARK  3 active torsions:
REMARK  status: ('A' for Active; 'I' for Inactive)
REMARK    1  A    between atoms: C_1  and  C_2
REMARK    2  A    between atoms: N_6  and  C_7
REMARK    3  A    between atoms: C_12  and  C_14
REMARK                            x       y       z     vdW  Elec       q    Type
REMARK                         _______ _______ _______ _____ _____    ______ ____
ROOT
ATOM      1  C   UNL     1      -0.116   9.940  19.989  0.00  0.00    +0.000 C 
ATOM      2  C   UNL     1      -0.538  10.354  18.567  0.00  0.00    +0.000 C 
ATOM      3  C   UNL     1      -0.010   9.307  17.566  0.00  0.00    +0.000 C 
ATOM      4  C   UNL     1       1.498   9.023  17.749  0.00  0.00    +0.000 C 
ATOM      5  N   UNL     1       1.816   8.768  19.162  0.00  0.00    +0.000 N 
ATOM      6  C   UNL     1       2.138   7.554  19.793  0.00  0.00    +0.000 C 
ATOM      7  O   UNL     1       2.312   7.499  21.011  0.00  0.00    +0.000 OA
ATOM      8  C   UNL     1       1.413   9.864  20.043  0.00  0.00    +0.000 C 
ENDROOT
BRANCH   6   9
ATOM      9  C   UNL     1       2.214   6.275  19.043  0.00  0.00    +0.000 A 
ATOM     10  C   UNL     1       1.365   5.199  19.342  0.00  0.00    +0.000 A 
ATOM     11  C   UNL     1       1.450   3.982  18.652  0.00  0.00    +0.000 A 
ATOM     12  C   UNL     1       2.452   3.783  17.706  0.00  0.00    +0.000 A 
ATOM     13  C   UNL     1       3.343   4.814  17.498  0.00  0.00    +0.000 A 
ATOM     14  C   UNL     1       3.234   6.032  18.134  0.00  0.00    +0.000 A 
ATOM     15  O   UNL     1       4.237   6.876  17.760  0.00  0.00    +0.000 OA
ATOM     16  C   UNL     1       5.036   6.023  16.920  0.00  0.00    +0.000 C 
ATOM     17  O   UNL     1       4.419   4.747  16.665  0.00  0.00    +0.000 OA
ENDBRANCH   6   9
BRANCH   1  23
ATOM     18  C   UNL     1      -0.127   9.011  22.883  0.00  0.00    +0.000 C 
ATOM     19  C   UNL     1      -0.607  10.340  22.413  0.00  0.00    +0.000 A 
ATOM     20  N   UNL     1      -1.014  11.327  23.184  0.00  0.00    +0.000 NA
ATOM     21  C   UNL     1      -1.325  12.359  22.340  0.00  0.00    +0.000 A 
ATOM     22  C   UNL     1      -1.141  11.990  21.029  0.00  0.00    +0.000 A 
ATOM     23  N   UNL     1      -0.655  10.716  21.085  0.00  0.00    +0.000 N 
ENDBRANCH   1  23
TORSDOF 2
ENDMDL
