MODEL 1
REMARK VINA RESULT:      -8.2      0.000      0.000
REMARK  Name = 
REMARK  7 active torsions:
REMARK  status: ('A' for Active; 'I' for Inactive)
REMARK    1  A    between atoms: C_1  and  C_2
REMARK    2  A    between atoms: N_4  and  C_5
REMARK    3  A    between atoms: C_13  and  C_14
REMARK    4  A    between atoms: C_15  and  C_16
REMARK    5  A    between atoms: C_15  and  C_20
REMARK    6  A    between atoms: C_16  and  C_17
REMARK    7  A    between atoms: C_17  and  O_19
REMARK                            x       y       z     vdW  Elec       q    Type
REMARK                         _______ _______ _______ _____ _____    ______ ____
ROOT
ATOM      1  C   UNL     1       3.583   5.907  17.500  0.00  0.00    +0.000 C 
ATOM      2  C   UNL     1       4.934   5.846  17.394  0.00  0.00    +0.000 C 
ENDROOT
BRANCH   2   3
ATOM      3  C   UNL     1       5.528   5.243  16.205  0.00  0.00    +0.000 A 
ATOM      4  N   UNL     1       6.536   5.791  15.548  0.00  0.00    +0.000 NA
ATOM      5  C   UNL     1       6.763   5.146  14.340  0.00  0.00    +0.000 A 
ATOM      6  C   UNL     1       7.730   5.502  13.374  0.00  0.00    +0.000 A 
ATOM      7  C   UNL     1       7.824   4.781  12.179  0.00  0.00    +0.000 A 
ATOM      8  C   UNL     1       6.973   3.706  11.939  0.00  0.00    +0.000 A 
ATOM      9  C   UNL     1       6.016   3.322  12.888  0.00  0.00    +0.000 A 
ATOM     10  C   UNL     1       5.929   4.061  14.082  0.00  0.00    +0.000 A 
ATOM     11  S   UNL     1       4.861   3.853  15.419  0.00  0.00    +0.000 S 
ENDBRANCH   2   3
BRANCH   1  18
ATOM     12  C   UNL     1       2.633   4.279  20.223  0.00  0.00    +0.000 C 
ATOM     13  C   UNL     1       2.437   5.690  19.807  0.00  0.00    +0.000 A 
ATOM     14  N   UNL     1       1.925   6.533  20.711  0.00  0.00    +0.000 NA
ATOM     15  N   UNL     1       1.751   7.711  20.057  0.00  0.00    +0.000 N 
ATOM     16  C   UNL     1       2.285   7.631  18.781  0.00  0.00    +0.000 A 
ATOM     17 CL   UNL     1       2.508   9.016  17.802  0.00  0.00    +0.000 Cl
ATOM     18  C   UNL     1       2.748   6.346  18.586  0.00  0.00    +0.000 A 
BRANCH  15  19
ATOM     19  C   UNL     1       1.050   8.749  20.731  0.00  0.00    +0.000 A 
ATOM     20  C   UNL     1       1.071   8.790  22.142  0.00  0.00    +0.000 A 
ATOM     21  C   UNL     1       0.354   9.769  22.835  0.00  0.00    +0.000 A 
ATOM     22  C   UNL     1      -0.413  10.695  22.133  0.00  0.00    +0.000 A 
ATOM     23  C   UNL     1      -0.454  10.648  20.739  0.00  0.00    +0.000 A 
ATOM     24  C   UNL     1       0.285   9.690  20.036  0.00  0.00    +0.000 A 
ENDBRANCH  15  19
ENDBRANCH   1  18
BRANCH   2  25
ATOM     25  C   UNL     1       5.892   6.341  18.471  0.00  0.00    +0.000 C 
BRANCH  25  26
ATOM     26  C   UNL     1       6.361   5.154  19.297  0.00  0.00    +0.000 C 
ATOM     27  O   UNL     1       5.896   4.024  19.291  0.00  0.00    +0.000 OA
BRANCH  26  28
ATOM     28  O   UNL     1       7.420   5.441  20.080  0.00  0.00    +0.000 OA
ATOM     29  H   UNL     1       7.834   6.214  19.642  0.00  0.00    +0.000 HD
ENDBRANCH  26  28
ENDBRANCH  25  26
ENDBRANCH   2  25
TORSDOF 6
ENDMDL
MODEL 2
REMARK VINA RESULT:      -7.2      2.227      8.763
REMARK  Name = 
REMARK  7 active torsions:
REMARK  status: ('A' for Active; 'I' for Inactive)
REMARK    1  A    between atoms: C_1  and  C_2
REMARK    2  A    between atoms: N_4  and  C_5
REMARK    3  A    between atoms: C_13  and  C_14
REMARK    4  A    between atoms: C_15  and  C_16
REMARK    5  A    between atoms: C_15  and  C_20
REMARK    6  A    between atoms: C_16  and  C_17
REMARK    7  A    between atoms: C_17  and  O_19
REMARK                            x       y       z     vdW  Elec       q    Type
REMARK                         _______ _______ _______ _____ _____    ______ ____
ROOT
ATOM      1  C   UNL     1       3.930   6.959  18.093  0.00  0.00    +0.000 C 
ATOM      2  C   UNL     1       2.604   6.916  18.378  0.00  0.00    +0.000 C 
ENDROOT
BRANCH   2   3
ATOM      3  C   UNL     1       2.035   7.917  19.275  0.00  0.00    +0.000 A 
ATOM      4  N   UNL     1       1.812   7.690  20.558  0.00  0.00    +0.000 NA
ATOM      5  C   UNL     1       1.066   8.710  21.130  0.00  0.00    +0.000 A 
ATOM      6  C   UNL     1       0.612   8.762  22.467  0.00  0.00    +0.000 A 
ATOM      7  C   UNL     1      -0.167   9.840  22.900  0.00  0.00    +0.000 A 
ATOM      8  C   UNL     1      -0.491  10.870  22.021  0.00  0.00    +0.000 A 
ATOM      9  C   UNL     1      -0.039  10.851  20.695  0.00  0.00    +0.000 A 
ATOM     10  C   UNL     1       0.737   9.757  20.272  0.00  0.00    +0.000 A 
ATOM     11  S   UNL     1       1.419   9.436  18.721  0.00  0.00    +0.000 S 
ENDBRANCH   2   3
BRANCH   1  18
ATOM     12  C   UNL     1       5.323   4.101  19.020  0.00  0.00    +0.000 C 
ATOM     13  C   UNL     1       5.255   4.775  17.699  0.00  0.00    +0.000 A 
ATOM     14  N   UNL     1       5.684   4.088  16.635  0.00  0.00    +0.000 NA
ATOM     15  N   UNL     1       5.616   4.952  15.588  0.00  0.00    +0.000 N 
ATOM     16  C   UNL     1       5.015   6.135  15.986  0.00  0.00    +0.000 A 
ATOM     17 CL   UNL     1       4.499   7.315  14.859  0.00  0.00    +0.000 Cl
ATOM     18  C   UNL     1       4.755   6.055  17.339  0.00  0.00    +0.000 A 
BRANCH  15  19
ATOM     19  C   UNL     1       6.182   4.543  14.350  0.00  0.00    +0.000 A 
ATOM     20  C   UNL     1       7.351   5.182  13.882  0.00  0.00    +0.000 A 
ATOM     21  C   UNL     1       7.905   4.835  12.647  0.00  0.00    +0.000 A 
ATOM     22  C   UNL     1       7.285   3.873  11.854  0.00  0.00    +0.000 A 
ATOM     23  C   UNL     1       6.118   3.250  12.301  0.00  0.00    +0.000 A 
ATOM     24  C   UNL     1       5.575   3.570  13.550  0.00  0.00    +0.000 A 
ENDBRANCH  15  19
ENDBRANCH   1  18
BRANCH   2  25
ATOM     25  C   UNL     1       1.658   5.848  17.844  0.00  0.00    +0.000 C 
BRANCH  25  26
ATOM     26  C   UNL     1       1.823   4.583  18.672  0.00  0.00    +0.000 C 
ATOM     27  O   UNL     1       1.942   3.442  18.255  0.00  0.00    +0.000 OA
BRANCH  26  28
ATOM     28  O   UNL     1       1.857   4.821  19.999  0.00  0.00    +0.000 OA
ATOM     29  H   UNL     1       1.654   3.951  20.399  0.00  0.00    +0.000 HD
ENDBRANCH  26  28
ENDBRANCH  25  26
ENDBRANCH   2  25
TORSDOF 6
ENDMDL
MODEL 3
REMARK VINA RESULT:      -7.1      0.938      1.400
REMARK  Name = 
REMARK  7 active torsions:
REMARK  status: ('A' for Active; 'I' for Inactive)
REMARK    1  A    between atoms: C_1  and  C_2
REMARK    2  A    between atoms: N_4  and  C_5
REMARK    3  A    between atoms: C_13  and  C_14
REMARK    4  A    between atoms: C_15  and  C_16
REMARK    5  A    between atoms: C_15  and  C_20
REMARK    6  A    between atoms: C_16  and  C_17
REMARK    7  A    between atoms: C_17  and  O_19
REMARK                            x       y       z     vdW  Elec       q    Type
REMARK                         _______ _______ _______ _____ _____    ______ ____
ROOT
ATOM      1  C   UNL     1       3.426   6.381  17.438  0.00  0.00    +0.000 C 
ATOM      2  C   UNL     1       4.730   6.014  17.348  0.00  0.00    +0.000 C 
ENDROOT
BRANCH   2   3
ATOM      3  C   UNL     1       5.275   5.636  16.048  0.00  0.00    +0.000 A 
ATOM      4  N   UNL     1       4.690   4.761  15.249  0.00  0.00    +0.000 NA
ATOM      5  C   UNL     1       5.515   4.412  14.190  0.00  0.00    +0.000 A 
ATOM      6  C   UNL     1       5.221   3.469  13.179  0.00  0.00    +0.000 A 
ATOM      7  C   UNL     1       6.168   3.188  12.188  0.00  0.00    +0.000 A 
ATOM      8  C   UNL     1       7.397   3.840  12.186  0.00  0.00    +0.000 A 
ATOM      9  C   UNL     1       7.707   4.791  13.167  0.00  0.00    +0.000 A 
ATOM     10  C   UNL     1       6.749   5.058  14.162  0.00  0.00    +0.000 A 
ATOM     11  S   UNL     1       6.834   6.146  15.496  0.00  0.00    +0.000 S 
ENDBRANCH   2   3
BRANCH   1  18
ATOM     12  C   UNL     1       2.663   4.505  20.058  0.00  0.00    +0.000 C 
ATOM     13  C   UNL     1       2.389   5.933  19.762  0.00  0.00    +0.000 A 
ATOM     14  N   UNL     1       1.878   6.679  20.749  0.00  0.00    +0.000 NA
ATOM     15  N   UNL     1       1.626   7.894  20.197  0.00  0.00    +0.000 N 
ATOM     16  C   UNL     1       2.108   7.938  18.899  0.00  0.00    +0.000 A 
ATOM     17 CL   UNL     1       2.230   9.404  18.024  0.00  0.00    +0.000 Cl
ATOM     18  C   UNL     1       2.620   6.695  18.586  0.00  0.00    +0.000 A 
BRANCH  15  19
ATOM     19  C   UNL     1       0.908   8.843  20.977  0.00  0.00    +0.000 A 
ATOM     20  C   UNL     1       0.895   8.710  22.382  0.00  0.00    +0.000 A 
ATOM     21  C   UNL     1       0.161   9.598  23.173  0.00  0.00    +0.000 A 
ATOM     22  C   UNL     1      -0.589  10.605  22.572  0.00  0.00    +0.000 A 
ATOM     23  C   UNL     1      -0.596  10.731  21.182  0.00  0.00    +0.000 A 
ATOM     24  C   UNL     1       0.160   9.865  20.385  0.00  0.00    +0.000 A 
ENDBRANCH  15  19
ENDBRANCH   1  18
BRANCH   2  25
ATOM     25  C   UNL     1       5.671   5.930  18.544  0.00  0.00    +0.000 C 
BRANCH  25  26
ATOM     26  C   UNL     1       6.383   4.587  18.519  0.00  0.00    +0.000 C 
ATOM     27  O   UNL     1       7.578   4.391  18.358  0.00  0.00    +0.000 OA
BRANCH  26  28
ATOM     28  O   UNL     1       5.552   3.546  18.726  0.00  0.00    +0.000 OA
ATOM     29  H   UNL     1       5.886   2.854  18.118  0.00  0.00    +0.000 HD
ENDBRANCH  26  28
ENDBRANCH  25  26
ENDBRANCH   2  25
TORSDOF 6
ENDMDL
MODEL 4
REMARK VINA RESULT:      -7.1      0.741      1.013
REMARK  Name = 
REMARK  7 active torsions:
REMARK  status: ('A' for Active; 'I' for Inactive)
REMARK    1  A    between atoms: C_1  and  C_2
REMARK    2  A    between atoms: N_4  and  C_5
REMARK    3  A    between atoms: C_13  and  C_14
REMARK    4  A    between atoms: C_15  and  C_16
REMARK    5  A    between atoms: C_15  and  C_20
REMARK    6  A    between atoms: C_16  and  C_17
REMARK    7  A    between atoms: C_17  and  O_19
REMARK                            x       y       z     vdW  Elec       q    Type
REMARK                         _______ _______ _______ _____ _____    ______ ____
ROOT
ATOM      1  C   UNL     1       3.747   5.464  17.496  0.00  0.00    +0.000 C 
ATOM      2  C   UNL     1       5.073   5.605  17.248  0.00  0.00    +0.000 C 
ENDROOT
BRANCH   2   3
ATOM      3  C   UNL     1       5.634   5.039  16.025  0.00  0.00    +0.000 A 
ATOM      4  N   UNL     1       6.591   5.630  15.332  0.00  0.00    +0.000 NA
ATOM      5  C   UNL     1       6.785   5.009  14.106  0.00  0.00    +0.000 A 
ATOM      6  C   UNL     1       7.694   5.411  13.103  0.00  0.00    +0.000 A 
ATOM      7  C   UNL     1       7.758   4.708  11.894  0.00  0.00    +0.000 A 
ATOM      8  C   UNL     1       6.935   3.607  11.678  0.00  0.00    +0.000 A 
ATOM      9  C   UNL     1       6.037   3.177  12.663  0.00  0.00    +0.000 A 
ATOM     10  C   UNL     1       5.978   3.898  13.870  0.00  0.00    +0.000 A 
ATOM     11  S   UNL     1       4.981   3.635  15.252  0.00  0.00    +0.000 S 
ENDBRANCH   2   3
BRANCH   1  18
ATOM     12  C   UNL     1       3.076   3.714  20.227  0.00  0.00    +0.000 C 
ATOM     13  C   UNL     1       2.776   5.122  19.867  0.00  0.00    +0.000 A 
ATOM     14  N   UNL     1       2.282   5.911  20.829  0.00  0.00    +0.000 NA
ATOM     15  N   UNL     1       2.000   7.094  20.223  0.00  0.00    +0.000 N 
ATOM     16  C   UNL     1       2.448   7.078  18.912  0.00  0.00    +0.000 A 
ATOM     17 CL   UNL     1       2.528   8.499  17.963  0.00  0.00    +0.000 Cl
ATOM     18  C   UNL     1       2.966   5.826  18.649  0.00  0.00    +0.000 A 
BRANCH  15  19
ATOM     19  C   UNL     1       1.292   8.073  20.974  0.00  0.00    +0.000 A 
ATOM     20  C   UNL     1      -0.036   7.808  21.371  0.00  0.00    +0.000 A 
ATOM     21  C   UNL     1      -0.775   8.768  22.069  0.00  0.00    +0.000 A 
ATOM     22  C   UNL     1      -0.209  10.009  22.349  0.00  0.00    +0.000 A 
ATOM     23  C   UNL     1       1.097  10.286  21.942  0.00  0.00    +0.000 A 
ATOM     24  C   UNL     1       1.853   9.318  21.271  0.00  0.00    +0.000 A 
ENDBRANCH  15  19
ENDBRANCH   1  18
BRANCH   2  25
ATOM     25  C   UNL     1       6.044   6.297  18.198  0.00  0.00    +0.000 C 
BRANCH  25  26
ATOM     26  C   UNL     1       6.640   5.260  19.136  0.00  0.00    +0.000 C 
ATOM     27  O   UNL     1       7.256   5.471  20.169  0.00  0.00    +0.000 OA
BRANCH  26  28
ATOM     28  O   UNL     1       6.408   3.993  18.738  0.00  0.00    +0.000 OA
ATOM     29  H   UNL     1       6.890   3.448  19.393  0.00  0.00    +0.000 HD
ENDBRANCH  26  28
ENDBRANCH  25  26
ENDBRANCH   2  25
TORSDOF 6
ENDMDL
MODEL 5
REMARK VINA RESULT:      -7.0      4.122      6.387
REMARK  Name = 
REMARK  7 active torsions:
REMARK  status: ('A' for Active; 'I' for Inactive)
REMARK    1  A    between atoms: C_1  and  C_2
REMARK    2  A    between atoms: N_4  and  C_5
REMARK    3  A    between atoms: C_13  and  C_14
REMARK    4  A    between atoms: C_15  and  C_16
REMARK    5  A    between atoms: C_15  and  C_20
REMARK    6  A    between atoms: C_16  and  C_17
REMARK    7  A    between atoms: C_17  and  O_19
REMARK                            x       y       z     vdW  Elec       q    Type
REMARK                         _______ _______ _______ _____ _____    ______ ____
ROOT
ATOM      1  C   UNL     1       1.084   9.672  18.904  0.00  0.00    +0.000 C 
ATOM      2  C   UNL     1       1.081   8.698  19.848  0.00  0.00    +0.000 C 
ENDROOT
BRANCH   2   3
ATOM      3  C   UNL     1       1.933   7.527  19.666  0.00  0.00    +0.000 A 
ATOM      4  N   UNL     1       2.747   7.383  18.634  0.00  0.00    +0.000 NA
ATOM      5  C   UNL     1       3.270   6.099  18.577  0.00  0.00    +0.000 A 
ATOM      6  C   UNL     1       4.133   5.594  17.580  0.00  0.00    +0.000 A 
ATOM      7  C   UNL     1       4.555   4.261  17.630  0.00  0.00    +0.000 A 
ATOM      8  C   UNL     1       4.135   3.429  18.663  0.00  0.00    +0.000 A 
ATOM      9  C   UNL     1       3.292   3.910  19.674  0.00  0.00    +0.000 A 
ATOM     10  C   UNL     1       2.870   5.250  19.607  0.00  0.00    +0.000 A 
ATOM     11  S   UNL     1       1.834   6.123  20.673  0.00  0.00    +0.000 S 
ENDBRANCH   2   3
BRANCH   1  18
ATOM     12  C   UNL     1      -2.031  10.015  17.833  0.00  0.00    +0.000 C 
ATOM     13  C   UNL     1      -1.088  10.991  18.434  0.00  0.00    +0.000 A 
ATOM     14  N   UNL     1      -1.573  12.195  18.758  0.00  0.00    +0.000 NA
ATOM     15  N   UNL     1      -0.504  12.920  19.181  0.00  0.00    +0.000 N 
ATOM     16  C   UNL     1       0.622  12.115  19.244  0.00  0.00    +0.000 A 
ATOM     17 CL   UNL     1       2.060  12.625  20.018  0.00  0.00    +0.000 Cl
ATOM     18  C   UNL     1       0.283  10.860  18.782  0.00  0.00    +0.000 A 
BRANCH  15  19
ATOM     19  C   UNL     1      -0.696  14.308  19.424  0.00  0.00    +0.000 A 
ATOM     20  C   UNL     1      -1.581  14.712  20.446  0.00  0.00    +0.000 A 
ATOM     21  C   UNL     1      -1.827  16.067  20.679  0.00  0.00    +0.000 A 
ATOM     22  C   UNL     1      -1.219  17.030  19.878  0.00  0.00    +0.000 A 
ATOM     23  C   UNL     1      -0.357  16.638  18.853  0.00  0.00    +0.000 A 
ATOM     24  C   UNL     1      -0.082  15.284  18.634  0.00  0.00    +0.000 A 
ENDBRANCH  15  19
ENDBRANCH   1  18
BRANCH   2  25
ATOM     25  C   UNL     1       0.202   8.727  21.092  0.00  0.00    +0.000 C 
BRANCH  25  26
ATOM     26  C   UNL     1       0.803   9.693  22.100  0.00  0.00    +0.000 C 
ATOM     27  O   UNL     1       0.333  10.758  22.469  0.00  0.00    +0.000 OA
BRANCH  26  28
ATOM     28  O   UNL     1       1.968   9.256  22.620  0.00  0.00    +0.000 OA
ATOM     29  H   UNL     1       2.603   9.343  21.879  0.00  0.00    +0.000 HD
ENDBRANCH  26  28
ENDBRANCH  25  26
ENDBRANCH   2  25
TORSDOF 6
ENDMDL
MODEL 6
REMARK VINA RESULT:      -6.9      0.956      1.586
REMARK  Name = 
REMARK  7 active torsions:
REMARK  status: ('A' for Active; 'I' for Inactive)
REMARK    1  A    between atoms: C_1  and  C_2
REMARK    2  A    between atoms: N_4  and  C_5
REMARK    3  A    between atoms: C_13  and  C_14
REMARK    4  A    between atoms: C_15  and  C_16
REMARK    5  A    between atoms: C_15  and  C_20
REMARK    6  A    between atoms: C_16  and  C_17
REMARK    7  A    between atoms: C_17  and  O_19
REMARK                            x       y       z     vdW  Elec       q    Type
REMARK                         _______ _______ _______ _____ _____    ______ ____
ROOT
ATOM      1  C   UNL     1       3.378   6.435  17.501  0.00  0.00    +0.000 C 
ATOM      2  C   UNL     1       4.671   6.029  17.438  0.00  0.00    +0.000 C 
ENDROOT
BRANCH   2   3
ATOM      3  C   UNL     1       5.242   5.667  16.145  0.00  0.00    +0.000 A 
ATOM      4  N   UNL     1       4.662   4.816  15.316  0.00  0.00    +0.000 NA
ATOM      5  C   UNL     1       5.507   4.472  14.270  0.00  0.00    +0.000 A 
ATOM      6  C   UNL     1       5.222   3.553  13.236  0.00  0.00    +0.000 A 
ATOM      7  C   UNL     1       6.188   3.274  12.262  0.00  0.00    +0.000 A 
ATOM      8  C   UNL     1       7.428   3.906  12.302  0.00  0.00    +0.000 A 
ATOM      9  C   UNL     1       7.729   4.833  13.307  0.00  0.00    +0.000 A 
ATOM     10  C   UNL     1       6.751   5.098  14.284  0.00  0.00    +0.000 A 
ATOM     11  S   UNL     1       6.822   6.160  15.640  0.00  0.00    +0.000 S 
ENDBRANCH   2   3
BRANCH   1  18
ATOM     12  C   UNL     1       2.553   4.549  20.094  0.00  0.00    +0.000 C 
ATOM     13  C   UNL     1       2.290   5.980  19.800  0.00  0.00    +0.000 A 
ATOM     14  N   UNL     1       1.762   6.722  20.780  0.00  0.00    +0.000 NA
ATOM     15  N   UNL     1       1.526   7.942  20.229  0.00  0.00    +0.000 N 
ATOM     16  C   UNL     1       2.036   7.990  18.942  0.00  0.00    +0.000 A 
ATOM     17 CL   UNL     1       2.182   9.460  18.078  0.00  0.00    +0.000 Cl
ATOM     18  C   UNL     1       2.549   6.747  18.633  0.00  0.00    +0.000 A 
BRANCH  15  19
ATOM     19  C   UNL     1       0.797   8.890  20.999  0.00  0.00    +0.000 A 
ATOM     20  C   UNL     1       0.263  10.031  20.362  0.00  0.00    +0.000 A 
ATOM     21  C   UNL     1      -0.417  11.003  21.099  0.00  0.00    +0.000 A 
ATOM     22  C   UNL     1      -0.545  10.865  22.479  0.00  0.00    +0.000 A 
ATOM     23  C   UNL     1      -0.003   9.749  23.119  0.00  0.00    +0.000 A 
ATOM     24  C   UNL     1       0.653   8.756  22.384  0.00  0.00    +0.000 A 
ENDBRANCH  15  19
ENDBRANCH   1  18
BRANCH   2  25
ATOM     25  C   UNL     1       5.575   5.887  18.657  0.00  0.00    +0.000 C 
BRANCH  25  26
ATOM     26  C   UNL     1       6.003   4.435  18.788  0.00  0.00    +0.000 C 
ATOM     27  O   UNL     1       5.314   3.494  19.151  0.00  0.00    +0.000 OA
BRANCH  26  28
ATOM     28  O   UNL     1       7.285   4.228  18.425  0.00  0.00    +0.000 OA
ATOM     29  H   UNL     1       7.759   4.132  19.277  0.00  0.00    +0.000 HD
ENDBRANCH  26  28
ENDBRANCH  25  26
ENDBRANCH   2  25
TORSDOF 6
ENDMDL
MODEL 7
REMARK VINA RESULT:      -6.9      5.117      9.970
REMARK  Name = 
REMARK  7 active torsions:
REMARK  status: ('A' for Active; 'I' for Inactive)
REMARK    1  A    between atoms: C_1  and  C_2
REMARK    2  A    between atoms: N_4  and  C_5
REMARK    3  A    between atoms: C_13  and  C_14
REMARK    4  A    between atoms: C_15  and  C_16
REMARK    5  A    between atoms: C_15  and  C_20
REMARK    6  A    between atoms: C_16  and  C_17
REMARK    7  A    between atoms: C_17  and  O_19
REMARK                            x       y       z     vdW  Elec       q    Type
REMARK                         _______ _______ _______ _____ _____    ______ ____
ROOT
ATOM      1  C   UNL     1       0.538  11.454  20.091  0.00  0.00    +0.000 C 
ATOM      2  C   UNL     1      -0.657  11.902  19.628  0.00  0.00    +0.000 C 
ENDROOT
BRANCH   2   3
ATOM      3  C   UNL     1      -0.916  13.338  19.600  0.00  0.00    +0.000 A 
ATOM      4  N   UNL     1      -0.351  14.154  18.727  0.00  0.00    +0.000 NA
ATOM      5  C   UNL     1      -0.583  15.483  19.052  0.00  0.00    +0.000 A 
ATOM      6  C   UNL     1      -0.086  16.609  18.359  0.00  0.00    +0.000 A 
ATOM      7  C   UNL     1      -0.372  17.898  18.824  0.00  0.00    +0.000 A 
ATOM      8  C   UNL     1      -1.152  18.077  19.962  0.00  0.00    +0.000 A 
ATOM      9  C   UNL     1      -1.671  16.977  20.657  0.00  0.00    +0.000 A 
ATOM     10  C   UNL     1      -1.370  15.687  20.183  0.00  0.00    +0.000 A 
ATOM     11  S   UNL     1      -1.837  14.154  20.817  0.00  0.00    +0.000 S 
ENDBRANCH   2   3
BRANCH   1  18
ATOM     12  C   UNL     1       0.249   9.548  22.784  0.00  0.00    +0.000 C 
ATOM     13  C   UNL     1       0.784   9.257  21.431  0.00  0.00    +0.000 A 
ATOM     14  N   UNL     1       1.080   7.984  21.146  0.00  0.00    +0.000 NA
ATOM     15  N   UNL     1       1.641   8.005  19.909  0.00  0.00    +0.000 N 
ATOM     16  C   UNL     1       1.567   9.281  19.374  0.00  0.00    +0.000 A 
ATOM     17 CL   UNL     1       1.901   9.595  17.725  0.00  0.00    +0.000 Cl
ATOM     18  C   UNL     1       1.009  10.115  20.321  0.00  0.00    +0.000 A 
BRANCH  15  19
ATOM     19  C   UNL     1       2.218   6.801  19.420  0.00  0.00    +0.000 A 
ATOM     20  C   UNL     1       1.959   5.589  20.095  0.00  0.00    +0.000 A 
ATOM     21  C   UNL     1       2.550   4.396  19.667  0.00  0.00    +0.000 A 
ATOM     22  C   UNL     1       3.426   4.405  18.585  0.00  0.00    +0.000 A 
ATOM     23  C   UNL     1       3.702   5.603  17.924  0.00  0.00    +0.000 A 
ATOM     24  C   UNL     1       3.091   6.796  18.327  0.00  0.00    +0.000 A 
ENDBRANCH  15  19
ENDBRANCH   1  18
BRANCH   2  25
ATOM     25  C   UNL     1      -1.782  10.987  19.162  0.00  0.00    +0.000 C 
BRANCH  25  26
ATOM     26  C   UNL     1      -1.639  10.749  17.668  0.00  0.00    +0.000 C 
ATOM     27  O   UNL     1      -1.521   9.673  17.102  0.00  0.00    +0.000 OA
BRANCH  26  28
ATOM     28  O   UNL     1      -1.677  11.888  16.947  0.00  0.00    +0.000 OA
ATOM     29  H   UNL     1      -2.576  12.241  17.112  0.00  0.00    +0.000 HD
ENDBRANCH  26  28
ENDBRANCH  25  26
ENDBRANCH   2  25
TORSDOF 6
ENDMDL
MODEL 8
REMARK VINA RESULT:      -6.9      4.457      6.828
REMARK  Name = 
REMARK  7 active torsions:
REMARK  status: ('A' for Active; 'I' for Inactive)
REMARK    1  A    between atoms: C_1  and  C_2
REMARK    2  A    between atoms: N_4  and  C_5
REMARK    3  A    between atoms: C_13  and  C_14
REMARK    4  A    between atoms: C_15  and  C_16
REMARK    5  A    between atoms: C_15  and  C_20
REMARK    6  A    between atoms: C_16  and  C_17
REMARK    7  A    between atoms: C_17  and  O_19
REMARK                            x       y       z     vdW  Elec       q    Type
REMARK                         _______ _______ _______ _____ _____    ______ ____
ROOT
ATOM      1  C   UNL     1       0.065   9.956  19.292  0.00  0.00    +0.000 C 
ATOM      2  C   UNL     1       0.550   8.980  20.101  0.00  0.00    +0.000 C 
ENDROOT
BRANCH   2   3
ATOM      3  C   UNL     1       1.652   8.146  19.629  0.00  0.00    +0.000 A 
ATOM      4  N   UNL     1       2.330   8.409  18.525  0.00  0.00    +0.000 NA
ATOM      5  C   UNL     1       3.163   7.354  18.181  0.00  0.00    +0.000 A 
ATOM      6  C   UNL     1       3.990   7.284  17.037  0.00  0.00    +0.000 A 
ATOM      7  C   UNL     1       4.754   6.136  16.796  0.00  0.00    +0.000 A 
ATOM      8  C   UNL     1       4.712   5.065  17.683  0.00  0.00    +0.000 A 
ATOM      9  C   UNL     1       3.914   5.116  18.833  0.00  0.00    +0.000 A 
ATOM     10  C   UNL     1       3.145   6.273  19.059  0.00  0.00    +0.000 A 
ATOM     11  S   UNL     1       2.064   6.630  20.354  0.00  0.00    +0.000 S 
ENDBRANCH   2   3
BRANCH   1  18
ATOM     12  C   UNL     1      -0.117  12.871  20.854  0.00  0.00    +0.000 C 
ATOM     13  C   UNL     1      -1.109  12.138  20.028  0.00  0.00    +0.000 A 
ATOM     14  N   UNL     1      -2.234  12.783  19.701  0.00  0.00    +0.000 NA
ATOM     15  N   UNL     1      -3.003  11.873  19.048  0.00  0.00    +0.000 N 
ATOM     16  C   UNL     1      -2.291  10.700  18.853  0.00  0.00    +0.000 A 
ATOM     17 CL   UNL     1      -2.845   9.465  17.806  0.00  0.00    +0.000 Cl
ATOM     18  C   UNL     1      -1.059  10.837  19.460  0.00  0.00    +0.000 A 
BRANCH  15  19
ATOM     19  C   UNL     1      -4.342  12.235  18.736  0.00  0.00    +0.000 A 
ATOM     20  C   UNL     1      -5.189  12.695  19.767  0.00  0.00    +0.000 A 
ATOM     21  C   UNL     1      -6.524  13.013  19.502  0.00  0.00    +0.000 A 
ATOM     22  C   UNL     1      -7.035  12.847  18.217  0.00  0.00    +0.000 A 
ATOM     23  C   UNL     1      -6.209  12.374  17.196  0.00  0.00    +0.000 A 
ATOM     24  C   UNL     1      -4.863  12.083  17.447  0.00  0.00    +0.000 A 
ENDBRANCH  15  19
ENDBRANCH   1  18
BRANCH   2  25
ATOM     25  C   UNL     1      -0.014   8.664  21.481  0.00  0.00    +0.000 C 
BRANCH  25  26
ATOM     26  C   UNL     1       0.724   9.496  22.518  0.00  0.00    +0.000 C 
ATOM     27  O   UNL     1       1.924   9.491  22.746  0.00  0.00    +0.000 OA
BRANCH  26  28
ATOM     28  O   UNL     1      -0.088  10.322  23.207  0.00  0.00    +0.000 OA
ATOM     29  H   UNL     1       0.270  11.214  23.021  0.00  0.00    +0.000 HD
ENDBRANCH  26  28
ENDBRANCH  25  26
ENDBRANCH   2  25
TORSDOF 6
ENDMDL
MODEL 9
REMARK VINA RESULT:      -6.8      4.006      6.180
REMARK  Name = 
REMARK  7 active torsions:
REMARK  status: ('A' for Active; 'I' for Inactive)
REMARK    1  A    between atoms: C_1  and  C_2
REMARK    2  A    between atoms: N_4  and  C_5
REMARK    3  A    between atoms: C_13  and  C_14
REMARK    4  A    between atoms: C_15  and  C_16
REMARK    5  A    between atoms: C_15  and  C_20
REMARK    6  A    between atoms: C_16  and  C_17
REMARK    7  A    between atoms: C_17  and  O_19
REMARK                            x       y       z     vdW  Elec       q    Type
REMARK                         _______ _______ _______ _____ _____    ______ ____
ROOT
ATOM      1  C   UNL     1       0.721   9.758  19.277  0.00  0.00    +0.000 C 
ATOM      2  C   UNL     1       1.144   8.667  19.966  0.00  0.00    +0.000 C 
ENDROOT
BRANCH   2   3
ATOM      3  C   UNL     1       2.161   7.803  19.376  0.00  0.00    +0.000 A 
ATOM      4  N   UNL     1       2.854   8.138  18.301  0.00  0.00    +0.000 NA
ATOM      5  C   UNL     1       3.585   7.063  17.815  0.00  0.00    +0.000 A 
ATOM      6  C   UNL     1       4.395   7.061  16.658  0.00  0.00    +0.000 A 
ATOM      7  C   UNL     1       5.050   5.889  16.264  0.00  0.00    +0.000 A 
ATOM      8  C   UNL     1       4.914   4.724  17.013  0.00  0.00    +0.000 A 
ATOM      9  C   UNL     1       4.130   4.704  18.174  0.00  0.00    +0.000 A 
ATOM     10  C   UNL     1       3.472   5.888  18.554  0.00  0.00    +0.000 A 
ATOM     11  S   UNL     1       2.437   6.178  19.901  0.00  0.00    +0.000 S 
ENDBRANCH   2   3
BRANCH   1  18
ATOM     12  C   UNL     1       0.888  12.662  20.860  0.00  0.00    +0.000 C 
ATOM     13  C   UNL     1      -0.230  11.999  20.145  0.00  0.00    +0.000 A 
ATOM     14  N   UNL     1      -1.343  12.714  19.946  0.00  0.00    +0.000 NA
ATOM     15  N   UNL     1      -2.232  11.858  19.377  0.00  0.00    +0.000 N 
ATOM     16  C   UNL     1      -1.619  10.647  19.101  0.00  0.00    +0.000 A 
ATOM     17 CL   UNL     1      -2.357   9.459  18.117  0.00  0.00    +0.000 Cl
ATOM     18  C   UNL     1      -0.322  10.703  19.571  0.00  0.00    +0.000 A 
BRANCH  15  19
ATOM     19  C   UNL     1      -3.574  12.303  19.215  0.00  0.00    +0.000 A 
ATOM     20  C   UNL     1      -4.188  13.032  20.256  0.00  0.00    +0.000 A 
ATOM     21  C   UNL     1      -5.519  13.442  20.147  0.00  0.00    +0.000 A 
ATOM     22  C   UNL     1      -6.259  13.105  19.017  0.00  0.00    +0.000 A 
ATOM     23  C   UNL     1      -5.664  12.368  17.991  0.00  0.00    +0.000 A 
ATOM     24  C   UNL     1      -4.323  11.980  18.080  0.00  0.00    +0.000 A 
ENDBRANCH  15  19
ENDBRANCH   1  18
BRANCH   2  25
ATOM     25  C   UNL     1       0.588   8.255  21.324  0.00  0.00    +0.000 C 
BRANCH  25  26
ATOM     26  C   UNL     1       1.086   9.231  22.378  0.00  0.00    +0.000 C 
ATOM     27  O   UNL     1       0.413  10.007  23.038  0.00  0.00    +0.000 OA
BRANCH  26  28
ATOM     28  O   UNL     1       2.419   9.165  22.570  0.00  0.00    +0.000 OA
ATOM     29  H   UNL     1       2.689  10.101  22.671  0.00  0.00    +0.000 HD
ENDBRANCH  26  28
ENDBRANCH  25  26
ENDBRANCH   2  25
TORSDOF 6
ENDMDL
