MODEL 1
REMARK VINA RESULT:      -9.1      0.000      0.000
REMARK  Name = 
REMARK  8 active torsions:
REMARK  status: ('A' for Active; 'I' for Inactive)
REMARK    1  A    between atoms: C_1  and  C_2
REMARK    2  A    between atoms: C_6  and  C_7
REMARK    3  A    between atoms: N_9  and  C_10
REMARK    4  A    between atoms: C_10  and  C_11
REMARK    5  A    between atoms: N_13  and  C_14
REMARK    6  A    between atoms: C_14  and  C_15
REMARK    7  A    between atoms: N_18  and  C_19
REMARK    8  A    between atoms: C_19  and  C_20
REMARK                            x       y       z     vdW  Elec       q    Type
REMARK                         _______ _______ _______ _____ _____    ______ ____
ROOT
ATOM      1  C   UNL     1       4.766   3.200  18.803  0.00  0.00    +0.000 C 
ATOM      2  O   UNL     1       4.960   2.661  19.888  0.00  0.00    +0.000 OA
ATOM      3  N   UNL     1       3.716   2.893  17.964  0.00  0.00    +0.000 N 
ATOM      4  H   UNL     1       3.730   3.309  17.037  0.00  0.00    +0.000 HD
ENDROOT
BRANCH   1   5
ATOM      5  C   UNL     1       5.699   4.280  18.248  0.00  0.00    +0.000 C 
BRANCH   5   8
ATOM      6  C   UNL     1       6.385   5.118  16.035  0.00  0.00    +0.000 C 
ATOM      7  O   UNL     1       6.563   6.259  16.463  0.00  0.00    +0.000 OA
ATOM      8  N   UNL     1       5.972   4.084  16.842  0.00  0.00    +0.000 N 
ATOM      9  H   UNL     1       5.843   3.154  16.468  0.00  0.00    +0.000 HD
BRANCH   6  15
ATOM     10  C   UNL     1       5.261   2.587  11.820  0.00  0.00    +0.000 C 
ATOM     11  C   UNL     1       6.108   3.585  12.552  0.00  0.00    +0.000 A 
ATOM     12  C   UNL     1       7.152   4.254  11.904  0.00  0.00    +0.000 A 
ATOM     13  C   UNL     1       7.925   5.190  12.590  0.00  0.00    +0.000 A 
ATOM     14  C   UNL     1       7.667   5.464  13.933  0.00  0.00    +0.000 A 
ATOM     15  C   UNL     1       6.635   4.795  14.603  0.00  0.00    +0.000 A 
ATOM     16  C   UNL     1       5.853   3.861  13.905  0.00  0.00    +0.000 A 
ENDBRANCH   6  15
ENDBRANCH   5   8
ENDBRANCH   1   5
BRANCH   3  17
ATOM     17  C   UNL     1       2.527   2.152  18.377  0.00  0.00    +0.000 C 
BRANCH  17  18
ATOM     18  C   UNL     1       1.381   3.156  18.616  0.00  0.00    +0.000 C 
ATOM     19  C   UNL     1       1.416   4.311  17.609  0.00  0.00    +0.000 C 
ATOM     20  C   UNL     1       2.310   5.461  18.055  0.00  0.00    +0.000 C 
ATOM     21  N   UNL     1       1.817   6.000  19.323  0.00  0.00    +0.000 NA
ATOM     22  C   UNL     1       1.899   5.015  20.399  0.00  0.00    +0.000 C 
ATOM     23  C   UNL     1       1.251   3.664  20.068  0.00  0.00    +0.000 C 
BRANCH  21  24
ATOM     24  C   UNL     1       2.415   7.306  19.663  0.00  0.00    +0.000 C 
BRANCH  24  25
ATOM     25  C   UNL     1       1.491   8.343  20.272  0.00  0.00    +0.000 A 
ATOM     26  C   UNL     1       1.179   9.522  19.572  0.00  0.00    +0.000 A 
ATOM     27  C   UNL     1       0.340  10.487  20.134  0.00  0.00    +0.000 A 
ATOM     28  C   UNL     1      -0.200  10.278  21.399  0.00  0.00    +0.000 A 
ATOM     29 CL   UNL     1      -1.235  11.465  22.094  0.00  0.00    +0.000 Cl
ATOM     30  C   UNL     1       0.087   9.112  22.105  0.00  0.00    +0.000 A 
ATOM     31  C   UNL     1       0.927   8.147  21.543  0.00  0.00    +0.000 A 
ENDBRANCH  24  25
ENDBRANCH  21  24
ENDBRANCH  17  18
ENDBRANCH   3  17
TORSDOF 7
ENDMDL
MODEL 2
REMARK VINA RESULT:      -9.0      0.632      1.092
REMARK  Name = 
REMARK  8 active torsions:
REMARK  status: ('A' for Active; 'I' for Inactive)
REMARK    1  A    between atoms: C_1  and  C_2
REMARK    2  A    between atoms: C_6  and  C_7
REMARK    3  A    between atoms: N_9  and  C_10
REMARK    4  A    between atoms: C_10  and  C_11
REMARK    5  A    between atoms: N_13  and  C_14
REMARK    6  A    between atoms: C_14  and  C_15
REMARK    7  A    between atoms: N_18  and  C_19
REMARK    8  A    between atoms: C_19  and  C_20
REMARK                            x       y       z     vdW  Elec       q    Type
REMARK                         _______ _______ _______ _____ _____    ______ ____
ROOT
ATOM      1  C   UNL     1       4.918   3.692  18.758  0.00  0.00    +0.000 C 
ATOM      2  O   UNL     1       5.207   3.144  19.818  0.00  0.00    +0.000 OA
ATOM      3  N   UNL     1       3.864   3.314  17.955  0.00  0.00    +0.000 N 
ATOM      4  H   UNL     1       3.799   3.755  17.041  0.00  0.00    +0.000 HD
ENDROOT
BRANCH   1   5
ATOM      5  C   UNL     1       5.726   4.867  18.199  0.00  0.00    +0.000 C 
BRANCH   5   8
ATOM      6  C   UNL     1       7.006   4.480  16.130  0.00  0.00    +0.000 C 
ATOM      7  O   UNL     1       8.029   4.197  16.752  0.00  0.00    +0.000 OA
ATOM      8  N   UNL     1       5.828   4.811  16.758  0.00  0.00    +0.000 N 
ATOM      9  H   UNL     1       4.998   5.029  16.224  0.00  0.00    +0.000 HD
BRANCH   6  15
ATOM     10  C   UNL     1       5.199   2.717  11.762  0.00  0.00    +0.000 C 
ATOM     11  C   UNL     1       6.129   3.622  12.517  0.00  0.00    +0.000 A 
ATOM     12  C   UNL     1       7.001   4.481  11.839  0.00  0.00    +0.000 A 
ATOM     13  C   UNL     1       7.852   5.326  12.550  0.00  0.00    +0.000 A 
ATOM     14  C   UNL     1       7.845   5.318  13.944  0.00  0.00    +0.000 A 
ATOM     15  C   UNL     1       6.989   4.456  14.640  0.00  0.00    +0.000 A 
ATOM     16  C   UNL     1       6.127   3.614  13.920  0.00  0.00    +0.000 A 
ENDBRANCH   6  15
ENDBRANCH   5   8
ENDBRANCH   1   5
BRANCH   3  17
ATOM     17  C   UNL     1       2.765   2.458  18.394  0.00  0.00    +0.000 C 
BRANCH  17  18
ATOM     18  C   UNL     1       1.559   3.351  18.752  0.00  0.00    +0.000 C 
ATOM     19  C   UNL     1       1.374   4.490  17.743  0.00  0.00    +0.000 C 
ATOM     20  C   UNL     1       2.195   5.726  18.086  0.00  0.00    +0.000 C 
ATOM     21  N   UNL     1       1.791   6.232  19.398  0.00  0.00    +0.000 NA
ATOM     22  C   UNL     1       2.082   5.275  20.463  0.00  0.00    +0.000 C 
ATOM     23  C   UNL     1       1.537   3.864  20.207  0.00  0.00    +0.000 C 
BRANCH  21  24
ATOM     24  C   UNL     1       2.293   7.595  19.667  0.00  0.00    +0.000 C 
BRANCH  24  25
ATOM     25  C   UNL     1       1.362   8.530  20.416  0.00  0.00    +0.000 A 
ATOM     26  C   UNL     1       1.014   8.272  21.753  0.00  0.00    +0.000 A 
ATOM     27  C   UNL     1       0.146   9.122  22.443  0.00  0.00    +0.000 A 
ATOM     28  C   UNL     1      -0.376  10.242  21.803  0.00  0.00    +0.000 A 
ATOM     29 CL   UNL     1      -1.445  11.291  22.650  0.00  0.00    +0.000 Cl
ATOM     30  C   UNL     1      -0.034  10.522  20.482  0.00  0.00    +0.000 A 
ATOM     31  C   UNL     1       0.833   9.671  19.792  0.00  0.00    +0.000 A 
ENDBRANCH  24  25
ENDBRANCH  21  24
ENDBRANCH  17  18
ENDBRANCH   3  17
TORSDOF 7
ENDMDL
MODEL 3
REMARK VINA RESULT:      -8.7      1.100      1.275
REMARK  Name = 
REMARK  8 active torsions:
REMARK  status: ('A' for Active; 'I' for Inactive)
REMARK    1  A    between atoms: C_1  and  C_2
REMARK    2  A    between atoms: C_6  and  C_7
REMARK    3  A    between atoms: N_9  and  C_10
REMARK    4  A    between atoms: C_10  and  C_11
REMARK    5  A    between atoms: N_13  and  C_14
REMARK    6  A    between atoms: C_14  and  C_15
REMARK    7  A    between atoms: N_18  and  C_19
REMARK    8  A    between atoms: C_19  and  C_20
REMARK                            x       y       z     vdW  Elec       q    Type
REMARK                         _______ _______ _______ _____ _____    ______ ____
ROOT
ATOM      1  C   UNL     1       5.024   3.816  18.590  0.00  0.00    +0.000 C 
ATOM      2  O   UNL     1       5.389   3.330  19.656  0.00  0.00    +0.000 OA
ATOM      3  N   UNL     1       3.986   3.322  17.830  0.00  0.00    +0.000 N 
ATOM      4  H   UNL     1       3.858   3.726  16.906  0.00  0.00    +0.000 HD
ENDROOT
BRANCH   1   5
ATOM      5  C   UNL     1       5.709   5.039  17.973  0.00  0.00    +0.000 C 
BRANCH   5   8
ATOM      6  C   UNL     1       7.007   4.602  15.924  0.00  0.00    +0.000 C 
ATOM      7  O   UNL     1       8.036   4.376  16.561  0.00  0.00    +0.000 OA
ATOM      8  N   UNL     1       5.818   4.925  16.535  0.00  0.00    +0.000 N 
ATOM      9  H   UNL     1       4.984   5.096  15.990  0.00  0.00    +0.000 HD
BRANCH   6  15
ATOM     10  C   UNL     1       5.266   2.606  11.632  0.00  0.00    +0.000 C 
ATOM     11  C   UNL     1       6.167   3.567  12.349  0.00  0.00    +0.000 A 
ATOM     12  C   UNL     1       7.018   4.421  11.638  0.00  0.00    +0.000 A 
ATOM     13  C   UNL     1       7.843   5.319  12.314  0.00  0.00    +0.000 A 
ATOM     14  C   UNL     1       7.831   5.370  13.707  0.00  0.00    +0.000 A 
ATOM     15  C   UNL     1       6.996   4.515  14.437  0.00  0.00    +0.000 A 
ATOM     16  C   UNL     1       6.160   3.619  13.752  0.00  0.00    +0.000 A 
ENDBRANCH   6  15
ENDBRANCH   5   8
ENDBRANCH   1   5
BRANCH   3  17
ATOM     17  C   UNL     1       2.980   2.387  18.327  0.00  0.00    +0.000 C 
BRANCH  17  18
ATOM     18  C   UNL     1       1.711   3.182  18.698  0.00  0.00    +0.000 C 
ATOM     19  C   UNL     1       1.553   4.438  17.835  0.00  0.00    +0.000 C 
ATOM     20  C   UNL     1       2.289   5.645  18.403  0.00  0.00    +0.000 C 
ATOM     21  N   UNL     1       1.763   5.957  19.732  0.00  0.00    +0.000 NA
ATOM     22  C   UNL     1       2.014   4.876  20.682  0.00  0.00    +0.000 C 
ATOM     23  C   UNL     1       1.554   3.494  20.201  0.00  0.00    +0.000 C 
BRANCH  21  24
ATOM     24  C   UNL     1       2.180   7.287  20.217  0.00  0.00    +0.000 C 
BRANCH  24  25
ATOM     25  C   UNL     1       1.362   8.475  19.745  0.00  0.00    +0.000 A 
ATOM     26  C   UNL     1       1.356   8.844  18.389  0.00  0.00    +0.000 A 
ATOM     27  C   UNL     1       0.616   9.945  17.951  0.00  0.00    +0.000 A 
ATOM     28  C   UNL     1      -0.131  10.682  18.866  0.00  0.00    +0.000 A 
ATOM     29 CL   UNL     1      -1.044  12.038  18.329  0.00  0.00    +0.000 Cl
ATOM     30  C   UNL     1      -0.148  10.325  20.212  0.00  0.00    +0.000 A 
ATOM     31  C   UNL     1       0.594   9.225  20.650  0.00  0.00    +0.000 A 
ENDBRANCH  24  25
ENDBRANCH  21  24
ENDBRANCH  17  18
ENDBRANCH   3  17
TORSDOF 7
ENDMDL
MODEL 4
REMARK VINA RESULT:      -8.5      3.198      8.630
REMARK  Name = 
REMARK  8 active torsions:
REMARK  status: ('A' for Active; 'I' for Inactive)
REMARK    1  A    between atoms: C_1  and  C_2
REMARK    2  A    between atoms: C_6  and  C_7
REMARK    3  A    between atoms: N_9  and  C_10
REMARK    4  A    between atoms: C_10  and  C_11
REMARK    5  A    between atoms: N_13  and  C_14
REMARK    6  A    between atoms: C_14  and  C_15
REMARK    7  A    between atoms: N_18  and  C_19
REMARK    8  A    between atoms: C_19  and  C_20
REMARK                            x       y       z     vdW  Elec       q    Type
REMARK                         _______ _______ _______ _____ _____    ______ ____
ROOT
ATOM      1  C   UNL     1       2.614   6.240  19.759  0.00  0.00    +0.000 C 
ATOM      2  O   UNL     1       3.783   5.902  19.915  0.00  0.00    +0.000 OA
ATOM      3  N   UNL     1       1.533   5.424  20.011  0.00  0.00    +0.000 N 
ATOM      4  H   UNL     1       0.619   5.766  19.722  0.00  0.00    +0.000 HD
ENDROOT
BRANCH   1   5
ATOM      5  C   UNL     1       2.228   7.628  19.240  0.00  0.00    +0.000 C 
BRANCH   5   8
ATOM      6  C   UNL     1       0.712   9.472  19.852  0.00  0.00    +0.000 C 
ATOM      7  O   UNL     1       0.660   9.885  18.694  0.00  0.00    +0.000 OA
ATOM      8  N   UNL     1       1.448   8.366  20.209  0.00  0.00    +0.000 N 
ATOM      9  H   UNL     1       1.466   8.041  21.166  0.00  0.00    +0.000 HD
BRANCH   6  15
ATOM     10  C   UNL     1      -2.209  13.236  21.508  0.00  0.00    +0.000 C 
ATOM     11  C   UNL     1      -1.466  11.957  21.760  0.00  0.00    +0.000 A 
ATOM     12  C   UNL     1      -1.479  11.356  23.023  0.00  0.00    +0.000 A 
ATOM     13  C   UNL     1      -0.795  10.161  23.244  0.00  0.00    +0.000 A 
ATOM     14  C   UNL     1      -0.087   9.557  22.205  0.00  0.00    +0.000 A 
ATOM     15  C   UNL     1      -0.050  10.150  20.938  0.00  0.00    +0.000 A 
ATOM     16  C   UNL     1      -0.749  11.348  20.718  0.00  0.00    +0.000 A 
ENDBRANCH   6  15
ENDBRANCH   5   8
ENDBRANCH   1   5
BRANCH   3  17
ATOM     17  C   UNL     1       1.599   4.196  20.799  0.00  0.00    +0.000 C 
BRANCH  17  18
ATOM     18  C   UNL     1       1.769   3.003  19.837  0.00  0.00    +0.000 C 
ATOM     19  C   UNL     1       3.173   2.395  19.925  0.00  0.00    +0.000 C 
ATOM     20  C   UNL     1       4.176   3.081  19.006  0.00  0.00    +0.000 C 
ATOM     21  N   UNL     1       3.730   2.957  17.617  0.00  0.00    +0.000 NA
ATOM     22  C   UNL     1       2.466   3.653  17.388  0.00  0.00    +0.000 C 
ATOM     23  C   UNL     1       1.353   3.278  18.376  0.00  0.00    +0.000 C 
BRANCH  21  24
ATOM     24  C   UNL     1       4.785   3.300  16.643  0.00  0.00    +0.000 C 
BRANCH  24  25
ATOM     25  C   UNL     1       5.562   4.578  16.898  0.00  0.00    +0.000 A 
ATOM     26  C   UNL     1       6.850   4.531  17.459  0.00  0.00    +0.000 A 
ATOM     27  C   UNL     1       7.564   5.705  17.709  0.00  0.00    +0.000 A 
ATOM     28  C   UNL     1       6.998   6.937  17.393  0.00  0.00    +0.000 A 
ATOM     29 CL   UNL     1       7.876   8.385  17.700  0.00  0.00    +0.000 Cl
ATOM     30  C   UNL     1       5.728   7.004  16.826  0.00  0.00    +0.000 A 
ATOM     31  C   UNL     1       5.013   5.829  16.577  0.00  0.00    +0.000 A 
ENDBRANCH  24  25
ENDBRANCH  21  24
ENDBRANCH  17  18
ENDBRANCH   3  17
TORSDOF 7
ENDMDL
MODEL 5
REMARK VINA RESULT:      -8.4      2.411      4.224
REMARK  Name = 
REMARK  8 active torsions:
REMARK  status: ('A' for Active; 'I' for Inactive)
REMARK    1  A    between atoms: C_1  and  C_2
REMARK    2  A    between atoms: C_6  and  C_7
REMARK    3  A    between atoms: N_9  and  C_10
REMARK    4  A    between atoms: C_10  and  C_11
REMARK    5  A    between atoms: N_13  and  C_14
REMARK    6  A    between atoms: C_14  and  C_15
REMARK    7  A    between atoms: N_18  and  C_19
REMARK    8  A    between atoms: C_19  and  C_20
REMARK                            x       y       z     vdW  Elec       q    Type
REMARK                         _______ _______ _______ _____ _____    ______ ____
ROOT
ATOM      1  C   UNL     1       2.189   3.497  20.630  0.00  0.00    +0.000 C 
ATOM      2  O   UNL     1       2.042   3.391  21.844  0.00  0.00    +0.000 OA
ATOM      3  N   UNL     1       1.594   4.476  19.863  0.00  0.00    +0.000 N 
ATOM      4  H   UNL     1       1.683   4.387  18.854  0.00  0.00    +0.000 HD
ENDROOT
BRANCH   1   5
ATOM      5  C   UNL     1       3.052   2.523  19.823  0.00  0.00    +0.000 C 
BRANCH   5   8
ATOM      6  C   UNL     1       3.895   3.600  17.773  0.00  0.00    +0.000 C 
ATOM      7  O   UNL     1       2.839   3.405  17.172  0.00  0.00    +0.000 OA
ATOM      8  N   UNL     1       4.084   3.211  19.079  0.00  0.00    +0.000 N 
ATOM      9  H   UNL     1       4.958   3.392  19.553  0.00  0.00    +0.000 HD
BRANCH   6  15
ATOM     10  C   UNL     1       7.508   7.121  17.757  0.00  0.00    +0.000 C 
ATOM     11  C   UNL     1       6.786   5.992  17.080  0.00  0.00    +0.000 A 
ATOM     12  C   UNL     1       7.169   5.555  15.807  0.00  0.00    +0.000 A 
ATOM     13  C   UNL     1       6.500   4.498  15.193  0.00  0.00    +0.000 A 
ATOM     14  C   UNL     1       5.437   3.869  15.842  0.00  0.00    +0.000 A 
ATOM     15  C   UNL     1       5.030   4.301  17.110  0.00  0.00    +0.000 A 
ATOM     16  C   UNL     1       5.714   5.359  17.729  0.00  0.00    +0.000 A 
ENDBRANCH   6  15
ENDBRANCH   5   8
ENDBRANCH   1   5
BRANCH   3  17
ATOM     17  C   UNL     1       0.998   5.693  20.406  0.00  0.00    +0.000 C 
BRANCH  17  18
ATOM     18  C   UNL     1       2.051   6.819  20.359  0.00  0.00    +0.000 C 
ATOM     19  C   UNL     1       1.559   8.089  21.061  0.00  0.00    +0.000 C 
ATOM     20  C   UNL     1       0.762   9.005  20.141  0.00  0.00    +0.000 C 
ATOM     21  N   UNL     1       1.604   9.422  19.018  0.00  0.00    +0.000 NA
ATOM     22  C   UNL     1       1.994   8.290  18.182  0.00  0.00    +0.000 C 
ATOM     23  C   UNL     1       2.620   7.122  18.956  0.00  0.00    +0.000 C 
BRANCH  21  24
ATOM     24  C   UNL     1       1.032  10.554  18.262  0.00  0.00    +0.000 C 
BRANCH  24  25
ATOM     25  C   UNL     1      -0.482  10.658  18.228  0.00  0.00    +0.000 A 
ATOM     26  C   UNL     1      -1.145  11.659  18.958  0.00  0.00    +0.000 A 
ATOM     27  C   UNL     1      -2.538  11.751  18.943  0.00  0.00    +0.000 A 
ATOM     28  C   UNL     1      -3.281  10.847  18.189  0.00  0.00    +0.000 A 
ATOM     29 CL   UNL     1      -4.998  10.958  18.168  0.00  0.00    +0.000 Cl
ATOM     30  C   UNL     1      -2.643   9.855  17.449  0.00  0.00    +0.000 A 
ATOM     31  C   UNL     1      -1.248   9.762  17.466  0.00  0.00    +0.000 A 
ENDBRANCH  24  25
ENDBRANCH  21  24
ENDBRANCH  17  18
ENDBRANCH   3  17
TORSDOF 7
ENDMDL
MODEL 6
REMARK VINA RESULT:      -8.3      2.273      4.210
REMARK  Name = 
REMARK  8 active torsions:
REMARK  status: ('A' for Active; 'I' for Inactive)
REMARK    1  A    between atoms: C_1  and  C_2
REMARK    2  A    between atoms: C_6  and  C_7
REMARK    3  A    between atoms: N_9  and  C_10
REMARK    4  A    between atoms: C_10  and  C_11
REMARK    5  A    between atoms: N_13  and  C_14
REMARK    6  A    between atoms: C_14  and  C_15
REMARK    7  A    between atoms: N_18  and  C_19
REMARK    8  A    between atoms: C_19  and  C_20
REMARK                            x       y       z     vdW  Elec       q    Type
REMARK                         _______ _______ _______ _____ _____    ______ ____
ROOT
ATOM      1  C   UNL     1       1.486   3.340  19.833  0.00  0.00    +0.000 C 
ATOM      2  O   UNL     1       0.958   2.817  20.810  0.00  0.00    +0.000 OA
ATOM      3  N   UNL     1       1.395   4.681  19.531  0.00  0.00    +0.000 N 
ATOM      4  H   UNL     1       1.763   4.977  18.630  0.00  0.00    +0.000 HD
ENDROOT
BRANCH   1   5
ATOM      5  C   UNL     1       2.304   2.535  18.818  0.00  0.00    +0.000 C 
BRANCH   5   8
ATOM      6  C   UNL     1       4.571   3.496  18.718  0.00  0.00    +0.000 C 
ATOM      7  O   UNL     1       4.912   2.936  19.760  0.00  0.00    +0.000 OA
ATOM      8  N   UNL     1       3.314   3.348  18.178  0.00  0.00    +0.000 N 
ATOM      9  H   UNL     1       3.063   3.811  17.316  0.00  0.00    +0.000 HD
BRANCH   6  15
ATOM     10  C   UNL     1       6.848   4.876  14.434  0.00  0.00    +0.000 C 
ATOM     11  C   UNL     1       6.638   5.045  15.910  0.00  0.00    +0.000 A 
ATOM     12  C   UNL     1       7.327   6.031  16.625  0.00  0.00    +0.000 A 
ATOM     13  C   UNL     1       7.115   6.189  17.994  0.00  0.00    +0.000 A 
ATOM     14  C   UNL     1       6.216   5.359  18.664  0.00  0.00    +0.000 A 
ATOM     15  C   UNL     1       5.527   4.359  17.969  0.00  0.00    +0.000 A 
ATOM     16  C   UNL     1       5.736   4.211  16.589  0.00  0.00    +0.000 A 
ENDBRANCH   6  15
ENDBRANCH   5   8
ENDBRANCH   1   5
BRANCH   3  17
ATOM     17  C   UNL     1       0.961   5.706  20.475  0.00  0.00    +0.000 C 
BRANCH  17  18
ATOM     18  C   UNL     1       1.996   6.849  20.471  0.00  0.00    +0.000 C 
ATOM     19  C   UNL     1       1.461   8.106  21.166  0.00  0.00    +0.000 C 
ATOM     20  C   UNL     1       0.679   9.016  20.228  0.00  0.00    +0.000 C 
ATOM     21  N   UNL     1       1.549   9.456  19.137  0.00  0.00    +0.000 NA
ATOM     22  C   UNL     1       1.984   8.337  18.305  0.00  0.00    +0.000 C 
ATOM     23  C   UNL     1       2.604   7.173  19.090  0.00  0.00    +0.000 C 
BRANCH  21  24
ATOM     24  C   UNL     1       0.983  10.584  18.371  0.00  0.00    +0.000 C 
BRANCH  24  25
ATOM     25  C   UNL     1      -0.530  10.658  18.279  0.00  0.00    +0.000 A 
ATOM     26  C   UNL     1      -1.244  11.612  19.024  0.00  0.00    +0.000 A 
ATOM     27  C   UNL     1      -2.638  11.676  18.956  0.00  0.00    +0.000 A 
ATOM     28  C   UNL     1      -3.329  10.789  18.135  0.00  0.00    +0.000 A 
ATOM     29 CL   UNL     1      -5.046  10.865  18.047  0.00  0.00    +0.000 Cl
ATOM     30  C   UNL     1      -2.639   9.844  17.380  0.00  0.00    +0.000 A 
ATOM     31  C   UNL     1      -1.244   9.780  17.450  0.00  0.00    +0.000 A 
ENDBRANCH  24  25
ENDBRANCH  21  24
ENDBRANCH  17  18
ENDBRANCH   3  17
TORSDOF 7
ENDMDL
MODEL 7
REMARK VINA RESULT:      -8.2      3.625      8.039
REMARK  Name = 
REMARK  8 active torsions:
REMARK  status: ('A' for Active; 'I' for Inactive)
REMARK    1  A    between atoms: C_1  and  C_2
REMARK    2  A    between atoms: C_6  and  C_7
REMARK    3  A    between atoms: N_9  and  C_10
REMARK    4  A    between atoms: C_10  and  C_11
REMARK    5  A    between atoms: N_13  and  C_14
REMARK    6  A    between atoms: C_14  and  C_15
REMARK    7  A    between atoms: N_18  and  C_19
REMARK    8  A    between atoms: C_19  and  C_20
REMARK                            x       y       z     vdW  Elec       q    Type
REMARK                         _______ _______ _______ _____ _____    ______ ____
ROOT
ATOM      1  C   UNL     1       1.687   7.072  20.297  0.00  0.00    +0.000 C 
ATOM      2  O   UNL     1       1.284   7.445  21.395  0.00  0.00    +0.000 OA
ATOM      3  N   UNL     1       1.871   5.751  19.950  0.00  0.00    +0.000 N 
ATOM      4  H   UNL     1       2.330   5.568  19.061  0.00  0.00    +0.000 HD
ENDROOT
BRANCH   1   5
ATOM      5  C   UNL     1       2.049   8.057  19.182  0.00  0.00    +0.000 C 
BRANCH   5   8
ATOM      6  C   UNL     1       0.306   9.798  19.220  0.00  0.00    +0.000 C 
ATOM      7  O   UNL     1       0.767  10.313  20.239  0.00  0.00    +0.000 OA
ATOM      8  N   UNL     1       0.876   8.696  18.627  0.00  0.00    +0.000 N 
ATOM      9  H   UNL     1       0.483   8.298  17.785  0.00  0.00    +0.000 HD
BRANCH   6  15
ATOM     10  C   UNL     1      -2.956   9.968  15.377  0.00  0.00    +0.000 C 
ATOM     11  C   UNL     1      -2.492  10.467  16.713  0.00  0.00    +0.000 A 
ATOM     12  C   UNL     1      -3.189  11.478  17.385  0.00  0.00    +0.000 A 
ATOM     13  C   UNL     1      -2.757  11.925  18.632  0.00  0.00    +0.000 A 
ATOM     14  C   UNL     1      -1.619  11.372  19.220  0.00  0.00    +0.000 A 
ATOM     15  C   UNL     1      -0.900  10.369  18.558  0.00  0.00    +0.000 A 
ATOM     16  C   UNL     1      -1.346   9.914  17.307  0.00  0.00    +0.000 A 
ENDBRANCH   6  15
ENDBRANCH   5   8
ENDBRANCH   1   5
BRANCH   3  17
ATOM     17  C   UNL     1       1.311   4.624  20.689  0.00  0.00    +0.000 C 
BRANCH  17  18
ATOM     18  C   UNL     1       1.701   3.319  19.965  0.00  0.00    +0.000 C 
ATOM     19  C   UNL     1       3.172   2.957  20.195  0.00  0.00    +0.000 C 
ATOM     20  C   UNL     1       4.109   3.614  19.189  0.00  0.00    +0.000 C 
ATOM     21  N   UNL     1       3.756   3.179  17.837  0.00  0.00    +0.000 NA
ATOM     22  C   UNL     1       2.418   3.623  17.456  0.00  0.00    +0.000 C 
ATOM     23  C   UNL     1       1.323   3.265  18.470  0.00  0.00    +0.000 C 
BRANCH  21  24
ATOM     24  C   UNL     1       4.798   3.500  16.841  0.00  0.00    +0.000 C 
BRANCH  24  25
ATOM     25  C   UNL     1       5.616   4.754  17.088  0.00  0.00    +0.000 A 
ATOM     26  C   UNL     1       6.907   4.668  17.638  0.00  0.00    +0.000 A 
ATOM     27  C   UNL     1       7.659   5.819  17.881  0.00  0.00    +0.000 A 
ATOM     28  C   UNL     1       7.129   7.068  17.568  0.00  0.00    +0.000 A 
ATOM     29 CL   UNL     1       8.054   8.488  17.866  0.00  0.00    +0.000 Cl
ATOM     30  C   UNL     1       5.857   7.174  17.011  0.00  0.00    +0.000 A 
ATOM     31  C   UNL     1       5.104   6.022  16.770  0.00  0.00    +0.000 A 
ENDBRANCH  24  25
ENDBRANCH  21  24
ENDBRANCH  17  18
ENDBRANCH   3  17
TORSDOF 7
ENDMDL
MODEL 8
REMARK VINA RESULT:      -8.1      4.028      8.607
REMARK  Name = 
REMARK  8 active torsions:
REMARK  status: ('A' for Active; 'I' for Inactive)
REMARK    1  A    between atoms: C_1  and  C_2
REMARK    2  A    between atoms: C_6  and  C_7
REMARK    3  A    between atoms: N_9  and  C_10
REMARK    4  A    between atoms: C_10  and  C_11
REMARK    5  A    between atoms: N_13  and  C_14
REMARK    6  A    between atoms: C_14  and  C_15
REMARK    7  A    between atoms: N_18  and  C_19
REMARK    8  A    between atoms: C_19  and  C_20
REMARK                            x       y       z     vdW  Elec       q    Type
REMARK                         _______ _______ _______ _____ _____    ______ ____
ROOT
ATOM      1  C   UNL     1       1.735   8.139  19.921  0.00  0.00    +0.000 C 
ATOM      2  O   UNL     1       1.516   8.484  21.078  0.00  0.00    +0.000 OA
ATOM      3  N   UNL     1       1.988   6.840  19.537  0.00  0.00    +0.000 N 
ATOM      4  H   UNL     1       2.282   6.693  18.575  0.00  0.00    +0.000 HD
ENDROOT
BRANCH   1   5
ATOM      5  C   UNL     1       1.765   9.139  18.762  0.00  0.00    +0.000 C 
BRANCH   5   8
ATOM      6  C   UNL     1      -0.343  10.415  18.731  0.00  0.00    +0.000 C 
ATOM      7  O   UNL     1       0.040  11.172  19.624  0.00  0.00    +0.000 OA
ATOM      8  N   UNL     1       0.441   9.397  18.240  0.00  0.00    +0.000 N 
ATOM      9  H   UNL     1       0.107   8.795  17.500  0.00  0.00    +0.000 HD
BRANCH   6  15
ATOM     10  C   UNL     1      -5.016  12.313  18.784  0.00  0.00    +0.000 C 
ATOM     11  C   UNL     1      -3.951  11.492  18.117  0.00  0.00    +0.000 A 
ATOM     12  C   UNL     1      -4.190  10.869  16.887  0.00  0.00    +0.000 A 
ATOM     13  C   UNL     1      -3.190  10.119  16.270  0.00  0.00    +0.000 A 
ATOM     14  C   UNL     1      -1.942   9.978  16.878  0.00  0.00    +0.000 A 
ATOM     15  C   UNL     1      -1.689  10.583  18.116  0.00  0.00    +0.000 A 
ATOM     16  C   UNL     1      -2.696  11.345  18.728  0.00  0.00    +0.000 A 
ENDBRANCH   6  15
ENDBRANCH   5   8
ENDBRANCH   1   5
BRANCH   3  17
ATOM     17  C   UNL     1       1.707   5.671  20.366  0.00  0.00    +0.000 C 
BRANCH  17  18
ATOM     18  C   UNL     1       1.986   4.401  19.536  0.00  0.00    +0.000 C 
ATOM     19  C   UNL     1       3.226   3.653  20.037  0.00  0.00    +0.000 C 
ATOM     20  C   UNL     1       4.519   4.161  19.411  0.00  0.00    +0.000 C 
ATOM     21  N   UNL     1       4.459   3.988  17.959  0.00  0.00    +0.000 NA
ATOM     22  C   UNL     1       3.403   4.798  17.359  0.00  0.00    +0.000 C 
ATOM     23  C   UNL     1       2.024   4.617  18.008  0.00  0.00    +0.000 C 
BRANCH  21  24
ATOM     24  C   UNL     1       5.775   4.145  17.308  0.00  0.00    +0.000 C 
BRANCH  24  25
ATOM     25  C   UNL     1       6.524   5.435  17.583  0.00  0.00    +0.000 A 
ATOM     26  C   UNL     1       7.555   5.472  18.538  0.00  0.00    +0.000 A 
ATOM     27  C   UNL     1       8.239   6.661  18.806  0.00  0.00    +0.000 A 
ATOM     28  C   UNL     1       7.901   7.821  18.116  0.00  0.00    +0.000 A 
ATOM     29 CL   UNL     1       8.742   9.286  18.444  0.00  0.00    +0.000 Cl
ATOM     30  C   UNL     1       6.891   7.803  17.158  0.00  0.00    +0.000 A 
ATOM     31  C   UNL     1       6.206   6.614  16.891  0.00  0.00    +0.000 A 
ENDBRANCH  24  25
ENDBRANCH  21  24
ENDBRANCH  17  18
ENDBRANCH   3  17
TORSDOF 7
ENDMDL
MODEL 9
REMARK VINA RESULT:      -8.0      4.231      8.527
REMARK  Name = 
REMARK  8 active torsions:
REMARK  status: ('A' for Active; 'I' for Inactive)
REMARK    1  A    between atoms: C_1  and  C_2
REMARK    2  A    between atoms: C_6  and  C_7
REMARK    3  A    between atoms: N_9  and  C_10
REMARK    4  A    between atoms: C_10  and  C_11
REMARK    5  A    between atoms: N_13  and  C_14
REMARK    6  A    between atoms: C_14  and  C_15
REMARK    7  A    between atoms: N_18  and  C_19
REMARK    8  A    between atoms: C_19  and  C_20
REMARK                            x       y       z     vdW  Elec       q    Type
REMARK                         _______ _______ _______ _____ _____    ______ ____
ROOT
ATOM      1  C   UNL     1       1.100   8.225  20.744  0.00  0.00    +0.000 C 
ATOM      2  O   UNL     1       0.373   8.117  21.727  0.00  0.00    +0.000 OA
ATOM      3  N   UNL     1       1.968   7.245  20.314  0.00  0.00    +0.000 N 
ATOM      4  H   UNL     1       2.612   7.496  19.567  0.00  0.00    +0.000 HD
ENDROOT
BRANCH   1   5
ATOM      5  C   UNL     1       1.129   9.493  19.886  0.00  0.00    +0.000 C 
BRANCH   5   8
ATOM      6  C   UNL     1      -0.450  10.921  18.647  0.00  0.00    +0.000 C 
ATOM      7  O   UNL     1       0.305  11.892  18.697  0.00  0.00    +0.000 OA
ATOM      8  N   UNL     1      -0.123   9.703  19.194  0.00  0.00    +0.000 N 
ATOM      9  H   UNL     1      -0.757   8.918  19.131  0.00  0.00    +0.000 HD
BRANCH   6  15
ATOM     10  C   UNL     1      -3.412  10.109  14.645  0.00  0.00    +0.000 C 
ATOM     11  C   UNL     1      -3.220  10.632  16.038  0.00  0.00    +0.000 A 
ATOM     12  C   UNL     1      -4.282  11.214  16.740  0.00  0.00    +0.000 A 
ATOM     13  C   UNL     1      -4.097  11.685  18.039  0.00  0.00    +0.000 A 
ATOM     14  C   UNL     1      -2.847  11.584  18.649  0.00  0.00    +0.000 A 
ATOM     15  C   UNL     1      -1.769  11.017  17.959  0.00  0.00    +0.000 A 
ATOM     16  C   UNL     1      -1.963  10.535  16.655  0.00  0.00    +0.000 A 
ENDBRANCH   6  15
ENDBRANCH   5   8
ENDBRANCH   1   5
BRANCH   3  17
ATOM     17  C   UNL     1       1.908   5.851  20.743  0.00  0.00    +0.000 C 
BRANCH  17  18
ATOM     18  C   UNL     1       1.986   4.948  19.495  0.00  0.00    +0.000 C 
ATOM     19  C   UNL     1       2.947   3.773  19.701  0.00  0.00    +0.000 C 
ATOM     20  C   UNL     1       4.390   4.117  19.353  0.00  0.00    +0.000 C 
ATOM     21  N   UNL     1       4.472   4.510  17.945  0.00  0.00    +0.000 NA
ATOM     22  C   UNL     1       3.714   5.730  17.677  0.00  0.00    +0.000 C 
ATOM     23  C   UNL     1       2.262   5.690  18.170  0.00  0.00    +0.000 C 
BRANCH  21  24
ATOM     24  C   UNL     1       5.859   4.545  17.439  0.00  0.00    +0.000 C 
BRANCH  24  25
ATOM     25  C   UNL     1       6.675   5.781  17.768  0.00  0.00    +0.000 A 
ATOM     26  C   UNL     1       6.521   6.959  17.018  0.00  0.00    +0.000 A 
ATOM     27  C   UNL     1       7.280   8.095  17.306  0.00  0.00    +0.000 A 
ATOM     28  C   UNL     1       8.196   8.065  18.353  0.00  0.00    +0.000 A 
ATOM     29 CL   UNL     1       9.133   9.463  18.712  0.00  0.00    +0.000 Cl
ATOM     30  C   UNL     1       8.356   6.911  19.116  0.00  0.00    +0.000 A 
ATOM     31  C   UNL     1       7.597   5.774  18.826  0.00  0.00    +0.000 A 
ENDBRANCH  24  25
ENDBRANCH  21  24
ENDBRANCH  17  18
ENDBRANCH   3  17
TORSDOF 7
ENDMDL
