MODEL 1
REMARK VINA RESULT:      -5.5      0.000      0.000
REMARK  Name = 
REMARK  11 active torsions:
REMARK  status: ('A' for Active; 'I' for Inactive)
REMARK    1  A    between atoms: C_1  and  C_2
REMARK    2  A    between atoms: C_2  and  O_3
REMARK    3  A    between atoms: O_3  and  C_4
REMARK    4  A    between atoms: C_4  and  C_6
REMARK    5  A    between atoms: C_6  and  O_7
REMARK    6  A    between atoms: C_6  and  C_8
REMARK    7  A    between atoms: C_6  and  C_12
REMARK    8  A    between atoms: C_8  and  C_9
REMARK    9  A    between atoms: C_9  and  O_11
REMARK   10  A    between atoms: C_12  and  C_13
REMARK   11  A    between atoms: C_13  and  O_15
REMARK                            x       y       z     vdW  Elec       q    Type
REMARK                         _______ _______ _______ _____ _____    ______ ____
ROOT
ATOM      1  C   UNL     1       5.852   4.779  17.130  0.00  0.00    +0.000 C 
ENDROOT
BRANCH   1   2
ATOM      2  C   UNL     1       4.964   3.873  18.012  0.00  0.00    +0.000 C 
ATOM      3  O   UNL     1       5.175   3.627  19.191  0.00  0.00    +0.000 OA
BRANCH   2   4
ATOM      4  O   UNL     1       4.005   3.278  17.239  0.00  0.00    +0.000 OA
BRANCH   4   6
ATOM      5  C   UNL     1       1.959   4.484  17.776  0.00  0.00    +0.000 C 
ATOM      6  C   UNL     1       2.701   3.164  17.837  0.00  0.00    +0.000 C 
ENDBRANCH   4   6
ENDBRANCH   2   4
ENDBRANCH   1   2
BRANCH   1   7
ATOM      7  O   UNL     1       7.195   4.214  17.161  0.00  0.00    +0.000 OA
ATOM      8  H   UNL     1       7.252   3.690  17.988  0.00  0.00    +0.000 HD
ENDBRANCH   1   7
BRANCH   1   9
ATOM      9  C   UNL     1       5.392   4.807  15.668  0.00  0.00    +0.000 C 
BRANCH   9  10
ATOM     10  C   UNL     1       6.518   4.548  14.709  0.00  0.00    +0.000 C 
ATOM     11  O   UNL     1       7.438   5.332  14.540  0.00  0.00    +0.000 OA
BRANCH  10  12
ATOM     12  O   UNL     1       6.430   3.378  14.047  0.00  0.00    +0.000 OA
ATOM     13  H   UNL     1       5.748   2.745  14.356  0.00  0.00    +0.000 HD
ENDBRANCH  10  12
ENDBRANCH   9  10
ENDBRANCH   1   9
BRANCH   1  14
ATOM     14  C   UNL     1       5.958   6.159  17.780  0.00  0.00    +0.000 C 
BRANCH  14  15
ATOM     15  C   UNL     1       7.386   6.625  17.839  0.00  0.00    +0.000 C 
ATOM     16  O   UNL     1       8.083   6.539  18.838  0.00  0.00    +0.000 OA
BRANCH  15  17
ATOM     17  O   UNL     1       7.806   7.226  16.705  0.00  0.00    +0.000 OA
ATOM     18  H   UNL     1       8.591   6.768  16.321  0.00  0.00    +0.000 HD
ENDBRANCH  15  17
ENDBRANCH  14  15
ENDBRANCH   1  14
TORSDOF 10
ENDMDL
MODEL 2
REMARK VINA RESULT:      -5.3      1.243      4.487
REMARK  Name = 
REMARK  11 active torsions:
REMARK  status: ('A' for Active; 'I' for Inactive)
REMARK    1  A    between atoms: C_1  and  C_2
REMARK    2  A    between atoms: C_2  and  O_3
REMARK    3  A    between atoms: O_3  and  C_4
REMARK    4  A    between atoms: C_4  and  C_6
REMARK    5  A    between atoms: C_6  and  O_7
REMARK    6  A    between atoms: C_6  and  C_8
REMARK    7  A    between atoms: C_6  and  C_12
REMARK    8  A    between atoms: C_8  and  C_9
REMARK    9  A    between atoms: C_9  and  O_11
REMARK   10  A    between atoms: C_12  and  C_13
REMARK   11  A    between atoms: C_13  and  O_15
REMARK                            x       y       z     vdW  Elec       q    Type
REMARK                         _______ _______ _______ _____ _____    ______ ____
ROOT
ATOM      1  C   UNL     1       5.902   4.689  16.531  0.00  0.00    +0.000 C 
ENDROOT
BRANCH   1   2
ATOM      2  C   UNL     1       7.296   5.101  17.054  0.00  0.00    +0.000 C 
ATOM      3  O   UNL     1       8.081   4.348  17.612  0.00  0.00    +0.000 OA
BRANCH   2   4
ATOM      4  O   UNL     1       7.450   6.454  16.930  0.00  0.00    +0.000 OA
BRANCH   4   6
ATOM      5  C   UNL     1       8.204   8.590  17.825  0.00  0.00    +0.000 C 
ATOM      6  C   UNL     1       7.831   7.153  18.129  0.00  0.00    +0.000 C 
ENDBRANCH   4   6
ENDBRANCH   2   4
ENDBRANCH   1   2
BRANCH   1   7
ATOM      7  O   UNL     1       5.955   3.255  16.272  0.00  0.00    +0.000 OA
ATOM      8  H   UNL     1       6.070   2.825  17.145  0.00  0.00    +0.000 HD
ENDBRANCH   1   7
BRANCH   1   9
ATOM      9  C   UNL     1       4.792   4.936  17.559  0.00  0.00    +0.000 C 
BRANCH   9  10
ATOM     10  C   UNL     1       4.371   3.677  18.260  0.00  0.00    +0.000 C 
ATOM     11  O   UNL     1       3.337   3.085  17.995  0.00  0.00    +0.000 OA
BRANCH  10  12
ATOM     12  O   UNL     1       5.228   3.253  19.209  0.00  0.00    +0.000 OA
ATOM     13  H   UNL     1       5.880   3.905  19.539  0.00  0.00    +0.000 HD
ENDBRANCH  10  12
ENDBRANCH   9  10
ENDBRANCH   1   9
BRANCH   1  14
ATOM     14  C   UNL     1       5.660   5.354  15.175  0.00  0.00    +0.000 C 
BRANCH  14  15
ATOM     15  C   UNL     1       6.582   4.803  14.124  0.00  0.00    +0.000 C 
ATOM     16  O   UNL     1       6.336   3.801  13.469  0.00  0.00    +0.000 OA
BRANCH  15  17
ATOM     17  O   UNL     1       7.751   5.471  14.024  0.00  0.00    +0.000 OA
ATOM     18  H   UNL     1       7.929   5.755  13.097  0.00  0.00    +0.000 HD
ENDBRANCH  15  17
ENDBRANCH  14  15
ENDBRANCH   1  14
TORSDOF 10
ENDMDL
MODEL 3
REMARK VINA RESULT:      -5.3      1.477      4.451
REMARK  Name = 
REMARK  11 active torsions:
REMARK  status: ('A' for Active; 'I' for Inactive)
REMARK    1  A    between atoms: C_1  and  C_2
REMARK    2  A    between atoms: C_2  and  O_3
REMARK    3  A    between atoms: O_3  and  C_4
REMARK    4  A    between atoms: C_4  and  C_6
REMARK    5  A    between atoms: C_6  and  O_7
REMARK    6  A    between atoms: C_6  and  C_8
REMARK    7  A    between atoms: C_6  and  C_12
REMARK    8  A    between atoms: C_8  and  C_9
REMARK    9  A    between atoms: C_9  and  O_11
REMARK   10  A    between atoms: C_12  and  C_13
REMARK   11  A    between atoms: C_13  and  O_15
REMARK                            x       y       z     vdW  Elec       q    Type
REMARK                         _______ _______ _______ _____ _____    ______ ____
ROOT
ATOM      1  C   UNL     1       6.506   4.696  17.160  0.00  0.00    +0.000 C 
ENDROOT
BRANCH   1   2
ATOM      2  C   UNL     1       6.938   4.774  15.680  0.00  0.00    +0.000 C 
ATOM      3  O   UNL     1       7.610   5.674  15.197  0.00  0.00    +0.000 OA
BRANCH   2   4
ATOM      4  O   UNL     1       6.335   3.771  14.972  0.00  0.00    +0.000 OA
BRANCH   4   6
ATOM      5  C   UNL     1       6.350   3.509  12.551  0.00  0.00    +0.000 C 
ATOM      6  C   UNL     1       5.693   4.168  13.747  0.00  0.00    +0.000 C 
ENDBRANCH   4   6
ENDBRANCH   2   4
ENDBRANCH   1   2
BRANCH   1   7
ATOM      7  O   UNL     1       7.478   3.851  17.841  0.00  0.00    +0.000 OA
ATOM      8  H   UNL     1       7.121   3.695  18.741  0.00  0.00    +0.000 HD
ENDBRANCH   1   7
BRANCH   1   9
ATOM      9  C   UNL     1       6.517   6.066  17.848  0.00  0.00    +0.000 C 
BRANCH   9  10
ATOM     10  C   UNL     1       7.447   6.108  19.026  0.00  0.00    +0.000 C 
ATOM     11  O   UNL     1       7.287   5.420  20.021  0.00  0.00    +0.000 OA
BRANCH  10  12
ATOM     12  O   UNL     1       8.475   6.969  18.896  0.00  0.00    +0.000 OA
ATOM     13  H   UNL     1       8.772   7.168  17.984  0.00  0.00    +0.000 HD
ENDBRANCH  10  12
ENDBRANCH   9  10
ENDBRANCH   1   9
BRANCH   1  14
ATOM     14  C   UNL     1       5.168   3.960  17.253  0.00  0.00    +0.000 C 
BRANCH  14  15
ATOM     15  C   UNL     1       4.693   3.868  18.675  0.00  0.00    +0.000 C 
ATOM     16  O   UNL     1       3.773   4.535  19.124  0.00  0.00    +0.000 OA
BRANCH  15  17
ATOM     17  O   UNL     1       5.432   3.036  19.440  0.00  0.00    +0.000 OA
ATOM     18  H   UNL     1       6.354   3.368  19.552  0.00  0.00    +0.000 HD
ENDBRANCH  15  17
ENDBRANCH  14  15
ENDBRANCH   1  14
TORSDOF 10
ENDMDL
MODEL 4
REMARK VINA RESULT:      -5.2      0.990      1.519
REMARK  Name = 
REMARK  11 active torsions:
REMARK  status: ('A' for Active; 'I' for Inactive)
REMARK    1  A    between atoms: C_1  and  C_2
REMARK    2  A    between atoms: C_2  and  O_3
REMARK    3  A    between atoms: O_3  and  C_4
REMARK    4  A    between atoms: C_4  and  C_6
REMARK    5  A    between atoms: C_6  and  O_7
REMARK    6  A    between atoms: C_6  and  C_8
REMARK    7  A    between atoms: C_6  and  C_12
REMARK    8  A    between atoms: C_8  and  C_9
REMARK    9  A    between atoms: C_9  and  O_11
REMARK   10  A    between atoms: C_12  and  C_13
REMARK   11  A    between atoms: C_13  and  O_15
REMARK                            x       y       z     vdW  Elec       q    Type
REMARK                         _______ _______ _______ _____ _____    ______ ____
ROOT
ATOM      1  C   UNL     1       5.709   4.949  16.797  0.00  0.00    +0.000 C 
ENDROOT
BRANCH   1   2
ATOM      2  C   UNL     1       4.606   4.093  17.456  0.00  0.00    +0.000 C 
ATOM      3  O   UNL     1       3.619   3.663  16.876  0.00  0.00    +0.000 OA
BRANCH   2   4
ATOM      4  O   UNL     1       4.826   4.018  18.804  0.00  0.00    +0.000 OA
BRANCH   4   6
ATOM      5  C   UNL     1       4.375   2.120  20.261  0.00  0.00    +0.000 C 
ATOM      6  C   UNL     1       3.811   3.343  19.568  0.00  0.00    +0.000 C 
ENDBRANCH   4   6
ENDBRANCH   2   4
ENDBRANCH   1   2
BRANCH   1   7
ATOM      7  O   UNL     1       6.960   4.215  16.945  0.00  0.00    +0.000 OA
ATOM      8  H   UNL     1       6.830   3.606  17.703  0.00  0.00    +0.000 HD
ENDBRANCH   1   7
BRANCH   1   9
ATOM      9  C   UNL     1       5.469   5.163  15.299  0.00  0.00    +0.000 C 
BRANCH   9  10
ATOM     10  C   UNL     1       6.615   4.676  14.460  0.00  0.00    +0.000 C 
ATOM     11  O   UNL     1       7.625   5.334  14.269  0.00  0.00    +0.000 OA
BRANCH  10  12
ATOM     12  O   UNL     1       6.438   3.449  13.932  0.00  0.00    +0.000 OA
ATOM     13  H   UNL     1       7.069   3.170  13.237  0.00  0.00    +0.000 HD
ENDBRANCH  10  12
ENDBRANCH   9  10
ENDBRANCH   1   9
BRANCH   1  14
ATOM     14  C   UNL     1       5.882   6.243  17.595  0.00  0.00    +0.000 C 
BRANCH  14  15
ATOM     15  C   UNL     1       7.333   6.610  17.731  0.00  0.00    +0.000 C 
ATOM     16  O   UNL     1       7.976   6.447  18.757  0.00  0.00    +0.000 OA
BRANCH  15  17
ATOM     17  O   UNL     1       7.844   7.214  16.637  0.00  0.00    +0.000 OA
ATOM     18  H   UNL     1       7.732   8.193  16.677  0.00  0.00    +0.000 HD
ENDBRANCH  15  17
ENDBRANCH  14  15
ENDBRANCH   1  14
TORSDOF 10
ENDMDL
MODEL 5
REMARK VINA RESULT:      -5.2      0.891      1.126
REMARK  Name = 
REMARK  11 active torsions:
REMARK  status: ('A' for Active; 'I' for Inactive)
REMARK    1  A    between atoms: C_1  and  C_2
REMARK    2  A    between atoms: C_2  and  O_3
REMARK    3  A    between atoms: O_3  and  C_4
REMARK    4  A    between atoms: C_4  and  C_6
REMARK    5  A    between atoms: C_6  and  O_7
REMARK    6  A    between atoms: C_6  and  C_8
REMARK    7  A    between atoms: C_6  and  C_12
REMARK    8  A    between atoms: C_8  and  C_9
REMARK    9  A    between atoms: C_9  and  O_11
REMARK   10  A    between atoms: C_12  and  C_13
REMARK   11  A    between atoms: C_13  and  O_15
REMARK                            x       y       z     vdW  Elec       q    Type
REMARK                         _______ _______ _______ _____ _____    ______ ____
ROOT
ATOM      1  C   UNL     1       5.506   5.006  16.750  0.00  0.00    +0.000 C 
ENDROOT
BRANCH   1   2
ATOM      2  C   UNL     1       4.267   4.281  17.320  0.00  0.00    +0.000 C 
ATOM      3  O   UNL     1       4.137   3.066  17.378  0.00  0.00    +0.000 OA
BRANCH   2   4
ATOM      4  O   UNL     1       3.292   5.195  17.609  0.00  0.00    +0.000 OA
BRANCH   4   6
ATOM      5  C   UNL     1       2.159   5.213  19.764  0.00  0.00    +0.000 C 
ATOM      6  C   UNL     1       2.160   4.693  18.341  0.00  0.00    +0.000 C 
ENDBRANCH   4   6
ENDBRANCH   2   4
ENDBRANCH   1   2
BRANCH   1   7
ATOM      7  O   UNL     1       6.654   4.146  17.005  0.00  0.00    +0.000 OA
ATOM      8  H   UNL     1       6.686   4.014  17.976  0.00  0.00    +0.000 HD
ENDBRANCH   1   7
BRANCH   1   9
ATOM      9  C   UNL     1       5.413   5.223  15.235  0.00  0.00    +0.000 C 
BRANCH   9  10
ATOM     10  C   UNL     1       6.611   4.686  14.506  0.00  0.00    +0.000 C 
ATOM     11  O   UNL     1       7.656   5.307  14.401  0.00  0.00    +0.000 OA
BRANCH  10  12
ATOM     12  O   UNL     1       6.437   3.461  13.974  0.00  0.00    +0.000 OA
ATOM     13  H   UNL     1       7.216   3.049  13.546  0.00  0.00    +0.000 HD
ENDBRANCH  10  12
ENDBRANCH   9  10
ENDBRANCH   1   9
BRANCH   1  14
ATOM     14  C   UNL     1       5.750   6.285  17.553  0.00  0.00    +0.000 C 
BRANCH  14  15
ATOM     15  C   UNL     1       7.218   6.529  17.756  0.00  0.00    +0.000 C 
ATOM     16  O   UNL     1       7.811   6.258  18.789  0.00  0.00    +0.000 OA
BRANCH  15  17
ATOM     17  O   UNL     1       7.813   7.154  16.717  0.00  0.00    +0.000 OA
ATOM     18  H   UNL     1       8.750   6.866  16.607  0.00  0.00    +0.000 HD
ENDBRANCH  15  17
ENDBRANCH  14  15
ENDBRANCH   1  14
TORSDOF 10
ENDMDL
MODEL 6
REMARK VINA RESULT:      -5.1      2.042      3.394
REMARK  Name = 
REMARK  11 active torsions:
REMARK  status: ('A' for Active; 'I' for Inactive)
REMARK    1  A    between atoms: C_1  and  C_2
REMARK    2  A    between atoms: C_2  and  O_3
REMARK    3  A    between atoms: O_3  and  C_4
REMARK    4  A    between atoms: C_4  and  C_6
REMARK    5  A    between atoms: C_6  and  O_7
REMARK    6  A    between atoms: C_6  and  C_8
REMARK    7  A    between atoms: C_6  and  C_12
REMARK    8  A    between atoms: C_8  and  C_9
REMARK    9  A    between atoms: C_9  and  O_11
REMARK   10  A    between atoms: C_12  and  C_13
REMARK   11  A    between atoms: C_13  and  O_15
REMARK                            x       y       z     vdW  Elec       q    Type
REMARK                         _______ _______ _______ _____ _____    ______ ____
ROOT
ATOM      1  C   UNL     1       4.831   4.310  18.174  0.00  0.00    +0.000 C 
ENDROOT
BRANCH   1   2
ATOM      2  C   UNL     1       3.856   5.017  19.140  0.00  0.00    +0.000 C 
ATOM      3  O   UNL     1       3.553   6.200  19.081  0.00  0.00    +0.000 OA
BRANCH   2   4
ATOM      4  O   UNL     1       3.506   4.162  20.148  0.00  0.00    +0.000 OA
BRANCH   4   6
ATOM      5  C   UNL     1       1.364   3.291  20.914  0.00  0.00    +0.000 C 
ATOM      6  C   UNL     1       2.294   4.486  20.853  0.00  0.00    +0.000 C 
ENDBRANCH   4   6
ENDBRANCH   2   4
ENDBRANCH   1   2
BRANCH   1   7
ATOM      7  O   UNL     1       5.510   3.273  18.942  0.00  0.00    +0.000 OA
ATOM      8  H   UNL     1       5.136   2.420  18.638  0.00  0.00    +0.000 HD
ENDBRANCH   1   7
BRANCH   1   9
ATOM      9  C   UNL     1       4.109   3.627  17.007  0.00  0.00    +0.000 C 
BRANCH   9  10
ATOM     10  C   UNL     1       2.849   2.934  17.440  0.00  0.00    +0.000 C 
ATOM     11  O   UNL     1       1.736   3.389  17.228  0.00  0.00    +0.000 OA
BRANCH  10  12
ATOM     12  O   UNL     1       3.046   1.767  18.083  0.00  0.00    +0.000 OA
ATOM     13  H   UNL     1       3.678   1.139  17.676  0.00  0.00    +0.000 HD
ENDBRANCH  10  12
ENDBRANCH   9  10
ENDBRANCH   1   9
BRANCH   1  14
ATOM     14  C   UNL     1       5.917   5.299  17.747  0.00  0.00    +0.000 C 
BRANCH  14  15
ATOM     15  C   UNL     1       7.277   4.841  18.193  0.00  0.00    +0.000 C 
ATOM     16  O   UNL     1       7.764   5.130  19.275  0.00  0.00    +0.000 OA
BRANCH  15  17
ATOM     17  O   UNL     1       7.950   4.146  17.252  0.00  0.00    +0.000 OA
ATOM     18  H   UNL     1       8.659   4.690  16.835  0.00  0.00    +0.000 HD
ENDBRANCH  15  17
ENDBRANCH  14  15
ENDBRANCH   1  14
TORSDOF 10
ENDMDL
MODEL 7
REMARK VINA RESULT:      -5.1      1.464      3.182
REMARK  Name = 
REMARK  11 active torsions:
REMARK  status: ('A' for Active; 'I' for Inactive)
REMARK    1  A    between atoms: C_1  and  C_2
REMARK    2  A    between atoms: C_2  and  O_3
REMARK    3  A    between atoms: O_3  and  C_4
REMARK    4  A    between atoms: C_4  and  C_6
REMARK    5  A    between atoms: C_6  and  O_7
REMARK    6  A    between atoms: C_6  and  C_8
REMARK    7  A    between atoms: C_6  and  C_12
REMARK    8  A    between atoms: C_8  and  C_9
REMARK    9  A    between atoms: C_9  and  O_11
REMARK   10  A    between atoms: C_12  and  C_13
REMARK   11  A    between atoms: C_13  and  O_15
REMARK                            x       y       z     vdW  Elec       q    Type
REMARK                         _______ _______ _______ _____ _____    ______ ____
ROOT
ATOM      1  C   UNL     1       5.676   4.774  17.724  0.00  0.00    +0.000 C 
ENDROOT
BRANCH   1   2
ATOM      2  C   UNL     1       4.879   3.785  18.603  0.00  0.00    +0.000 C 
ATOM      3  O   UNL     1       5.292   3.288  19.641  0.00  0.00    +0.000 OA
BRANCH   2   4
ATOM      4  O   UNL     1       3.716   3.443  17.970  0.00  0.00    +0.000 OA
BRANCH   4   6
ATOM      5  C   UNL     1       1.695   2.245  18.609  0.00  0.00    +0.000 C 
ATOM      6  C   UNL     1       3.177   2.152  18.307  0.00  0.00    +0.000 C 
ENDBRANCH   4   6
ENDBRANCH   2   4
ENDBRANCH   1   2
BRANCH   1   7
ATOM      7  O   UNL     1       5.224   6.114  18.077  0.00  0.00    +0.000 OA
ATOM      8  H   UNL     1       4.251   6.055  18.182  0.00  0.00    +0.000 HD
ENDBRANCH   1   7
BRANCH   1   9
ATOM      9  C   UNL     1       7.185   4.708  17.985  0.00  0.00    +0.000 C 
BRANCH   9  10
ATOM     10  C   UNL     1       7.664   5.827  18.864  0.00  0.00    +0.000 C 
ATOM     11  O   UNL     1       8.025   6.906  18.424  0.00  0.00    +0.000 OA
BRANCH  10  12
ATOM     12  O   UNL     1       7.662   5.543  20.181  0.00  0.00    +0.000 OA
ATOM     13  H   UNL     1       6.791   5.370  20.595  0.00  0.00    +0.000 HD
ENDBRANCH  10  12
ENDBRANCH   9  10
ENDBRANCH   1   9
BRANCH   1  14
ATOM     14  C   UNL     1       5.284   4.569  16.259  0.00  0.00    +0.000 C 
BRANCH  14  15
ATOM     15  C   UNL     1       5.740   5.720  15.407  0.00  0.00    +0.000 C 
ATOM     16  O   UNL     1       5.154   6.790  15.350  0.00  0.00    +0.000 OA
BRANCH  15  17
ATOM     17  O   UNL     1       6.815   5.435  14.642  0.00  0.00    +0.000 OA
ATOM     18  H   UNL     1       6.848   4.480  14.402  0.00  0.00    +0.000 HD
ENDBRANCH  15  17
ENDBRANCH  14  15
ENDBRANCH   1  14
TORSDOF 10
ENDMDL
MODEL 8
REMARK VINA RESULT:      -5.1      1.292      1.652
REMARK  Name = 
REMARK  11 active torsions:
REMARK  status: ('A' for Active; 'I' for Inactive)
REMARK    1  A    between atoms: C_1  and  C_2
REMARK    2  A    between atoms: C_2  and  O_3
REMARK    3  A    between atoms: O_3  and  C_4
REMARK    4  A    between atoms: C_4  and  C_6
REMARK    5  A    between atoms: C_6  and  O_7
REMARK    6  A    between atoms: C_6  and  C_8
REMARK    7  A    between atoms: C_6  and  C_12
REMARK    8  A    between atoms: C_8  and  C_9
REMARK    9  A    between atoms: C_9  and  O_11
REMARK   10  A    between atoms: C_12  and  C_13
REMARK   11  A    between atoms: C_13  and  O_15
REMARK                            x       y       z     vdW  Elec       q    Type
REMARK                         _______ _______ _______ _____ _____    ______ ____
ROOT
ATOM      1  C   UNL     1       5.400   4.518  18.120  0.00  0.00    +0.000 C 
ENDROOT
BRANCH   1   2
ATOM      2  C   UNL     1       4.665   3.300  18.722  0.00  0.00    +0.000 C 
ATOM      3  O   UNL     1       4.900   2.818  19.821  0.00  0.00    +0.000 OA
BRANCH   2   4
ATOM      4  O   UNL     1       3.826   2.761  17.786  0.00  0.00    +0.000 OA
BRANCH   4   6
ATOM      5  C   UNL     1       1.495   3.299  18.240  0.00  0.00    +0.000 C 
ATOM      6  C   UNL     1       2.580   2.243  18.286  0.00  0.00    +0.000 C 
ENDBRANCH   4   6
ENDBRANCH   2   4
ENDBRANCH   1   2
BRANCH   1   7
ATOM      7  O   UNL     1       6.665   4.028  17.588  0.00  0.00    +0.000 OA
ATOM      8  H   UNL     1       7.015   3.399  18.254  0.00  0.00    +0.000 HD
ENDBRANCH   1   7
BRANCH   1   9
ATOM      9  C   UNL     1       4.625   5.158  16.963  0.00  0.00    +0.000 C 
BRANCH   9  10
ATOM     10  C   UNL     1       5.458   5.292  15.721  0.00  0.00    +0.000 C 
ATOM     11  O   UNL     1       6.171   6.257  15.502  0.00  0.00    +0.000 OA
BRANCH  10  12
ATOM     12  O   UNL     1       5.353   4.257  14.865  0.00  0.00    +0.000 OA
ATOM     13  H   UNL     1       5.179   3.375  15.255  0.00  0.00    +0.000 HD
ENDBRANCH  10  12
ENDBRANCH   9  10
ENDBRANCH   1   9
BRANCH   1  14
ATOM     14  C   UNL     1       5.762   5.489  19.245  0.00  0.00    +0.000 C 
BRANCH  14  15
ATOM     15  C   UNL     1       7.234   5.789  19.253  0.00  0.00    +0.000 C 
ATOM     16  O   UNL     1       7.807   6.382  18.351  0.00  0.00    +0.000 OA
BRANCH  15  17
ATOM     17  O   UNL     1       7.887   5.270  20.316  0.00  0.00    +0.000 OA
ATOM     18  H   UNL     1       8.403   4.467  20.069  0.00  0.00    +0.000 HD
ENDBRANCH  15  17
ENDBRANCH  14  15
ENDBRANCH   1  14
TORSDOF 10
ENDMDL
MODEL 9
REMARK VINA RESULT:      -5.0      1.286      4.392
REMARK  Name = 
REMARK  11 active torsions:
REMARK  status: ('A' for Active; 'I' for Inactive)
REMARK    1  A    between atoms: C_1  and  C_2
REMARK    2  A    between atoms: C_2  and  O_3
REMARK    3  A    between atoms: O_3  and  C_4
REMARK    4  A    between atoms: C_4  and  C_6
REMARK    5  A    between atoms: C_6  and  O_7
REMARK    6  A    between atoms: C_6  and  C_8
REMARK    7  A    between atoms: C_6  and  C_12
REMARK    8  A    between atoms: C_8  and  C_9
REMARK    9  A    between atoms: C_9  and  O_11
REMARK   10  A    between atoms: C_12  and  C_13
REMARK   11  A    between atoms: C_13  and  O_15
REMARK                            x       y       z     vdW  Elec       q    Type
REMARK                         _______ _______ _______ _____ _____    ______ ____
ROOT
ATOM      1  C   UNL     1       5.583   4.901  16.514  0.00  0.00    +0.000 C 
ENDROOT
BRANCH   1   2
ATOM      2  C   UNL     1       5.997   6.264  17.111  0.00  0.00    +0.000 C 
ATOM      3  O   UNL     1       5.229   7.190  17.331  0.00  0.00    +0.000 OA
BRANCH   2   4
ATOM      4  O   UNL     1       7.359   6.325  17.213  0.00  0.00    +0.000 OA
BRANCH   4   6
ATOM      5  C   UNL     1       7.909   5.780  19.521  0.00  0.00    +0.000 C 
ATOM      6  C   UNL     1       7.872   6.851  18.451  0.00  0.00    +0.000 C 
ENDBRANCH   4   6
ENDBRANCH   2   4
ENDBRANCH   1   2
BRANCH   1   7
ATOM      7  O   UNL     1       6.714   3.999  16.692  0.00  0.00    +0.000 OA
ATOM      8  H   UNL     1       7.149   3.931  15.816  0.00  0.00    +0.000 HD
ENDBRANCH   1   7
BRANCH   1   9
ATOM      9  C   UNL     1       4.379   4.285  17.236  0.00  0.00    +0.000 C 
BRANCH   9  10
ATOM     10  C   UNL     1       4.608   4.146  18.714  0.00  0.00    +0.000 C 
ATOM     11  O   UNL     1       4.036   4.838  19.541  0.00  0.00    +0.000 OA
BRANCH  10  12
ATOM     12  O   UNL     1       5.498   3.194  19.054  0.00  0.00    +0.000 OA
ATOM     13  H   UNL     1       5.994   2.771  18.323  0.00  0.00    +0.000 HD
ENDBRANCH  10  12
ENDBRANCH   9  10
ENDBRANCH   1   9
BRANCH   1  14
ATOM     14  C   UNL     1       5.397   5.052  15.003  0.00  0.00    +0.000 C 
BRANCH  14  15
ATOM     15  C   UNL     1       6.612   4.583  14.255  0.00  0.00    +0.000 C 
ATOM     16  O   UNL     1       7.619   5.260  14.111  0.00  0.00    +0.000 OA
BRANCH  15  17
ATOM     17  O   UNL     1       6.462   3.369  13.683  0.00  0.00    +0.000 OA
ATOM     18  H   UNL     1       6.996   3.286  12.858  0.00  0.00    +0.000 HD
ENDBRANCH  15  17
ENDBRANCH  14  15
ENDBRANCH   1  14
TORSDOF 10
ENDMDL
