MODEL 1
REMARK VINA RESULT:      -6.6      0.000      0.000
REMARK  Name = 
REMARK  8 active torsions:
REMARK  status: ('A' for Active; 'I' for Inactive)
REMARK    1  A    between atoms: C_1  and  S_2
REMARK    2  A    between atoms: S_2  and  C_3
REMARK    3  A    between atoms: C_6  and  O_7
REMARK    4  A    between atoms: O_7  and  C_8
REMARK    5  A    between atoms: C_10  and  C_11
REMARK    6  A    between atoms: C_14  and  C_15
REMARK    7  A    between atoms: N_16  and  O_17
REMARK    8  A    between atoms: C_21  and  N_22
REMARK                            x       y       z     vdW  Elec       q    Type
REMARK                         _______ _______ _______ _____ _____    ______ ____
ROOT
ATOM      1  C   UNL     1       5.629   7.010  17.034  0.00  0.00    +0.000 A 
ATOM      2  N   UNL     1       6.172   8.229  17.317  0.00  0.00    +0.000 NA
ATOM      3  C   UNL     1       7.452   8.289  17.734  0.00  0.00    +0.000 A 
ATOM      4  C   UNL     1       7.967   9.640  18.131  0.00  0.00    +0.000 C 
ATOM      5  C   UNL     1       8.243   7.156  17.847  0.00  0.00    +0.000 A 
ATOM      6  C   UNL     1       7.701   5.920  17.486  0.00  0.00    +0.000 A 
ATOM      7  C   UNL     1       6.372   5.831  17.054  0.00  0.00    +0.000 A 
ENDROOT
BRANCH   7   8
ATOM      8  C   UNL     1       5.811   4.485  16.691  0.00  0.00    +0.000 C 
ATOM      9  N   UNL     1       6.325   3.898  15.645  0.00  0.00    +0.000 NA
ATOM     10  N   UNL     1       4.773   3.951  17.462  0.00  0.00    +0.000 N 
ATOM     11  C   UNL     1       4.876   3.830  18.911  0.00  0.00    +0.000 C 
ATOM     12  C   UNL     1       4.236   2.512  19.347  0.00  0.00    +0.000 C 
ATOM     13  C   UNL     1       2.741   2.412  18.952  0.00  0.00    +0.000 C 
ATOM     14  C   UNL     1       2.688   2.639  17.414  0.00  0.00    +0.000 C 
ATOM     15  C   UNL     1       3.409   3.899  16.938  0.00  0.00    +0.000 C 
BRANCH  13  16
ATOM     16  N   UNL     1       1.867   3.317  19.750  0.00  0.00    +0.000 NA
ATOM     17  C   UNL     1       2.565   3.962  20.886  0.00  0.00    +0.000 C 
ATOM     18  C   UNL     1       2.385   3.036  22.073  0.00  0.00    +0.000 C 
ATOM     19  C   UNL     1       0.976   2.527  21.887  0.00  0.00    +0.000 C 
ATOM     20  C   UNL     1       0.718   2.630  20.386  0.00  0.00    +0.000 C 
ENDBRANCH  13  16
BRANCH   9  21
ATOM     21  O   UNL     1       5.772   2.626  15.437  0.00  0.00    +0.000 OA
ATOM     22  H   UNL     1       5.124   2.566  16.162  0.00  0.00    +0.000 HD
ENDBRANCH   9  21
ENDBRANCH   7   8
BRANCH   1  23
ATOM     23  O   UNL     1       4.293   6.984  16.670  0.00  0.00    +0.000 OA
BRANCH  23  27
ATOM     24  C   UNL     1       1.585   8.606  19.427  0.00  0.00    +0.000 A 
ATOM     25  C   UNL     1       2.245   7.395  19.670  0.00  0.00    +0.000 A 
ATOM     26  C   UNL     1       3.144   6.875  18.732  0.00  0.00    +0.000 A 
ATOM     27  C   UNL     1       3.378   7.554  17.536  0.00  0.00    +0.000 A 
ATOM     28  C   UNL     1       2.736   8.778  17.304  0.00  0.00    +0.000 A 
ATOM     29  C   UNL     1       1.826   9.286  18.232  0.00  0.00    +0.000 A 
BRANCH  24  31
ATOM     30  C   UNL     1       1.409   9.076  22.118  0.00  0.00    +0.000 C 
ATOM     31  S   UNL     1       0.436   9.291  20.605  0.00  0.00    +0.000 S 
ENDBRANCH  24  31
ENDBRANCH  23  27
ENDBRANCH   1  23
TORSDOF 6
ENDMDL
MODEL 2
REMARK VINA RESULT:      -6.6      0.517      1.095
REMARK  Name = 
REMARK  8 active torsions:
REMARK  status: ('A' for Active; 'I' for Inactive)
REMARK    1  A    between atoms: C_1  and  S_2
REMARK    2  A    between atoms: S_2  and  C_3
REMARK    3  A    between atoms: C_6  and  O_7
REMARK    4  A    between atoms: O_7  and  C_8
REMARK    5  A    between atoms: C_10  and  C_11
REMARK    6  A    between atoms: C_14  and  C_15
REMARK    7  A    between atoms: N_16  and  O_17
REMARK    8  A    between atoms: C_21  and  N_22
REMARK                            x       y       z     vdW  Elec       q    Type
REMARK                         _______ _______ _______ _____ _____    ______ ____
ROOT
ATOM      1  C   UNL     1       5.621   7.031  17.066  0.00  0.00    +0.000 A 
ATOM      2  N   UNL     1       6.161   8.253  17.340  0.00  0.00    +0.000 NA
ATOM      3  C   UNL     1       7.457   8.325  17.702  0.00  0.00    +0.000 A 
ATOM      4  C   UNL     1       7.973   9.677  18.093  0.00  0.00    +0.000 C 
ATOM      5  C   UNL     1       8.266   7.200  17.768  0.00  0.00    +0.000 A 
ATOM      6  C   UNL     1       7.724   5.962  17.416  0.00  0.00    +0.000 A 
ATOM      7  C   UNL     1       6.378   5.861  17.040  0.00  0.00    +0.000 A 
ENDROOT
BRANCH   7   8
ATOM      8  C   UNL     1       5.818   4.512  16.686  0.00  0.00    +0.000 C 
ATOM      9  N   UNL     1       6.327   3.922  15.640  0.00  0.00    +0.000 NA
ATOM     10  N   UNL     1       4.786   3.979  17.465  0.00  0.00    +0.000 N 
ATOM     11  C   UNL     1       4.897   3.864  18.913  0.00  0.00    +0.000 C 
ATOM     12  C   UNL     1       4.263   2.546  19.358  0.00  0.00    +0.000 C 
ATOM     13  C   UNL     1       2.765   2.442  18.972  0.00  0.00    +0.000 C 
ATOM     14  C   UNL     1       2.703   2.662  17.434  0.00  0.00    +0.000 C 
ATOM     15  C   UNL     1       3.419   3.922  16.948  0.00  0.00    +0.000 C 
BRANCH  13  16
ATOM     16  N   UNL     1       1.894   3.348  19.771  0.00  0.00    +0.000 NA
ATOM     17  C   UNL     1       2.583   3.958  20.933  0.00  0.00    +0.000 C 
ATOM     18  C   UNL     1       2.362   3.012  22.097  0.00  0.00    +0.000 C 
ATOM     19  C   UNL     1       0.948   2.534  21.876  0.00  0.00    +0.000 C 
ATOM     20  C   UNL     1       0.720   2.671  20.372  0.00  0.00    +0.000 C 
ENDBRANCH  13  16
BRANCH   9  21
ATOM     21  O   UNL     1       5.777   2.648  15.440  0.00  0.00    +0.000 OA
ATOM     22  H   UNL     1       5.292   2.767  14.604  0.00  0.00    +0.000 HD
ENDBRANCH   9  21
ENDBRANCH   7   8
BRANCH   1  23
ATOM     23  O   UNL     1       4.271   6.992  16.760  0.00  0.00    +0.000 OA
BRANCH  23  27
ATOM     24  C   UNL     1       1.510   8.618  19.461  0.00  0.00    +0.000 A 
ATOM     25  C   UNL     1       1.790   9.235  18.235  0.00  0.00    +0.000 A 
ATOM     26  C   UNL     1       2.716   8.672  17.352  0.00  0.00    +0.000 A 
ATOM     27  C   UNL     1       3.383   7.495  17.694  0.00  0.00    +0.000 A 
ATOM     28  C   UNL     1       3.085   6.865  18.909  0.00  0.00    +0.000 A 
ATOM     29  C   UNL     1       2.174   7.438  19.797  0.00  0.00    +0.000 A 
BRANCH  24  31
ATOM     30  C   UNL     1      -0.520  10.456  19.483  0.00  0.00    +0.000 C 
ATOM     31  S   UNL     1       0.332   9.315  20.604  0.00  0.00    +0.000 S 
ENDBRANCH  24  31
ENDBRANCH  23  27
ENDBRANCH   1  23
TORSDOF 6
ENDMDL
MODEL 3
REMARK VINA RESULT:      -6.6      6.534     10.265
REMARK  Name = 
REMARK  8 active torsions:
REMARK  status: ('A' for Active; 'I' for Inactive)
REMARK    1  A    between atoms: C_1  and  S_2
REMARK    2  A    between atoms: S_2  and  C_3
REMARK    3  A    between atoms: C_6  and  O_7
REMARK    4  A    between atoms: O_7  and  C_8
REMARK    5  A    between atoms: C_10  and  C_11
REMARK    6  A    between atoms: C_14  and  C_15
REMARK    7  A    between atoms: N_16  and  O_17
REMARK    8  A    between atoms: C_21  and  N_22
REMARK                            x       y       z     vdW  Elec       q    Type
REMARK                         _______ _______ _______ _____ _____    ______ ____
ROOT
ATOM      1  C   UNL     1       0.812  12.041  19.776  0.00  0.00    +0.000 A 
ATOM      2  N   UNL     1       1.640  12.566  18.827  0.00  0.00    +0.000 NA
ATOM      3  C   UNL     1       2.260  13.735  19.080  0.00  0.00    +0.000 A 
ATOM      4  C   UNL     1       3.074  14.320  17.965  0.00  0.00    +0.000 C 
ATOM      5  C   UNL     1       2.113  14.399  20.288  0.00  0.00    +0.000 A 
ATOM      6  C   UNL     1       1.322  13.819  21.282  0.00  0.00    +0.000 A 
ATOM      7  C   UNL     1       0.663  12.606  21.041  0.00  0.00    +0.000 A 
ENDROOT
BRANCH   7   8
ATOM      8  C   UNL     1      -0.197  12.016  22.123  0.00  0.00    +0.000 C 
ATOM      9  N   UNL     1       0.133  10.830  22.553  0.00  0.00    +0.000 NA
ATOM     10  N   UNL     1      -1.299  12.743  22.586  0.00  0.00    +0.000 N 
ATOM     11  C   UNL     1      -1.171  14.119  23.050  0.00  0.00    +0.000 C 
ATOM     12  C   UNL     1      -2.073  14.319  24.268  0.00  0.00    +0.000 C 
ATOM     13  C   UNL     1      -3.567  14.042  23.961  0.00  0.00    +0.000 C 
ATOM     14  C   UNL     1      -3.625  12.597  23.387  0.00  0.00    +0.000 C 
ATOM     15  C   UNL     1      -2.658  12.338  22.232  0.00  0.00    +0.000 C 
BRANCH  13  16
ATOM     16  N   UNL     1      -4.186  15.085  23.097  0.00  0.00    +0.000 NA
ATOM     17  C   UNL     1      -4.084  16.453  23.656  0.00  0.00    +0.000 C 
ATOM     18  C   UNL     1      -5.331  16.661  24.493  0.00  0.00    +0.000 C 
ATOM     19  C   UNL     1      -6.395  15.957  23.685  0.00  0.00    +0.000 C 
ATOM     20  C   UNL     1      -5.641  14.899  22.884  0.00  0.00    +0.000 C 
ENDBRANCH  13  16
BRANCH   9  21
ATOM     21  O   UNL     1      -0.697  10.405  23.601  0.00  0.00    +0.000 OA
ATOM     22  H   UNL     1      -0.614  11.141  24.234  0.00  0.00    +0.000 HD
ENDBRANCH   9  21
ENDBRANCH   7   8
BRANCH   1  23
ATOM     23  O   UNL     1       0.145  10.871  19.453  0.00  0.00    +0.000 OA
BRANCH  23  27
ATOM     24  C   UNL     1       2.369   7.343  19.051  0.00  0.00    +0.000 A 
ATOM     25  C   UNL     1       1.829   7.735  20.282  0.00  0.00    +0.000 A 
ATOM     26  C   UNL     1       1.090   8.918  20.389  0.00  0.00    +0.000 A 
ATOM     27  C   UNL     1       0.900   9.728  19.269  0.00  0.00    +0.000 A 
ATOM     28  C   UNL     1       1.421   9.323  18.032  0.00  0.00    +0.000 A 
ATOM     29  C   UNL     1       2.172   8.152  17.931  0.00  0.00    +0.000 A 
BRANCH  24  31
ATOM     30  C   UNL     1       2.143   4.867  17.902  0.00  0.00    +0.000 C 
ATOM     31  S   UNL     1       3.313   5.839  18.887  0.00  0.00    +0.000 S 
ENDBRANCH  24  31
ENDBRANCH  23  27
ENDBRANCH   1  23
TORSDOF 6
ENDMDL
MODEL 4
REMARK VINA RESULT:      -6.5      6.525     10.268
REMARK  Name = 
REMARK  8 active torsions:
REMARK  status: ('A' for Active; 'I' for Inactive)
REMARK    1  A    between atoms: C_1  and  S_2
REMARK    2  A    between atoms: S_2  and  C_3
REMARK    3  A    between atoms: C_6  and  O_7
REMARK    4  A    between atoms: O_7  and  C_8
REMARK    5  A    between atoms: C_10  and  C_11
REMARK    6  A    between atoms: C_14  and  C_15
REMARK    7  A    between atoms: N_16  and  O_17
REMARK    8  A    between atoms: C_21  and  N_22
REMARK                            x       y       z     vdW  Elec       q    Type
REMARK                         _______ _______ _______ _____ _____    ______ ____
ROOT
ATOM      1  C   UNL     1       0.862  12.074  19.742  0.00  0.00    +0.000 A 
ATOM      2  N   UNL     1       1.716  12.596  18.814  0.00  0.00    +0.000 NA
ATOM      3  C   UNL     1       2.355  13.749  19.094  0.00  0.00    +0.000 A 
ATOM      4  C   UNL     1       3.199  14.332  18.001  0.00  0.00    +0.000 C 
ATOM      5  C   UNL     1       2.200  14.399  20.308  0.00  0.00    +0.000 A 
ATOM      6  C   UNL     1       1.381  13.821  21.280  0.00  0.00    +0.000 A 
ATOM      7  C   UNL     1       0.702  12.625  21.011  0.00  0.00    +0.000 A 
ENDROOT
BRANCH   7   8
ATOM      8  C   UNL     1      -0.188  12.037  22.071  0.00  0.00    +0.000 C 
ATOM      9  N   UNL     1       0.143  10.862  22.528  0.00  0.00    +0.000 NA
ATOM     10  N   UNL     1      -1.314  12.755  22.486  0.00  0.00    +0.000 N 
ATOM     11  C   UNL     1      -1.221  14.139  22.934  0.00  0.00    +0.000 C 
ATOM     12  C   UNL     1      -2.167  14.343  24.118  0.00  0.00    +0.000 C 
ATOM     13  C   UNL     1      -3.646  14.041  23.762  0.00  0.00    +0.000 C 
ATOM     14  C   UNL     1      -3.665  12.589  23.207  0.00  0.00    +0.000 C 
ATOM     15  C   UNL     1      -2.655  12.328  22.089  0.00  0.00    +0.000 C 
BRANCH  13  16
ATOM     16  N   UNL     1      -4.248  15.065  22.863  0.00  0.00    +0.000 NA
ATOM     17  C   UNL     1      -4.330  16.413  23.472  0.00  0.00    +0.000 C 
ATOM     18  C   UNL     1      -5.680  16.482  24.159  0.00  0.00    +0.000 C 
ATOM     19  C   UNL     1      -6.577  15.728  23.209  0.00  0.00    +0.000 C 
ATOM     20  C   UNL     1      -5.647  14.768  22.471  0.00  0.00    +0.000 C 
ENDBRANCH  13  16
BRANCH   9  21
ATOM     21  O   UNL     1      -0.718  10.440  23.552  0.00  0.00    +0.000 OA
ATOM     22  H   UNL     1      -0.659   9.470  23.479  0.00  0.00    +0.000 HD
ENDBRANCH   9  21
ENDBRANCH   7   8
BRANCH   1  23
ATOM     23  O   UNL     1       0.177  10.923  19.391  0.00  0.00    +0.000 OA
BRANCH  23  27
ATOM     24  C   UNL     1       2.468   7.476  18.735  0.00  0.00    +0.000 A 
ATOM     25  C   UNL     1       2.207   8.391  17.708  0.00  0.00    +0.000 A 
ATOM     26  C   UNL     1       1.439   9.535  17.954  0.00  0.00    +0.000 A 
ATOM     27  C   UNL     1       0.910   9.762  19.224  0.00  0.00    +0.000 A 
ATOM     28  C   UNL     1       1.192   8.858  20.257  0.00  0.00    +0.000 A 
ATOM     29  C   UNL     1       1.943   7.710  20.006  0.00  0.00    +0.000 A 
BRANCH  24  31
ATOM     30  C   UNL     1       4.511   6.631  17.120  0.00  0.00    +0.000 C 
ATOM     31  S   UNL     1       3.445   6.012  18.448  0.00  0.00    +0.000 S 
ENDBRANCH  24  31
ENDBRANCH  23  27
ENDBRANCH   1  23
TORSDOF 6
ENDMDL
MODEL 5
REMARK VINA RESULT:      -6.4      5.741     10.234
REMARK  Name = 
REMARK  8 active torsions:
REMARK  status: ('A' for Active; 'I' for Inactive)
REMARK    1  A    between atoms: C_1  and  S_2
REMARK    2  A    between atoms: S_2  and  C_3
REMARK    3  A    between atoms: C_6  and  O_7
REMARK    4  A    between atoms: O_7  and  C_8
REMARK    5  A    between atoms: C_10  and  C_11
REMARK    6  A    between atoms: C_14  and  C_15
REMARK    7  A    between atoms: N_16  and  O_17
REMARK    8  A    between atoms: C_21  and  N_22
REMARK                            x       y       z     vdW  Elec       q    Type
REMARK                         _______ _______ _______ _____ _____    ______ ____
ROOT
ATOM      1  C   UNL     1      -0.773  10.644  19.802  0.00  0.00    +0.000 A 
ATOM      2  N   UNL     1      -1.323   9.956  18.760  0.00  0.00    +0.000 NA
ATOM      3  C   UNL     1      -2.343  10.514  18.079  0.00  0.00    +0.000 A 
ATOM      4  C   UNL     1      -2.980   9.673  17.013  0.00  0.00    +0.000 C 
ATOM      5  C   UNL     1      -2.824  11.779  18.380  0.00  0.00    +0.000 A 
ATOM      6  C   UNL     1      -2.208  12.506  19.401  0.00  0.00    +0.000 A 
ATOM      7  C   UNL     1      -1.148  11.946  20.126  0.00  0.00    +0.000 A 
ENDROOT
BRANCH   7   8
ATOM      8  C   UNL     1      -0.517  12.746  21.232  0.00  0.00    +0.000 C 
ATOM      9  N   UNL     1      -1.076  12.665  22.407  0.00  0.00    +0.000 NA
ATOM     10  N   UNL     1       0.599  13.538  20.944  0.00  0.00    +0.000 N 
ATOM     11  C   UNL     1       1.779  12.993  20.285  0.00  0.00    +0.000 C 
ATOM     12  C   UNL     1       3.030  13.609  20.913  0.00  0.00    +0.000 C 
ATOM     13  C   UNL     1       3.066  15.153  20.784  0.00  0.00    +0.000 C 
ATOM     14  C   UNL     1       1.744  15.667  21.422  0.00  0.00    +0.000 C 
ATOM     15  C   UNL     1       0.482  14.994  20.885  0.00  0.00    +0.000 C 
BRANCH  13  16
ATOM     16  N   UNL     1       3.311  15.615  19.389  0.00  0.00    +0.000 NA
ATOM     17  C   UNL     1       4.299  14.789  18.658  0.00  0.00    +0.000 C 
ATOM     18  C   UNL     1       5.652  15.424  18.915  0.00  0.00    +0.000 C 
ATOM     19  C   UNL     1       5.335  16.900  18.901  0.00  0.00    +0.000 C 
ATOM     20  C   UNL     1       3.864  16.987  19.302  0.00  0.00    +0.000 C 
ENDBRANCH  13  16
BRANCH   9  21
ATOM     21  O   UNL     1      -0.371  13.398  23.372  0.00  0.00    +0.000 OA
ATOM     22  H   UNL     1      -1.020  14.080  23.621  0.00  0.00    +0.000 HD
ENDBRANCH   9  21
ENDBRANCH   7   8
BRANCH   1  23
ATOM     23  O   UNL     1       0.231  10.011  20.516  0.00  0.00    +0.000 OA
BRANCH  23  27
ATOM     24  C   UNL     1       2.763   7.326  18.530  0.00  0.00    +0.000 A 
ATOM     25  C   UNL     1       2.299   7.076  19.827  0.00  0.00    +0.000 A 
ATOM     26  C   UNL     1       1.455   7.989  20.468  0.00  0.00    +0.000 A 
ATOM     27  C   UNL     1       1.081   9.168  19.823  0.00  0.00    +0.000 A 
ATOM     28  C   UNL     1       1.526   9.406  18.516  0.00  0.00    +0.000 A 
ATOM     29  C   UNL     1       2.382   8.503  17.885  0.00  0.00    +0.000 A 
BRANCH  24  31
ATOM     30  C   UNL     1       3.748   4.792  18.855  0.00  0.00    +0.000 C 
ATOM     31  S   UNL     1       3.838   6.178  17.691  0.00  0.00    +0.000 S 
ENDBRANCH  24  31
ENDBRANCH  23  27
ENDBRANCH   1  23
TORSDOF 6
ENDMDL
MODEL 6
REMARK VINA RESULT:      -6.4      6.720     10.279
REMARK  Name = 
REMARK  8 active torsions:
REMARK  status: ('A' for Active; 'I' for Inactive)
REMARK    1  A    between atoms: C_1  and  S_2
REMARK    2  A    between atoms: S_2  and  C_3
REMARK    3  A    between atoms: C_6  and  O_7
REMARK    4  A    between atoms: O_7  and  C_8
REMARK    5  A    between atoms: C_10  and  C_11
REMARK    6  A    between atoms: C_14  and  C_15
REMARK    7  A    between atoms: N_16  and  O_17
REMARK    8  A    between atoms: C_21  and  N_22
REMARK                            x       y       z     vdW  Elec       q    Type
REMARK                         _______ _______ _______ _____ _____    ______ ____
ROOT
ATOM      1  C   UNL     1       1.056  12.320  19.662  0.00  0.00    +0.000 A 
ATOM      2  N   UNL     1       2.101  12.721  18.883  0.00  0.00    +0.000 NA
ATOM      3  C   UNL     1       2.787  13.827  19.234  0.00  0.00    +0.000 A 
ATOM      4  C   UNL     1       3.857  14.283  18.288  0.00  0.00    +0.000 C 
ATOM      5  C   UNL     1       2.486  14.546  20.381  0.00  0.00    +0.000 A 
ATOM      6  C   UNL     1       1.462  14.087  21.212  0.00  0.00    +0.000 A 
ATOM      7  C   UNL     1       0.732  12.943  20.866  0.00  0.00    +0.000 A 
ENDROOT
BRANCH   7   8
ATOM      8  C   UNL     1      -0.378  12.485  21.770  0.00  0.00    +0.000 C 
ATOM      9  N   UNL     1      -0.102  11.510  22.592  0.00  0.00    +0.000 NA
ATOM     10  N   UNL     1      -1.632  13.099  21.671  0.00  0.00    +0.000 N 
ATOM     11  C   UNL     1      -1.787  14.545  21.748  0.00  0.00    +0.000 C 
ATOM     12  C   UNL     1      -3.051  14.869  22.544  0.00  0.00    +0.000 C 
ATOM     13  C   UNL     1      -4.331  14.271  21.905  0.00  0.00    +0.000 C 
ATOM     14  C   UNL     1      -4.069  12.745  21.767  0.00  0.00    +0.000 C 
ATOM     15  C   UNL     1      -2.758  12.392  21.064  0.00  0.00    +0.000 C 
BRANCH  13  16
ATOM     16  N   UNL     1      -4.725  14.957  20.643  0.00  0.00    +0.000 NA
ATOM     17  C   UNL     1      -5.194  16.348  20.847  0.00  0.00    +0.000 C 
ATOM     18  C   UNL     1      -6.693  16.260  21.057  0.00  0.00    +0.000 C 
ATOM     19  C   UNL     1      -7.101  15.169  20.098  0.00  0.00    +0.000 C 
ATOM     20  C   UNL     1      -5.852  14.305  19.935  0.00  0.00    +0.000 C 
ENDBRANCH  13  16
BRANCH   9  21
ATOM     21  O   UNL     1      -1.186  11.208  23.428  0.00  0.00    +0.000 OA
ATOM     22  H   UNL     1      -1.184  10.234  23.417  0.00  0.00    +0.000 HD
ENDBRANCH   9  21
ENDBRANCH   7   8
BRANCH   1  23
ATOM     23  O   UNL     1       0.337  11.216  19.234  0.00  0.00    +0.000 OA
BRANCH  23  27
ATOM     24  C   UNL     1       2.263   7.495  19.167  0.00  0.00    +0.000 A 
ATOM     25  C   UNL     1       1.669   7.994  20.333  0.00  0.00    +0.000 A 
ATOM     26  C   UNL     1       1.033   9.240  20.328  0.00  0.00    +0.000 A 
ATOM     27  C   UNL     1       1.000  10.005  19.162  0.00  0.00    +0.000 A 
ATOM     28  C   UNL     1       1.573   9.494  17.990  0.00  0.00    +0.000 A 
ATOM     29  C   UNL     1       2.223   8.260  18.000  0.00  0.00    +0.000 A 
BRANCH  24  31
ATOM     30  C   UNL     1       3.967   6.062  17.573  0.00  0.00    +0.000 C 
ATOM     31  S   UNL     1       3.079   5.910  19.145  0.00  0.00    +0.000 S 
ENDBRANCH  24  31
ENDBRANCH  23  27
ENDBRANCH   1  23
TORSDOF 6
ENDMDL
MODEL 7
REMARK VINA RESULT:      -6.4      6.923     10.317
REMARK  Name = 
REMARK  8 active torsions:
REMARK  status: ('A' for Active; 'I' for Inactive)
REMARK    1  A    between atoms: C_1  and  S_2
REMARK    2  A    between atoms: S_2  and  C_3
REMARK    3  A    between atoms: C_6  and  O_7
REMARK    4  A    between atoms: O_7  and  C_8
REMARK    5  A    between atoms: C_10  and  C_11
REMARK    6  A    between atoms: C_14  and  C_15
REMARK    7  A    between atoms: N_16  and  O_17
REMARK    8  A    between atoms: C_21  and  N_22
REMARK                            x       y       z     vdW  Elec       q    Type
REMARK                         _______ _______ _______ _____ _____    ______ ____
ROOT
ATOM      1  C   UNL     1       0.487  11.535  19.319  0.00  0.00    +0.000 A 
ATOM      2  N   UNL     1       0.932  10.502  18.546  0.00  0.00    +0.000 NA
ATOM      3  C   UNL     1       1.175   9.312  19.130  0.00  0.00    +0.000 A 
ATOM      4  C   UNL     1       1.762   8.243  18.258  0.00  0.00    +0.000 C 
ATOM      5  C   UNL     1       0.950   9.095  20.480  0.00  0.00    +0.000 A 
ATOM      6  C   UNL     1       0.424  10.136  21.249  0.00  0.00    +0.000 A 
ATOM      7  C   UNL     1       0.168  11.384  20.667  0.00  0.00    +0.000 A 
ENDROOT
BRANCH   7   8
ATOM      8  C   UNL     1      -0.379  12.491  21.524  0.00  0.00    +0.000 C 
ATOM      9  N   UNL     1       0.492  13.242  22.139  0.00  0.00    +0.000 NA
ATOM     10  N   UNL     1      -1.765  12.641  21.635  0.00  0.00    +0.000 N 
ATOM     11  C   UNL     1      -2.623  12.745  20.462  0.00  0.00    +0.000 C 
ATOM     12  C   UNL     1      -3.719  13.776  20.736  0.00  0.00    +0.000 C 
ATOM     13  C   UNL     1      -4.599  13.404  21.957  0.00  0.00    +0.000 C 
ATOM     14  C   UNL     1      -3.621  13.218  23.151  0.00  0.00    +0.000 C 
ATOM     15  C   UNL     1      -2.456  12.270  22.869  0.00  0.00    +0.000 C 
BRANCH  13  16
ATOM     16  N   UNL     1      -5.496  12.244  21.694  0.00  0.00    +0.000 NA
ATOM     17  C   UNL     1      -6.008  12.195  20.305  0.00  0.00    +0.000 C 
ATOM     18  C   UNL     1      -7.310  12.972  20.308  0.00  0.00    +0.000 C 
ATOM     19  C   UNL     1      -7.916  12.602  21.640  0.00  0.00    +0.000 C 
ATOM     20  C   UNL     1      -6.725  12.239  22.524  0.00  0.00    +0.000 C 
ENDBRANCH  13  16
BRANCH   9  21
ATOM     21  O   UNL     1      -0.125  14.276  22.857  0.00  0.00    +0.000 OA
ATOM     22  H   UNL     1      -0.084  13.941  23.770  0.00  0.00    +0.000 HD
ENDBRANCH   9  21
ENDBRANCH   7   8
BRANCH   1  23
ATOM     23  O   UNL     1       0.310  12.758  18.694  0.00  0.00    +0.000 OA
BRANCH  23  27
ATOM     24  C   UNL     1       3.468  15.512  18.732  0.00  0.00    +0.000 A 
ATOM     25  C   UNL     1       2.173  15.875  19.120  0.00  0.00    +0.000 A 
ATOM     26  C   UNL     1       1.136  14.936  19.098  0.00  0.00    +0.000 A 
ATOM     27  C   UNL     1       1.382  13.631  18.671  0.00  0.00    +0.000 A 
ATOM     28  C   UNL     1       2.684  13.262  18.306  0.00  0.00    +0.000 A 
ATOM     29  C   UNL     1       3.713  14.204  18.312  0.00  0.00    +0.000 A 
BRANCH  24  31
ATOM     30  C   UNL     1       4.594  17.342  20.429  0.00  0.00    +0.000 C 
ATOM     31  S   UNL     1       4.807  16.688  18.752  0.00  0.00    +0.000 S 
ENDBRANCH  24  31
ENDBRANCH  23  27
ENDBRANCH   1  23
TORSDOF 6
ENDMDL
MODEL 8
REMARK VINA RESULT:      -6.4      7.896     11.056
REMARK  Name = 
REMARK  8 active torsions:
REMARK  status: ('A' for Active; 'I' for Inactive)
REMARK    1  A    between atoms: C_1  and  S_2
REMARK    2  A    between atoms: S_2  and  C_3
REMARK    3  A    between atoms: C_6  and  O_7
REMARK    4  A    between atoms: O_7  and  C_8
REMARK    5  A    between atoms: C_10  and  C_11
REMARK    6  A    between atoms: C_14  and  C_15
REMARK    7  A    between atoms: N_16  and  O_17
REMARK    8  A    between atoms: C_21  and  N_22
REMARK                            x       y       z     vdW  Elec       q    Type
REMARK                         _______ _______ _______ _____ _____    ______ ____
ROOT
ATOM      1  C   UNL     1      -2.361  11.831  18.806  0.00  0.00    +0.000 A 
ATOM      2  N   UNL     1      -3.004  11.455  17.664  0.00  0.00    +0.000 NA
ATOM      3  C   UNL     1      -2.483  10.458  16.922  0.00  0.00    +0.000 A 
ATOM      4  C   UNL     1      -3.170  10.155  15.625  0.00  0.00    +0.000 C 
ATOM      5  C   UNL     1      -1.336   9.779  17.304  0.00  0.00    +0.000 A 
ATOM      6  C   UNL     1      -0.725  10.121  18.512  0.00  0.00    +0.000 A 
ATOM      7  C   UNL     1      -1.245  11.157  19.298  0.00  0.00    +0.000 A 
ENDROOT
BRANCH   7   8
ATOM      8  C   UNL     1      -0.553  11.516  20.584  0.00  0.00    +0.000 C 
ATOM      9  N   UNL     1      -0.782  10.743  21.609  0.00  0.00    +0.000 NA
ATOM     10  N   UNL     1       0.265  12.650  20.621  0.00  0.00    +0.000 N 
ATOM     11  C   UNL     1       1.340  12.853  19.658  0.00  0.00    +0.000 C 
ATOM     12  C   UNL     1       2.544  13.464  20.377  0.00  0.00    +0.000 C 
ATOM     13  C   UNL     1       2.216  14.826  21.042  0.00  0.00    +0.000 C 
ATOM     14  C   UNL     1       1.008  14.563  21.985  0.00  0.00    +0.000 C 
ATOM     15  C   UNL     1      -0.172  13.859  21.316  0.00  0.00    +0.000 C 
BRANCH  13  16
ATOM     16  N   UNL     1       2.013  15.922  20.053  0.00  0.00    +0.000 NA
ATOM     17  C   UNL     1       3.241  16.276  19.302  0.00  0.00    +0.000 C 
ATOM     18  C   UNL     1       3.924  17.367  20.103  0.00  0.00    +0.000 C 
ATOM     19  C   UNL     1       2.761  18.182  20.615  0.00  0.00    +0.000 C 
ATOM     20  C   UNL     1       1.589  17.205  20.662  0.00  0.00    +0.000 C 
ENDBRANCH  13  16
BRANCH   9  21
ATOM     21  O   UNL     1      -0.039  11.132  22.733  0.00  0.00    +0.000 OA
ATOM     22  H   UNL     1      -0.468  10.624  23.444  0.00  0.00    +0.000 HD
ENDBRANCH   9  21
ENDBRANCH   7   8
BRANCH   1  23
ATOM     23  O   UNL     1      -2.893  12.901  19.507  0.00  0.00    +0.000 OA
BRANCH  23  27
ATOM     24  C   UNL     1      -6.419  12.399  21.715  0.00  0.00    +0.000 A 
ATOM     25  C   UNL     1      -5.266  12.950  22.287  0.00  0.00    +0.000 A 
ATOM     26  C   UNL     1      -4.102  13.107  21.527  0.00  0.00    +0.000 A 
ATOM     27  C   UNL     1      -4.075  12.697  20.194  0.00  0.00    +0.000 A 
ATOM     28  C   UNL     1      -5.236  12.167  19.616  0.00  0.00    +0.000 A 
ATOM     29  C   UNL     1      -6.391  11.995  20.379  0.00  0.00    +0.000 A 
BRANCH  24  31
ATOM     30  C   UNL     1      -7.445  13.100  24.155  0.00  0.00    +0.000 C 
ATOM     31  S   UNL     1      -7.916  12.190  22.660  0.00  0.00    +0.000 S 
ENDBRANCH  24  31
ENDBRANCH  23  27
ENDBRANCH   1  23
TORSDOF 6
ENDMDL
MODEL 9
REMARK VINA RESULT:      -6.3      6.023     10.400
REMARK  Name = 
REMARK  8 active torsions:
REMARK  status: ('A' for Active; 'I' for Inactive)
REMARK    1  A    between atoms: C_1  and  S_2
REMARK    2  A    between atoms: S_2  and  C_3
REMARK    3  A    between atoms: C_6  and  O_7
REMARK    4  A    between atoms: O_7  and  C_8
REMARK    5  A    between atoms: C_10  and  C_11
REMARK    6  A    between atoms: C_14  and  C_15
REMARK    7  A    between atoms: N_16  and  O_17
REMARK    8  A    between atoms: C_21  and  N_22
REMARK                            x       y       z     vdW  Elec       q    Type
REMARK                         _______ _______ _______ _____ _____    ______ ____
ROOT
ATOM      1  C   UNL     1      -0.300  10.473  18.915  0.00  0.00    +0.000 A 
ATOM      2  N   UNL     1      -0.663  10.205  17.627  0.00  0.00    +0.000 NA
ATOM      3  C   UNL     1      -1.960  10.318  17.281  0.00  0.00    +0.000 A 
ATOM      4  C   UNL     1      -2.320   9.912  15.883  0.00  0.00    +0.000 C 
ATOM      5  C   UNL     1      -2.928  10.734  18.181  0.00  0.00    +0.000 A 
ATOM      6  C   UNL     1      -2.537  11.076  19.478  0.00  0.00    +0.000 A 
ATOM      7  C   UNL     1      -1.196  10.963  19.863  0.00  0.00    +0.000 A 
ENDROOT
BRANCH   7   8
ATOM      8  C   UNL     1      -0.809  11.320  21.271  0.00  0.00    +0.000 C 
ATOM      9  N   UNL     1      -0.654  10.330  22.106  0.00  0.00    +0.000 NA
ATOM     10  N   UNL     1      -0.660  12.669  21.613  0.00  0.00    +0.000 N 
ATOM     11  C   UNL     1       0.201  13.563  20.850  0.00  0.00    +0.000 C 
ATOM     12  C   UNL     1       0.924  14.503  21.816  0.00  0.00    +0.000 C 
ATOM     13  C   UNL     1      -0.053  15.362  22.660  0.00  0.00    +0.000 C 
ATOM     14  C   UNL     1      -0.999  14.357  23.376  0.00  0.00    +0.000 C 
ATOM     15  C   UNL     1      -1.657  13.338  22.445  0.00  0.00    +0.000 C 
BRANCH  13  16
ATOM     16  N   UNL     1      -0.742  16.412  21.859  0.00  0.00    +0.000 NA
ATOM     17  C   UNL     1       0.182  17.404  21.263  0.00  0.00    +0.000 C 
ATOM     18  C   UNL     1       0.316  18.520  22.280  0.00  0.00    +0.000 C 
ATOM     19  C   UNL     1      -1.079  18.626  22.844  0.00  0.00    +0.000 C 
ATOM     20  C   UNL     1      -1.687  17.240  22.647  0.00  0.00    +0.000 C 
ENDBRANCH  13  16
BRANCH   9  21
ATOM     21  O   UNL     1      -0.234  10.773  23.369  0.00  0.00    +0.000 OA
ATOM     22  H   UNL     1      -0.844  10.300  23.962  0.00  0.00    +0.000 HD
ENDBRANCH   9  21
ENDBRANCH   7   8
BRANCH   1  23
ATOM     23  O   UNL     1       1.031  10.284  19.247  0.00  0.00    +0.000 OA
BRANCH  23  27
ATOM     24  C   UNL     1       2.535   6.376  19.409  0.00  0.00    +0.000 A 
ATOM     25  C   UNL     1       2.669   7.168  18.262  0.00  0.00    +0.000 A 
ATOM     26  C   UNL     1       2.157   8.470  18.234  0.00  0.00    +0.000 A 
ATOM     27  C   UNL     1       1.492   8.984  19.347  0.00  0.00    +0.000 A 
ATOM     28  C   UNL     1       1.380   8.200  20.503  0.00  0.00    +0.000 A 
ATOM     29  C   UNL     1       1.875   6.896  20.523  0.00  0.00    +0.000 A 
BRANCH  24  31
ATOM     30  C   UNL     1       4.926   5.068  19.145  0.00  0.00    +0.000 C 
ATOM     31  S   UNL     1       3.179   4.715  19.471  0.00  0.00    +0.000 S 
ENDBRANCH  24  31
ENDBRANCH  23  27
ENDBRANCH   1  23
TORSDOF 6
ENDMDL
