MODEL 1
REMARK VINA RESULT:      -7.0      0.000      0.000
REMARK  Name = 
REMARK  13 active torsions:
REMARK  status: ('A' for Active; 'I' for Inactive)
REMARK    1  A    between atoms: C_1  and  N_2
REMARK    2  A    between atoms: C_3  and  C_4
REMARK    3  A    between atoms: C_4  and  C_5
REMARK    4  A    between atoms: C_5  and  C_6
REMARK    5  A    between atoms: C_9  and  O_10
REMARK    6  A    between atoms: O_10  and  C_11
REMARK    7  A    between atoms: C_11  and  C_12
REMARK    8  A    between atoms: C_19  and  C_20
REMARK    9  A    between atoms: C_20  and  C_21
REMARK   10  A    between atoms: C_21  and  C_22
REMARK   11  A    between atoms: C_25  and  O_26
REMARK   12  A    between atoms: O_26  and  C_27
REMARK   13  A    between atoms: C_27  and  C_28
REMARK                            x       y       z     vdW  Elec       q    Type
REMARK                         _______ _______ _______ _____ _____    ______ ____
ROOT
ATOM      1  C   UNL     1       1.293   5.007  17.628  0.00  0.00    +0.000 C 
ATOM      2  N   UNL     1       2.000   4.449  18.815  0.00  0.00    +0.000 NA
ATOM      3  C   UNL     1       1.550   5.120  20.084  0.00  0.00    +0.000 C 
ATOM      4  C   UNL     1       2.075   4.377  21.339  0.00  0.00    +0.000 C 
ATOM      5  C   UNL     1       1.721   2.909  21.315  0.00  0.00    +0.000 C 
ATOM      6  C   UNL     1       2.351   2.289  20.087  0.00  0.00    +0.000 C 
ATOM      7  C   UNL     1       1.822   2.958  18.800  0.00  0.00    +0.000 C 
ENDROOT
BRANCH   3   8
ATOM      8  C   UNL     1       2.092   6.583  20.242  0.00  0.00    +0.000 C 
BRANCH   8   9
ATOM      9  C   UNL     1       1.305   7.551  21.143  0.00  0.00    +0.000 C 
BRANCH   9  10
ATOM     10  C   UNL     1       1.176   8.922  20.534  0.00  0.00    +0.000 A 
ATOM     11  C   UNL     1       1.354   9.084  19.155  0.00  0.00    +0.000 A 
ATOM     12  C   UNL     1       1.210  10.332  18.568  0.00  0.00    +0.000 A 
ATOM     13  C   UNL     1       0.869  11.455  19.347  0.00  0.00    +0.000 A 
ATOM     14  C   UNL     1       0.685  11.294  20.729  0.00  0.00    +0.000 A 
ATOM     15  C   UNL     1       0.839  10.035  21.321  0.00  0.00    +0.000 A 
BRANCH  13  16
ATOM     16  O   UNL     1       0.710  12.689  18.804  0.00  0.00    +0.000 OA
BRANCH  16  17
ATOM     17  C   UNL     1       1.573  13.747  19.011  0.00  0.00    +0.000 C 
BRANCH  17  18
ATOM     18  C   UNL     1       0.854  15.065  18.796  0.00  0.00    +0.000 C 
ATOM     19  F   UNL     1       1.646  16.114  19.227  0.00  0.00    +0.000 F 
ENDBRANCH  17  18
ENDBRANCH  16  17
ENDBRANCH  13  16
ENDBRANCH   9  10
ENDBRANCH   8   9
ENDBRANCH   3   8
BRANCH   7  20
ATOM     20  C   UNL     1       2.546   2.339  17.557  0.00  0.00    +0.000 C 
BRANCH  20  21
ATOM     21  C   UNL     1       4.074   2.295  17.725  0.00  0.00    +0.000 C 
BRANCH  21  22
ATOM     22  C   UNL     1       4.721   3.648  17.562  0.00  0.00    +0.000 A 
ATOM     23  C   UNL     1       5.369   4.235  18.658  0.00  0.00    +0.000 A 
ATOM     24  C   UNL     1       6.012   5.463  18.525  0.00  0.00    +0.000 A 
ATOM     25  C   UNL     1       6.024   6.133  17.286  0.00  0.00    +0.000 A 
ATOM     26  C   UNL     1       5.364   5.554  16.194  0.00  0.00    +0.000 A 
ATOM     27  C   UNL     1       4.717   4.319  16.327  0.00  0.00    +0.000 A 
BRANCH  25  28
ATOM     28  O   UNL     1       6.662   7.320  17.117  0.00  0.00    +0.000 OA
BRANCH  28  29
ATOM     29  C   UNL     1       7.875   7.649  17.691  0.00  0.00    +0.000 C 
BRANCH  29  30
ATOM     30  C   UNL     1       7.974   9.153  17.875  0.00  0.00    +0.000 C 
ATOM     31  F   UNL     1       8.873   9.435  18.889  0.00  0.00    +0.000 F 
ENDBRANCH  29  30
ENDBRANCH  28  29
ENDBRANCH  25  28
ENDBRANCH  21  22
ENDBRANCH  20  21
ENDBRANCH   7  20
TORSDOF 12
ENDMDL
MODEL 2
REMARK VINA RESULT:      -6.9      1.834      2.324
REMARK  Name = 
REMARK  13 active torsions:
REMARK  status: ('A' for Active; 'I' for Inactive)
REMARK    1  A    between atoms: C_1  and  N_2
REMARK    2  A    between atoms: C_3  and  C_4
REMARK    3  A    between atoms: C_4  and  C_5
REMARK    4  A    between atoms: C_5  and  C_6
REMARK    5  A    between atoms: C_9  and  O_10
REMARK    6  A    between atoms: O_10  and  C_11
REMARK    7  A    between atoms: C_11  and  C_12
REMARK    8  A    between atoms: C_19  and  C_20
REMARK    9  A    between atoms: C_20  and  C_21
REMARK   10  A    between atoms: C_21  and  C_22
REMARK   11  A    between atoms: C_25  and  O_26
REMARK   12  A    between atoms: O_26  and  C_27
REMARK   13  A    between atoms: C_27  and  C_28
REMARK                            x       y       z     vdW  Elec       q    Type
REMARK                         _______ _______ _______ _____ _____    ______ ____
ROOT
ATOM      1  C   UNL     1       1.244   4.941  17.582  0.00  0.00    +0.000 C 
ATOM      2  N   UNL     1       1.986   4.476  18.788  0.00  0.00    +0.000 NA
ATOM      3  C   UNL     1       1.577   5.248  20.013  0.00  0.00    +0.000 C 
ATOM      4  C   UNL     1       2.138   4.606  21.306  0.00  0.00    +0.000 C 
ATOM      5  C   UNL     1       1.779   3.142  21.410  0.00  0.00    +0.000 C 
ATOM      6  C   UNL     1       2.369   2.423  20.217  0.00  0.00    +0.000 C 
ATOM      7  C   UNL     1       1.803   2.990  18.898  0.00  0.00    +0.000 C 
ENDROOT
BRANCH   3   8
ATOM      8  C   UNL     1       2.128   6.717  20.036  0.00  0.00    +0.000 C 
BRANCH   8   9
ATOM      9  C   UNL     1       1.711   7.626  21.205  0.00  0.00    +0.000 C 
BRANCH   9  10
ATOM     10  C   UNL     1       0.926   8.826  20.745  0.00  0.00    +0.000 A 
ATOM     11  C   UNL     1       0.130   9.522  21.662  0.00  0.00    +0.000 A 
ATOM     12  C   UNL     1      -0.577  10.648  21.267  0.00  0.00    +0.000 A 
ATOM     13  C   UNL     1      -0.496  11.117  19.942  0.00  0.00    +0.000 A 
ATOM     14  C   UNL     1       0.306  10.423  19.023  0.00  0.00    +0.000 A 
ATOM     15  C   UNL     1       1.013   9.282  19.420  0.00  0.00    +0.000 A 
BRANCH  13  16
ATOM     16  O   UNL     1      -1.168  12.220  19.525  0.00  0.00    +0.000 OA
BRANCH  16  17
ATOM     17  C   UNL     1      -2.543  12.302  19.423  0.00  0.00    +0.000 C 
BRANCH  17  18
ATOM     18  C   UNL     1      -3.032  11.504  18.228  0.00  0.00    +0.000 C 
ATOM     19  F   UNL     1      -4.331  11.080  18.441  0.00  0.00    +0.000 F 
ENDBRANCH  17  18
ENDBRANCH  16  17
ENDBRANCH  13  16
ENDBRANCH   9  10
ENDBRANCH   8   9
ENDBRANCH   3   8
BRANCH   7  20
ATOM     20  C   UNL     1       2.486   2.270  17.687  0.00  0.00    +0.000 C 
BRANCH  20  21
ATOM     21  C   UNL     1       4.013   2.168  17.845  0.00  0.00    +0.000 C 
BRANCH  21  22
ATOM     22  C   UNL     1       4.714   3.484  17.623  0.00  0.00    +0.000 A 
ATOM     23  C   UNL     1       4.667   4.081  16.355  0.00  0.00    +0.000 A 
ATOM     24  C   UNL     1       5.268   5.317  16.131  0.00  0.00    +0.000 A 
ATOM     25  C   UNL     1       5.931   5.988  17.177  0.00  0.00    +0.000 A 
ATOM     26  C   UNL     1       5.991   5.386  18.441  0.00  0.00    +0.000 A 
ATOM     27  C   UNL     1       5.386   4.144  18.666  0.00  0.00    +0.000 A 
BRANCH  25  28
ATOM     28  O   UNL     1       6.506   7.205  16.999  0.00  0.00    +0.000 OA
BRANCH  28  29
ATOM     29  C   UNL     1       7.706   7.597  17.562  0.00  0.00    +0.000 C 
BRANCH  29  30
ATOM     30  C   UNL     1       7.718   9.101  17.769  0.00  0.00    +0.000 C 
ATOM     31  F   UNL     1       9.020   9.529  17.965  0.00  0.00    +0.000 F 
ENDBRANCH  29  30
ENDBRANCH  28  29
ENDBRANCH  25  28
ENDBRANCH  21  22
ENDBRANCH  20  21
ENDBRANCH   7  20
TORSDOF 12
ENDMDL
MODEL 3
REMARK VINA RESULT:      -6.8      3.594      7.179
REMARK  Name = 
REMARK  13 active torsions:
REMARK  status: ('A' for Active; 'I' for Inactive)
REMARK    1  A    between atoms: C_1  and  N_2
REMARK    2  A    between atoms: C_3  and  C_4
REMARK    3  A    between atoms: C_4  and  C_5
REMARK    4  A    between atoms: C_5  and  C_6
REMARK    5  A    between atoms: C_9  and  O_10
REMARK    6  A    between atoms: O_10  and  C_11
REMARK    7  A    between atoms: C_11  and  C_12
REMARK    8  A    between atoms: C_19  and  C_20
REMARK    9  A    between atoms: C_20  and  C_21
REMARK   10  A    between atoms: C_21  and  C_22
REMARK   11  A    between atoms: C_25  and  O_26
REMARK   12  A    between atoms: O_26  and  C_27
REMARK   13  A    between atoms: C_27  and  C_28
REMARK                            x       y       z     vdW  Elec       q    Type
REMARK                         _______ _______ _______ _____ _____    ______ ____
ROOT
ATOM      1  C   UNL     1       7.488   5.704  19.609  0.00  0.00    +0.000 C 
ATOM      2  N   UNL     1       6.602   5.875  18.422  0.00  0.00    +0.000 NA
ATOM      3  C   UNL     1       7.320   6.578  17.302  0.00  0.00    +0.000 C 
ATOM      4  C   UNL     1       6.507   6.528  15.984  0.00  0.00    +0.000 C 
ATOM      5  C   UNL     1       6.119   5.115  15.613  0.00  0.00    +0.000 C 
ATOM      6  C   UNL     1       5.268   4.550  16.729  0.00  0.00    +0.000 C 
ATOM      7  C   UNL     1       6.050   4.527  18.060  0.00  0.00    +0.000 C 
ENDROOT
BRANCH   3   8
ATOM      8  C   UNL     1       7.539   8.109  17.566  0.00  0.00    +0.000 C 
BRANCH   8   9
ATOM      9  C   UNL     1       8.613   8.518  18.590  0.00  0.00    +0.000 C 
BRANCH   9  10
ATOM     10  C   UNL     1       8.860  10.003  18.598  0.00  0.00    +0.000 A 
ATOM     11  C   UNL     1       9.716  10.555  19.559  0.00  0.00    +0.000 A 
ATOM     12  C   UNL     1       9.981  11.915  19.566  0.00  0.00    +0.000 A 
ATOM     13  C   UNL     1       9.405  12.763  18.600  0.00  0.00    +0.000 A 
ATOM     14  C   UNL     1       8.552  12.211  17.633  0.00  0.00    +0.000 A 
ATOM     15  C   UNL     1       8.278  10.838  17.631  0.00  0.00    +0.000 A 
BRANCH  13  16
ATOM     16  O   UNL     1       9.652  14.098  18.572  0.00  0.00    +0.000 OA
BRANCH  16  17
ATOM     17  C   UNL     1      10.915  14.654  18.534  0.00  0.00    +0.000 C 
BRANCH  17  18
ATOM     18  C   UNL     1      11.118  15.415  17.237  0.00  0.00    +0.000 C 
ATOM     19  F   UNL     1      10.142  16.384  17.097  0.00  0.00    +0.000 F 
ENDBRANCH  17  18
ENDBRANCH  16  17
ENDBRANCH  13  16
ENDBRANCH   9  10
ENDBRANCH   8   9
ENDBRANCH   3   8
BRANCH   7  20
ATOM     20  C   UNL     1       5.116   4.000  19.202  0.00  0.00    +0.000 C 
BRANCH  20  21
ATOM     21  C   UNL     1       3.632   4.000  18.798  0.00  0.00    +0.000 C 
BRANCH  21  22
ATOM     22  C   UNL     1       2.877   5.188  19.339  0.00  0.00    +0.000 A 
ATOM     23  C   UNL     1       2.081   5.031  20.483  0.00  0.00    +0.000 A 
ATOM     24  C   UNL     1       1.407   6.120  21.031  0.00  0.00    +0.000 A 
ATOM     25  C   UNL     1       1.517   7.396  20.446  0.00  0.00    +0.000 A 
ATOM     26  C   UNL     1       2.301   7.551  19.294  0.00  0.00    +0.000 A 
ATOM     27  C   UNL     1       2.978   6.457  18.743  0.00  0.00    +0.000 A 
BRANCH  25  28
ATOM     28  O   UNL     1       0.892   8.483  20.968  0.00  0.00    +0.000 OA
BRANCH  28  29
ATOM     29  C   UNL     1       1.280   9.132  22.125  0.00  0.00    +0.000 C 
BRANCH  29  30
ATOM     30  C   UNL     1       0.063   9.682  22.847  0.00  0.00    +0.000 C 
ATOM     31  F   UNL     1       0.070   9.245  24.161  0.00  0.00    +0.000 F 
ENDBRANCH  29  30
ENDBRANCH  28  29
ENDBRANCH  25  28
ENDBRANCH  21  22
ENDBRANCH  20  21
ENDBRANCH   7  20
TORSDOF 12
ENDMDL
MODEL 4
REMARK VINA RESULT:      -6.8      3.203      6.740
REMARK  Name = 
REMARK  13 active torsions:
REMARK  status: ('A' for Active; 'I' for Inactive)
REMARK    1  A    between atoms: C_1  and  N_2
REMARK    2  A    between atoms: C_3  and  C_4
REMARK    3  A    between atoms: C_4  and  C_5
REMARK    4  A    between atoms: C_5  and  C_6
REMARK    5  A    between atoms: C_9  and  O_10
REMARK    6  A    between atoms: O_10  and  C_11
REMARK    7  A    between atoms: C_11  and  C_12
REMARK    8  A    between atoms: C_19  and  C_20
REMARK    9  A    between atoms: C_20  and  C_21
REMARK   10  A    between atoms: C_21  and  C_22
REMARK   11  A    between atoms: C_25  and  O_26
REMARK   12  A    between atoms: O_26  and  C_27
REMARK   13  A    between atoms: C_27  and  C_28
REMARK                            x       y       z     vdW  Elec       q    Type
REMARK                         _______ _______ _______ _____ _____    ______ ____
ROOT
ATOM      1  C   UNL     1       6.069   5.340  19.355  0.00  0.00    +0.000 C 
ATOM      2  N   UNL     1       5.879   5.447  17.880  0.00  0.00    +0.000 NA
ATOM      3  C   UNL     1       7.108   5.994  17.209  0.00  0.00    +0.000 C 
ATOM      4  C   UNL     1       7.021   5.864  15.667  0.00  0.00    +0.000 C 
ATOM      5  C   UNL     1       6.721   4.447  15.237  0.00  0.00    +0.000 C 
ATOM      6  C   UNL     1       5.390   4.044  15.832  0.00  0.00    +0.000 C 
ATOM      7  C   UNL     1       5.436   4.104  17.374  0.00  0.00    +0.000 C 
ENDROOT
BRANCH   3   8
ATOM      8  C   UNL     1       7.324   7.528  17.459  0.00  0.00    +0.000 C 
BRANCH   8   9
ATOM      9  C   UNL     1       8.377   7.948  18.500  0.00  0.00    +0.000 C 
BRANCH   9  10
ATOM     10  C   UNL     1       8.646   9.429  18.475  0.00  0.00    +0.000 A 
ATOM     11  C   UNL     1       8.012  10.230  17.518  0.00  0.00    +0.000 A 
ATOM     12  C   UNL     1       8.222  11.600  17.496  0.00  0.00    +0.000 A 
ATOM     13  C   UNL     1       9.067  12.211  18.443  0.00  0.00    +0.000 A 
ATOM     14  C   UNL     1       9.700  11.411  19.406  0.00  0.00    +0.000 A 
ATOM     15  C   UNL     1       9.494  10.027  19.422  0.00  0.00    +0.000 A 
BRANCH  13  16
ATOM     16  O   UNL     1       9.287  13.550  18.455  0.00  0.00    +0.000 OA
BRANCH  16  17
ATOM     17  C   UNL     1       8.426  14.475  19.014  0.00  0.00    +0.000 C 
BRANCH  17  18
ATOM     18  C   UNL     1       7.708  15.252  17.927  0.00  0.00    +0.000 C 
ATOM     19  F   UNL     1       8.451  16.361  17.567  0.00  0.00    +0.000 F 
ENDBRANCH  17  18
ENDBRANCH  16  17
ENDBRANCH  13  16
ENDBRANCH   9  10
ENDBRANCH   8   9
ENDBRANCH   3   8
BRANCH   7  20
ATOM     20  C   UNL     1       4.025   3.747  17.950  0.00  0.00    +0.000 C 
BRANCH  20  21
ATOM     21  C   UNL     1       2.929   4.715  17.472  0.00  0.00    +0.000 C 
BRANCH  21  22
ATOM     22  C   UNL     1       2.461   5.651  18.558  0.00  0.00    +0.000 A 
ATOM     23  C   UNL     1       2.026   5.120  19.781  0.00  0.00    +0.000 A 
ATOM     24  C   UNL     1       1.629   5.962  20.817  0.00  0.00    +0.000 A 
ATOM     25  C   UNL     1       1.660   7.361  20.653  0.00  0.00    +0.000 A 
ATOM     26  C   UNL     1       2.081   7.892  19.425  0.00  0.00    +0.000 A 
ATOM     27  C   UNL     1       2.480   7.046  18.384  0.00  0.00    +0.000 A 
BRANCH  25  28
ATOM     28  O   UNL     1       1.303   8.210  21.650  0.00  0.00    +0.000 OA
BRANCH  28  29
ATOM     29  C   UNL     1       0.645   9.411  21.462  0.00  0.00    +0.000 C 
BRANCH  29  30
ATOM     30  C   UNL     1      -0.224   9.724  22.666  0.00  0.00    +0.000 C 
ATOM     31  F   UNL     1      -0.701  11.019  22.567  0.00  0.00    +0.000 F 
ENDBRANCH  29  30
ENDBRANCH  28  29
ENDBRANCH  25  28
ENDBRANCH  21  22
ENDBRANCH  20  21
ENDBRANCH   7  20
TORSDOF 12
ENDMDL
MODEL 5
REMARK VINA RESULT:      -6.8      1.294      2.155
REMARK  Name = 
REMARK  13 active torsions:
REMARK  status: ('A' for Active; 'I' for Inactive)
REMARK    1  A    between atoms: C_1  and  N_2
REMARK    2  A    between atoms: C_3  and  C_4
REMARK    3  A    between atoms: C_4  and  C_5
REMARK    4  A    between atoms: C_5  and  C_6
REMARK    5  A    between atoms: C_9  and  O_10
REMARK    6  A    between atoms: O_10  and  C_11
REMARK    7  A    between atoms: C_11  and  C_12
REMARK    8  A    between atoms: C_19  and  C_20
REMARK    9  A    between atoms: C_20  and  C_21
REMARK   10  A    between atoms: C_21  and  C_22
REMARK   11  A    between atoms: C_25  and  O_26
REMARK   12  A    between atoms: O_26  and  C_27
REMARK   13  A    between atoms: C_27  and  C_28
REMARK                            x       y       z     vdW  Elec       q    Type
REMARK                         _______ _______ _______ _____ _____    ______ ____
ROOT
ATOM      1  C   UNL     1       1.399   4.916  17.397  0.00  0.00    +0.000 C 
ATOM      2  N   UNL     1       2.391   4.294  18.319  0.00  0.00    +0.000 NA
ATOM      3  C   UNL     1       1.727   3.770  19.563  0.00  0.00    +0.000 C 
ATOM      4  C   UNL     1       2.695   2.896  20.400  0.00  0.00    +0.000 C 
ATOM      5  C   UNL     1       3.312   1.790  19.576  0.00  0.00    +0.000 C 
ATOM      6  C   UNL     1       4.089   2.421  18.443  0.00  0.00    +0.000 C 
ATOM      7  C   UNL     1       3.161   3.265  17.542  0.00  0.00    +0.000 C 
ENDROOT
BRANCH   3   8
ATOM      8  C   UNL     1       1.272   4.902  20.550  0.00  0.00    +0.000 C 
BRANCH   8   9
ATOM      9  C   UNL     1       2.273   6.027  20.868  0.00  0.00    +0.000 C 
BRANCH   9  10
ATOM     10  C   UNL     1       1.826   7.359  20.327  0.00  0.00    +0.000 A 
ATOM     11  C   UNL     1       1.079   8.219  21.140  0.00  0.00    +0.000 A 
ATOM     12  C   UNL     1       0.683   9.463  20.673  0.00  0.00    +0.000 A 
ATOM     13  C   UNL     1       1.037   9.887  19.377  0.00  0.00    +0.000 A 
ATOM     14  C   UNL     1       1.790   9.029  18.562  0.00  0.00    +0.000 A 
ATOM     15  C   UNL     1       2.182   7.770  19.032  0.00  0.00    +0.000 A 
BRANCH  13  16
ATOM     16  O   UNL     1       0.674  11.102  18.891  0.00  0.00    +0.000 OA
BRANCH  16  17
ATOM     17  C   UNL     1       0.381  12.198  19.679  0.00  0.00    +0.000 C 
BRANCH  17  18
ATOM     18  C   UNL     1       1.627  13.034  19.907  0.00  0.00    +0.000 C 
ATOM     19  F   UNL     1       2.035  13.610  18.717  0.00  0.00    +0.000 F 
ENDBRANCH  17  18
ENDBRANCH  16  17
ENDBRANCH  13  16
ENDBRANCH   9  10
ENDBRANCH   8   9
ENDBRANCH   3   8
BRANCH   7  20
ATOM     20  C   UNL     1       4.010   3.956  16.423  0.00  0.00    +0.000 C 
BRANCH  20  21
ATOM     21  C   UNL     1       5.518   3.692  16.578  0.00  0.00    +0.000 C 
BRANCH  21  22
ATOM     22  C   UNL     1       6.266   4.876  17.135  0.00  0.00    +0.000 A 
ATOM     23  C   UNL     1       7.116   4.694  18.236  0.00  0.00    +0.000 A 
ATOM     24  C   UNL     1       7.853   5.760  18.745  0.00  0.00    +0.000 A 
ATOM     25  C   UNL     1       7.759   7.038  18.160  0.00  0.00    +0.000 A 
ATOM     26  C   UNL     1       6.899   7.224  17.069  0.00  0.00    +0.000 A 
ATOM     27  C   UNL     1       6.158   6.152  16.557  0.00  0.00    +0.000 A 
BRANCH  25  28
ATOM     28  O   UNL     1       8.481   8.093  18.617  0.00  0.00    +0.000 OA
BRANCH  28  29
ATOM     29  C   UNL     1       8.379   9.384  18.133  0.00  0.00    +0.000 C 
BRANCH  29  30
ATOM     30  C   UNL     1       9.271  10.313  18.937  0.00  0.00    +0.000 C 
ATOM     31  F   UNL     1      10.229  10.866  18.105  0.00  0.00    +0.000 F 
ENDBRANCH  29  30
ENDBRANCH  28  29
ENDBRANCH  25  28
ENDBRANCH  21  22
ENDBRANCH  20  21
ENDBRANCH   7  20
TORSDOF 12
ENDMDL
MODEL 6
REMARK VINA RESULT:      -6.7      1.275      6.843
REMARK  Name = 
REMARK  13 active torsions:
REMARK  status: ('A' for Active; 'I' for Inactive)
REMARK    1  A    between atoms: C_1  and  N_2
REMARK    2  A    between atoms: C_3  and  C_4
REMARK    3  A    between atoms: C_4  and  C_5
REMARK    4  A    between atoms: C_5  and  C_6
REMARK    5  A    between atoms: C_9  and  O_10
REMARK    6  A    between atoms: O_10  and  C_11
REMARK    7  A    between atoms: C_11  and  C_12
REMARK    8  A    between atoms: C_19  and  C_20
REMARK    9  A    between atoms: C_20  and  C_21
REMARK   10  A    between atoms: C_21  and  C_22
REMARK   11  A    between atoms: C_25  and  O_26
REMARK   12  A    between atoms: O_26  and  C_27
REMARK   13  A    between atoms: C_27  and  C_28
REMARK                            x       y       z     vdW  Elec       q    Type
REMARK                         _______ _______ _______ _____ _____    ______ ____
ROOT
ATOM      1  C   UNL     1       4.547   4.658  19.922  0.00  0.00    +0.000 C 
ATOM      2  N   UNL     1       3.216   4.263  19.380  0.00  0.00    +0.000 NA
ATOM      3  C   UNL     1       3.198   2.815  18.974  0.00  0.00    +0.000 C 
ATOM      4  C   UNL     1       1.761   2.329  18.659  0.00  0.00    +0.000 C 
ATOM      5  C   UNL     1       0.808   2.612  19.796  0.00  0.00    +0.000 C 
ATOM      6  C   UNL     1       0.773   4.107  20.024  0.00  0.00    +0.000 C 
ATOM      7  C   UNL     1       2.175   4.639  20.394  0.00  0.00    +0.000 C 
ENDROOT
BRANCH   3   8
ATOM      8  C   UNL     1       4.004   2.527  17.659  0.00  0.00    +0.000 C 
BRANCH   8   9
ATOM      9  C   UNL     1       3.927   3.564  16.524  0.00  0.00    +0.000 C 
BRANCH   9  10
ATOM     10  C   UNL     1       4.981   4.632  16.651  0.00  0.00    +0.000 A 
ATOM     11  C   UNL     1       4.603   5.980  16.633  0.00  0.00    +0.000 A 
ATOM     12  C   UNL     1       5.554   6.978  16.779  0.00  0.00    +0.000 A 
ATOM     13  C   UNL     1       6.912   6.654  16.961  0.00  0.00    +0.000 A 
ATOM     14  C   UNL     1       7.292   5.304  16.984  0.00  0.00    +0.000 A 
ATOM     15  C   UNL     1       6.333   4.296  16.829  0.00  0.00    +0.000 A 
BRANCH  13  16
ATOM     16  O   UNL     1       7.867   7.607  17.117  0.00  0.00    +0.000 OA
BRANCH  16  17
ATOM     17  C   UNL     1       8.220   8.161  18.332  0.00  0.00    +0.000 C 
BRANCH  17  18
ATOM     18  C   UNL     1       8.645   9.607  18.148  0.00  0.00    +0.000 C 
ATOM     19  F   UNL     1       7.631  10.325  17.542  0.00  0.00    +0.000 F 
ENDBRANCH  17  18
ENDBRANCH  16  17
ENDBRANCH  13  16
ENDBRANCH   9  10
ENDBRANCH   8   9
ENDBRANCH   3   8
BRANCH   7  20
ATOM     20  C   UNL     1       2.113   6.196  20.555  0.00  0.00    +0.000 C 
BRANCH  20  21
ATOM     21  C   UNL     1       2.332   6.936  19.225  0.00  0.00    +0.000 C 
BRANCH  21  22
ATOM     22  C   UNL     1       1.791   8.344  19.241  0.00  0.00    +0.000 A 
ATOM     23  C   UNL     1       1.118   8.806  20.381  0.00  0.00    +0.000 A 
ATOM     24  C   UNL     1       0.645  10.114  20.442  0.00  0.00    +0.000 A 
ATOM     25  C   UNL     1       0.838  10.995  19.360  0.00  0.00    +0.000 A 
ATOM     26  C   UNL     1       1.499  10.530  18.215  0.00  0.00    +0.000 A 
ATOM     27  C   UNL     1       1.974   9.214  18.153  0.00  0.00    +0.000 A 
BRANCH  25  28
ATOM     28  O   UNL     1       0.411  12.283  19.397  0.00  0.00    +0.000 OA
BRANCH  28  29
ATOM     29  C   UNL     1       1.145  13.341  19.900  0.00  0.00    +0.000 C 
BRANCH  29  30
ATOM     30  C   UNL     1       0.947  14.572  19.035  0.00  0.00    +0.000 C 
ATOM     31  F   UNL     1      -0.389  14.684  18.691  0.00  0.00    +0.000 F 
ENDBRANCH  29  30
ENDBRANCH  28  29
ENDBRANCH  25  28
ENDBRANCH  21  22
ENDBRANCH  20  21
ENDBRANCH   7  20
TORSDOF 12
ENDMDL
MODEL 7
REMARK VINA RESULT:      -6.7      4.410     10.159
REMARK  Name = 
REMARK  13 active torsions:
REMARK  status: ('A' for Active; 'I' for Inactive)
REMARK    1  A    between atoms: C_1  and  N_2
REMARK    2  A    between atoms: C_3  and  C_4
REMARK    3  A    between atoms: C_4  and  C_5
REMARK    4  A    between atoms: C_5  and  C_6
REMARK    5  A    between atoms: C_9  and  O_10
REMARK    6  A    between atoms: O_10  and  C_11
REMARK    7  A    between atoms: C_11  and  C_12
REMARK    8  A    between atoms: C_19  and  C_20
REMARK    9  A    between atoms: C_20  and  C_21
REMARK   10  A    between atoms: C_21  and  C_22
REMARK   11  A    between atoms: C_25  and  O_26
REMARK   12  A    between atoms: O_26  and  C_27
REMARK   13  A    between atoms: C_27  and  C_28
REMARK                            x       y       z     vdW  Elec       q    Type
REMARK                         _______ _______ _______ _____ _____    ______ ____
ROOT
ATOM      1  C   UNL     1       2.495   9.242  17.941  0.00  0.00    +0.000 C 
ATOM      2  N   UNL     1       1.521   8.727  18.946  0.00  0.00    +0.000 NA
ATOM      3  C   UNL     1       2.165   7.733  19.872  0.00  0.00    +0.000 C 
ATOM      4  C   UNL     1       1.245   7.392  21.072  0.00  0.00    +0.000 C 
ATOM      5  C   UNL     1       0.786   8.634  21.800  0.00  0.00    +0.000 C 
ATOM      6  C   UNL     1       0.012   9.495  20.827  0.00  0.00    +0.000 C 
ATOM      7  C   UNL     1       0.899   9.909  19.633  0.00  0.00    +0.000 C 
ENDROOT
BRANCH   3   8
ATOM      8  C   UNL     1       2.452   6.347  19.196  0.00  0.00    +0.000 C 
BRANCH   8   9
ATOM      9  C   UNL     1       3.756   5.618  19.568  0.00  0.00    +0.000 C 
BRANCH   9  10
ATOM     10  C   UNL     1       4.536   5.186  18.356  0.00  0.00    +0.000 A 
ATOM     11  C   UNL     1       5.926   5.356  18.333  0.00  0.00    +0.000 A 
ATOM     12  C   UNL     1       6.668   4.937  17.239  0.00  0.00    +0.000 A 
ATOM     13  C   UNL     1       6.038   4.323  16.138  0.00  0.00    +0.000 A 
ATOM     14  C   UNL     1       4.647   4.147  16.162  0.00  0.00    +0.000 A 
ATOM     15  C   UNL     1       3.897   4.577  17.263  0.00  0.00    +0.000 A 
BRANCH  13  16
ATOM     16  O   UNL     1       6.736   3.892  15.056  0.00  0.00    +0.000 OA
BRANCH  16  17
ATOM     17  C   UNL     1       6.636   4.448  13.795  0.00  0.00    +0.000 C 
BRANCH  17  18
ATOM     18  C   UNL     1       6.137   3.414  12.802  0.00  0.00    +0.000 C 
ATOM     19  F   UNL     1       4.881   3.766  12.342  0.00  0.00    +0.000 F 
ENDBRANCH  17  18
ENDBRANCH  16  17
ENDBRANCH  13  16
ENDBRANCH   9  10
ENDBRANCH   8   9
ENDBRANCH   3   8
BRANCH   7  20
ATOM     20  C   UNL     1       0.047  10.740  18.616  0.00  0.00    +0.000 C 
BRANCH  20  21
ATOM     21  C   UNL     1      -0.656  11.939  19.276  0.00  0.00    +0.000 C 
BRANCH  21  22
ATOM     22  C   UNL     1      -2.152  11.915  19.089  0.00  0.00    +0.000 A 
ATOM     23  C   UNL     1      -2.708  11.084  18.106  0.00  0.00    +0.000 A 
ATOM     24  C   UNL     1      -4.089  11.009  17.940  0.00  0.00    +0.000 A 
ATOM     25  C   UNL     1      -4.949  11.766  18.759  0.00  0.00    +0.000 A 
ATOM     26  C   UNL     1      -4.394  12.608  19.732  0.00  0.00    +0.000 A 
ATOM     27  C   UNL     1      -3.006  12.683  19.900  0.00  0.00    +0.000 A 
BRANCH  25  28
ATOM     28  O   UNL     1      -6.300  11.698  18.640  0.00  0.00    +0.000 OA
BRANCH  28  29
ATOM     29  C   UNL     1      -7.034  10.527  18.676  0.00  0.00    +0.000 C 
BRANCH  29  30
ATOM     30  C   UNL     1      -7.094   9.992  20.095  0.00  0.00    +0.000 C 
ATOM     31  F   UNL     1      -7.912  10.804  20.860  0.00  0.00    +0.000 F 
ENDBRANCH  29  30
ENDBRANCH  28  29
ENDBRANCH  25  28
ENDBRANCH  21  22
ENDBRANCH  20  21
ENDBRANCH   7  20
TORSDOF 12
ENDMDL
MODEL 8
REMARK VINA RESULT:      -6.7      1.541      2.007
REMARK  Name = 
REMARK  13 active torsions:
REMARK  status: ('A' for Active; 'I' for Inactive)
REMARK    1  A    between atoms: C_1  and  N_2
REMARK    2  A    between atoms: C_3  and  C_4
REMARK    3  A    between atoms: C_4  and  C_5
REMARK    4  A    between atoms: C_5  and  C_6
REMARK    5  A    between atoms: C_9  and  O_10
REMARK    6  A    between atoms: O_10  and  C_11
REMARK    7  A    between atoms: C_11  and  C_12
REMARK    8  A    between atoms: C_19  and  C_20
REMARK    9  A    between atoms: C_20  and  C_21
REMARK   10  A    between atoms: C_21  and  C_22
REMARK   11  A    between atoms: C_25  and  O_26
REMARK   12  A    between atoms: O_26  and  C_27
REMARK   13  A    between atoms: C_27  and  C_28
REMARK                            x       y       z     vdW  Elec       q    Type
REMARK                         _______ _______ _______ _____ _____    ______ ____
ROOT
ATOM      1  C   UNL     1       1.508   4.142  17.828  0.00  0.00    +0.000 C 
ATOM      2  N   UNL     1       2.399   4.012  19.016  0.00  0.00    +0.000 NA
ATOM      3  C   UNL     1       1.652   4.293  20.292  0.00  0.00    +0.000 C 
ATOM      4  C   UNL     1       2.489   3.908  21.538  0.00  0.00    +0.000 C 
ATOM      5  C   UNL     1       2.980   2.481  21.468  0.00  0.00    +0.000 C 
ATOM      6  C   UNL     1       3.850   2.338  20.239  0.00  0.00    +0.000 C 
ATOM      7  C   UNL     1       3.049   2.661  18.959  0.00  0.00    +0.000 C 
ENDROOT
BRANCH   3   8
ATOM      8  C   UNL     1       1.323   5.813  20.498  0.00  0.00    +0.000 C 
BRANCH   8   9
ATOM      9  C   UNL     1       2.270   6.849  19.868  0.00  0.00    +0.000 C 
BRANCH   9  10
ATOM     10  C   UNL     1       1.695   8.241  19.893  0.00  0.00    +0.000 A 
ATOM     11  C   UNL     1       1.174   8.750  21.089  0.00  0.00    +0.000 A 
ATOM     12  C   UNL     1       0.667  10.039  21.142  0.00  0.00    +0.000 A 
ATOM     13  C   UNL     1       0.678  10.862  19.999  0.00  0.00    +0.000 A 
ATOM     14  C   UNL     1       1.204  10.355  18.801  0.00  0.00    +0.000 A 
ATOM     15  C   UNL     1       1.708   9.050  18.746  0.00  0.00    +0.000 A 
BRANCH  13  16
ATOM     16  O   UNL     1       0.199  12.132  20.019  0.00  0.00    +0.000 OA
BRANCH  16  17
ATOM     17  C   UNL     1      -1.144  12.456  20.030  0.00  0.00    +0.000 C 
BRANCH  17  18
ATOM     18  C   UNL     1      -1.744  12.270  18.648  0.00  0.00    +0.000 C 
ATOM     19  F   UNL     1      -0.979  12.935  17.707  0.00  0.00    +0.000 F 
ENDBRANCH  17  18
ENDBRANCH  16  17
ENDBRANCH  13  16
ENDBRANCH   9  10
ENDBRANCH   8   9
ENDBRANCH   3   8
BRANCH   7  20
ATOM     20  C   UNL     1       3.998   2.569  17.716  0.00  0.00    +0.000 C 
BRANCH  20  21
ATOM     21  C   UNL     1       3.942   3.830  16.836  0.00  0.00    +0.000 C 
BRANCH  21  22
ATOM     22  C   UNL     1       5.037   4.816  17.156  0.00  0.00    +0.000 A 
ATOM     23  C   UNL     1       4.799   6.186  16.978  0.00  0.00    +0.000 A 
ATOM     24  C   UNL     1       5.776   7.123  17.306  0.00  0.00    +0.000 A 
ATOM     25  C   UNL     1       7.018   6.709  17.824  0.00  0.00    +0.000 A 
ATOM     26  C   UNL     1       7.262   5.338  17.989  0.00  0.00    +0.000 A 
ATOM     27  C   UNL     1       6.280   4.397  17.660  0.00  0.00    +0.000 A 
BRANCH  25  28
ATOM     28  O   UNL     1       7.982   7.597  18.176  0.00  0.00    +0.000 OA
BRANCH  28  29
ATOM     29  C   UNL     1       8.072   8.891  17.699  0.00  0.00    +0.000 C 
BRANCH  29  30
ATOM     30  C   UNL     1       8.893   9.742  18.650  0.00  0.00    +0.000 C 
ATOM     31  F   UNL     1       9.110  10.987  18.085  0.00  0.00    +0.000 F 
ENDBRANCH  29  30
ENDBRANCH  28  29
ENDBRANCH  25  28
ENDBRANCH  21  22
ENDBRANCH  20  21
ENDBRANCH   7  20
TORSDOF 12
ENDMDL
MODEL 9
REMARK VINA RESULT:      -6.6      4.373     10.334
REMARK  Name = 
REMARK  13 active torsions:
REMARK  status: ('A' for Active; 'I' for Inactive)
REMARK    1  A    between atoms: C_1  and  N_2
REMARK    2  A    between atoms: C_3  and  C_4
REMARK    3  A    between atoms: C_4  and  C_5
REMARK    4  A    between atoms: C_5  and  C_6
REMARK    5  A    between atoms: C_9  and  O_10
REMARK    6  A    between atoms: O_10  and  C_11
REMARK    7  A    between atoms: C_11  and  C_12
REMARK    8  A    between atoms: C_19  and  C_20
REMARK    9  A    between atoms: C_20  and  C_21
REMARK   10  A    between atoms: C_21  and  C_22
REMARK   11  A    between atoms: C_25  and  O_26
REMARK   12  A    between atoms: O_26  and  C_27
REMARK   13  A    between atoms: C_27  and  C_28
REMARK                            x       y       z     vdW  Elec       q    Type
REMARK                         _______ _______ _______ _____ _____    ______ ____
ROOT
ATOM      1  C   UNL     1       1.940  10.235  18.000  0.00  0.00    +0.000 C 
ATOM      2  N   UNL     1       1.146   9.557  19.063  0.00  0.00    +0.000 NA
ATOM      3  C   UNL     1       1.947   8.478  19.739  0.00  0.00    +0.000 C 
ATOM      4  C   UNL     1       1.233   7.949  21.009  0.00  0.00    +0.000 C 
ATOM      5  C   UNL     1       0.868   9.067  21.958  0.00  0.00    +0.000 C 
ATOM      6  C   UNL     1      -0.065  10.015  21.237  0.00  0.00    +0.000 C 
ATOM      7  C   UNL     1       0.616  10.614  19.988  0.00  0.00    +0.000 C 
ENDROOT
BRANCH   3   8
ATOM      8  C   UNL     1       2.152   7.204  18.848  0.00  0.00    +0.000 C 
BRANCH   8   9
ATOM      9  C   UNL     1       3.087   6.099  19.373  0.00  0.00    +0.000 C 
BRANCH   9  10
ATOM     10  C   UNL     1       4.157   5.736  18.377  0.00  0.00    +0.000 A 
ATOM     11  C   UNL     1       4.185   6.372  17.130  0.00  0.00    +0.000 A 
ATOM     12  C   UNL     1       5.178   6.074  16.211  0.00  0.00    +0.000 A 
ATOM     13  C   UNL     1       6.184   5.137  16.519  0.00  0.00    +0.000 A 
ATOM     14  C   UNL     1       6.161   4.503  17.770  0.00  0.00    +0.000 A 
ATOM     15  C   UNL     1       5.153   4.798  18.695  0.00  0.00    +0.000 A 
BRANCH  13  16
ATOM     16  O   UNL     1       7.176   4.830  15.646  0.00  0.00    +0.000 OA
BRANCH  16  17
ATOM     17  C   UNL     1       7.085   4.992  14.277  0.00  0.00    +0.000 C 
BRANCH  17  18
ATOM     18  C   UNL     1       6.330   3.830  13.658  0.00  0.00    +0.000 C 
ATOM     19  F   UNL     1       6.670   3.701  12.323  0.00  0.00    +0.000 F 
ENDBRANCH  17  18
ENDBRANCH  16  17
ENDBRANCH  13  16
ENDBRANCH   9  10
ENDBRANCH   8   9
ENDBRANCH   3   8
BRANCH   7  20
ATOM     20  C   UNL     1      -0.401  11.535  19.233  0.00  0.00    +0.000 C 
BRANCH  20  21
ATOM     21  C   UNL     1      -1.562  11.994  20.132  0.00  0.00    +0.000 C 
BRANCH  21  22
ATOM     22  C   UNL     1      -2.891  11.994  19.419  0.00  0.00    +0.000 A 
ATOM     23  C   UNL     1      -4.027  12.473  20.087  0.00  0.00    +0.000 A 
ATOM     24  C   UNL     1      -5.259  12.525  19.440  0.00  0.00    +0.000 A 
ATOM     25  C   UNL     1      -5.382  12.101  18.103  0.00  0.00    +0.000 A 
ATOM     26  C   UNL     1      -4.250  11.609  17.439  0.00  0.00    +0.000 A 
ATOM     27  C   UNL     1      -3.011  11.556  18.089  0.00  0.00    +0.000 A 
BRANCH  25  28
ATOM     28  O   UNL     1      -6.563  12.161  17.436  0.00  0.00    +0.000 OA
BRANCH  28  29
ATOM     29  C   UNL     1      -7.497  13.170  17.579  0.00  0.00    +0.000 C 
BRANCH  29  30
ATOM     30  C   UNL     1      -7.084  14.383  16.764  0.00  0.00    +0.000 C 
ATOM     31  F   UNL     1      -6.586  15.359  17.609  0.00  0.00    +0.000 F 
ENDBRANCH  29  30
ENDBRANCH  28  29
ENDBRANCH  25  28
ENDBRANCH  21  22
ENDBRANCH  20  21
ENDBRANCH   7  20
TORSDOF 12
ENDMDL
