MODEL 1
REMARK VINA RESULT:      -9.6      0.000      0.000
REMARK  Name = 
REMARK  8 active torsions:
REMARK  status: ('A' for Active; 'I' for Inactive)
REMARK    1  A    between atoms: C_1  and  C_2
REMARK    2  A    between atoms: C_5  and  C_6
REMARK    3  A    between atoms: C_9  and  N_10
REMARK    4  A    between atoms: N_10  and  C_11
REMARK    5  A    between atoms: C_15  and  O_16
REMARK    6  A    between atoms: C_25  and  S_26
REMARK    7  A    between atoms: S_26  and  N_29
REMARK    8  A    between atoms: N_32  and  C_33
REMARK                            x       y       z     vdW  Elec       q    Type
REMARK                         _______ _______ _______ _____ _____    ______ ____
ROOT
ATOM      1  C   UNL     1       1.546   8.131  19.697  0.00  0.00    +0.000 A 
ATOM      2  N   UNL     1       1.832   8.473  18.421  0.00  0.00    +0.000 NA
ATOM      3  N   UNL     1       1.584   9.725  17.970  0.00  0.00    +0.000 NA
ATOM      4  C   UNL     1       0.954  10.642  18.734  0.00  0.00    +0.000 A 
ATOM      5  C   UNL     1       0.545  10.319  20.042  0.00  0.00    +0.000 A 
ATOM      6  C   UNL     1      -0.224  11.196  20.851  0.00  0.00    +0.000 A 
ATOM      7  C   UNL     1      -0.555  10.879  22.167  0.00  0.00    +0.000 A 
ATOM      8  C   UNL     1      -0.063   9.717  22.734  0.00  0.00    +0.000 A 
ATOM      9  C   UNL     1       0.682   8.835  21.954  0.00  0.00    +0.000 A 
ATOM     10  C   UNL     1       0.925   9.061  20.571  0.00  0.00    +0.000 A 
ENDROOT
BRANCH   1  15
ATOM     11  C   UNL     1       1.834   2.682  19.717  0.00  0.00    +0.000 C 
ATOM     12  C   UNL     1       2.329   4.034  20.131  0.00  0.00    +0.000 A 
ATOM     13  C   UNL     1       1.559   4.693  21.099  0.00  0.00    +0.000 A 
ATOM     14  C   UNL     1       1.450   6.073  21.058  0.00  0.00    +0.000 A 
ATOM     15  C   UNL     1       2.110   6.808  20.070  0.00  0.00    +0.000 A 
ATOM     16  C   UNL     1       3.172   6.173  19.393  0.00  0.00    +0.000 A 
ATOM     17  C   UNL     1       3.281   4.764  19.410  0.00  0.00    +0.000 A 
BRANCH  17  18
ATOM     18  S   UNL     1       4.427   4.004  18.252  0.00  0.00    +0.000 S 
ATOM     19  O   UNL     1       5.286   3.132  19.032  0.00  0.00    +0.000 OA
ATOM     20  O   UNL     1       3.623   3.455  17.177  0.00  0.00    +0.000 OA
BRANCH  18  21
ATOM     21  N   UNL     1       5.369   5.217  17.581  0.00  0.00    +0.000 NA
ATOM     22  C   UNL     1       4.886   6.175  16.571  0.00  0.00    +0.000 C 
ATOM     23  C   UNL     1       5.592   6.010  15.199  0.00  0.00    +0.000 C 
ATOM     24  N   UNL     1       6.999   5.565  15.167  0.00  0.00    +0.000 NA
ATOM     25  C   UNL     1       7.266   4.810  13.935  0.00  0.00    +0.000 C 
ATOM     26  C   UNL     1       7.427   4.764  16.330  0.00  0.00    +0.000 C 
ATOM     27  C   UNL     1       6.836   5.208  17.670  0.00  0.00    +0.000 C 
ENDBRANCH  18  21
ENDBRANCH  17  18
ENDBRANCH   1  15
BRANCH   4  28
ATOM     28  N   UNL     1       0.744  11.941  18.183  0.00  0.00    +0.000 N 
ATOM     29  H   UNL     1      -0.236  12.192  18.290  0.00  0.00    +0.000 HD
BRANCH  28  30
ATOM     30  C   UNL     1       1.607  13.025  18.505  0.00  0.00    +0.000 A 
ATOM     31  C   UNL     1       1.122  14.097  19.275  0.00  0.00    +0.000 A 
ATOM     32  C   UNL     1       1.892  15.235  19.503  0.00  0.00    +0.000 A 
ATOM     33  C   UNL     1       3.183  15.306  18.992  0.00  0.00    +0.000 A 
ATOM     34  C   UNL     1       3.691  14.225  18.274  0.00  0.00    +0.000 A 
ATOM     35  C   UNL     1       2.926  13.079  18.044  0.00  0.00    +0.000 A 
BRANCH  34  36
ATOM     36  O   UNL     1       4.955  14.266  17.758  0.00  0.00    +0.000 OA
ATOM     37  H   UNL     1       5.587  14.208  18.494  0.00  0.00    +0.000 HD
ENDBRANCH  34  36
ENDBRANCH  28  30
ENDBRANCH   4  28
TORSDOF 6
ENDMDL
MODEL 2
REMARK VINA RESULT:      -9.5      4.935     10.333
REMARK  Name = 
REMARK  8 active torsions:
REMARK  status: ('A' for Active; 'I' for Inactive)
REMARK    1  A    between atoms: C_1  and  C_2
REMARK    2  A    between atoms: C_5  and  C_6
REMARK    3  A    between atoms: C_9  and  N_10
REMARK    4  A    between atoms: N_10  and  C_11
REMARK    5  A    between atoms: C_15  and  O_16
REMARK    6  A    between atoms: C_25  and  S_26
REMARK    7  A    between atoms: S_26  and  N_29
REMARK    8  A    between atoms: N_32  and  C_33
REMARK                            x       y       z     vdW  Elec       q    Type
REMARK                         _______ _______ _______ _____ _____    ______ ____
ROOT
ATOM      1  C   UNL     1      -0.520  10.350  19.200  0.00  0.00    +0.000 A 
ATOM      2  N   UNL     1       0.181   9.822  18.172  0.00  0.00    +0.000 NA
ATOM      3  N   UNL     1       1.137   8.890  18.397  0.00  0.00    +0.000 NA
ATOM      4  C   UNL     1       1.496   8.529  19.646  0.00  0.00    +0.000 A 
ATOM      5  C   UNL     1       0.869   9.111  20.764  0.00  0.00    +0.000 A 
ATOM      6  C   UNL     1       1.281   8.864  22.099  0.00  0.00    +0.000 A 
ATOM      7  C   UNL     1       0.597   9.398  23.189  0.00  0.00    +0.000 A 
ATOM      8  C   UNL     1      -0.559  10.128  22.979  0.00  0.00    +0.000 A 
ATOM      9  C   UNL     1      -0.974  10.396  21.675  0.00  0.00    +0.000 A 
ATOM     10  C   UNL     1      -0.228   9.981  20.539  0.00  0.00    +0.000 A 
ENDROOT
BRANCH   1  15
ATOM     11  C   UNL     1      -5.756  11.289  17.984  0.00  0.00    +0.000 C 
ATOM     12  C   UNL     1      -4.327  11.723  18.100  0.00  0.00    +0.000 A 
ATOM     13  C   UNL     1      -3.462  11.234  17.113  0.00  0.00    +0.000 A 
ATOM     14  C   UNL     1      -2.146  10.950  17.441  0.00  0.00    +0.000 A 
ATOM     15  C   UNL     1      -1.678  11.161  18.740  0.00  0.00    +0.000 A 
ATOM     16  C   UNL     1      -2.434  12.016  19.570  0.00  0.00    +0.000 A 
ATOM     17  C   UNL     1      -3.783  12.295  19.256  0.00  0.00    +0.000 A 
BRANCH  17  18
ATOM     18  S   UNL     1      -4.785  13.088  20.521  0.00  0.00    +0.000 S 
ATOM     19  O   UNL     1      -5.521  14.150  19.860  0.00  0.00    +0.000 OA
ATOM     20  O   UNL     1      -5.500  12.028  21.206  0.00  0.00    +0.000 OA
BRANCH  18  21
ATOM     21  N   UNL     1      -3.751  13.779  21.645  0.00  0.00    +0.000 NA
ATOM     22  C   UNL     1      -3.574  13.280  23.021  0.00  0.00    +0.000 C 
ATOM     23  C   UNL     1      -4.072  14.285  24.093  0.00  0.00    +0.000 C 
ATOM     24  N   UNL     1      -3.963  15.732  23.822  0.00  0.00    +0.000 NA
ATOM     25  C   UNL     1      -5.039  16.460  24.509  0.00  0.00    +0.000 C 
ATOM     26  C   UNL     1      -3.961  16.102  22.395  0.00  0.00    +0.000 C 
ATOM     27  C   UNL     1      -3.207  15.134  21.480  0.00  0.00    +0.000 C 
ENDBRANCH  18  21
ENDBRANCH  17  18
ENDBRANCH   1  15
BRANCH   4  28
ATOM     28  N   UNL     1       2.504   7.529  19.790  0.00  0.00    +0.000 N 
ATOM     29  H   UNL     1       2.951   7.637  20.698  0.00  0.00    +0.000 HD
BRANCH  28  30
ATOM     30  C   UNL     1       2.237   6.165  19.489  0.00  0.00    +0.000 A 
ATOM     31  C   UNL     1       2.444   5.687  18.183  0.00  0.00    +0.000 A 
ATOM     32  C   UNL     1       2.073   4.395  17.816  0.00  0.00    +0.000 A 
ATOM     33  C   UNL     1       1.520   3.542  18.763  0.00  0.00    +0.000 A 
ATOM     34  C   UNL     1       1.362   3.991  20.074  0.00  0.00    +0.000 A 
ATOM     35  C   UNL     1       1.734   5.283  20.451  0.00  0.00    +0.000 A 
BRANCH  34  36
ATOM     36  O   UNL     1       0.820   3.177  21.027  0.00  0.00    +0.000 OA
ATOM     37  H   UNL     1       1.486   2.516  21.278  0.00  0.00    +0.000 HD
ENDBRANCH  34  36
ENDBRANCH  28  30
ENDBRANCH   4  28
TORSDOF 6
ENDMDL
MODEL 3
REMARK VINA RESULT:      -9.4      3.453      8.936
REMARK  Name = 
REMARK  8 active torsions:
REMARK  status: ('A' for Active; 'I' for Inactive)
REMARK    1  A    between atoms: C_1  and  C_2
REMARK    2  A    between atoms: C_5  and  C_6
REMARK    3  A    between atoms: C_9  and  N_10
REMARK    4  A    between atoms: N_10  and  C_11
REMARK    5  A    between atoms: C_15  and  O_16
REMARK    6  A    between atoms: C_25  and  S_26
REMARK    7  A    between atoms: S_26  and  N_29
REMARK    8  A    between atoms: N_32  and  C_33
REMARK                            x       y       z     vdW  Elec       q    Type
REMARK                         _______ _______ _______ _____ _____    ______ ____
ROOT
ATOM      1  C   UNL     1       3.301   6.704  18.009  0.00  0.00    +0.000 A 
ATOM      2  N   UNL     1       4.494   7.003  17.450  0.00  0.00    +0.000 NA
ATOM      3  N   UNL     1       5.218   6.051  16.817  0.00  0.00    +0.000 NA
ATOM      4  C   UNL     1       4.832   4.757  16.805  0.00  0.00    +0.000 A 
ATOM      5  C   UNL     1       3.644   4.363  17.451  0.00  0.00    +0.000 A 
ATOM      6  C   UNL     1       3.246   3.007  17.577  0.00  0.00    +0.000 A 
ATOM      7  C   UNL     1       2.031   2.650  18.159  0.00  0.00    +0.000 A 
ATOM      8  C   UNL     1       1.149   3.639  18.559  0.00  0.00    +0.000 A 
ATOM      9  C   UNL     1       1.527   4.976  18.458  0.00  0.00    +0.000 A 
ATOM     10  C   UNL     1       2.811   5.372  17.994  0.00  0.00    +0.000 A 
ENDROOT
BRANCH   1  15
ATOM     11  C   UNL     1      -1.148   9.714  18.966  0.00  0.00    +0.000 C 
ATOM     12  C   UNL     1       0.336   9.516  18.952  0.00  0.00    +0.000 A 
ATOM     13  C   UNL     1       0.942   9.554  17.690  0.00  0.00    +0.000 A 
ATOM     14  C   UNL     1       2.042   8.750  17.438  0.00  0.00    +0.000 A 
ATOM     15  C   UNL     1       2.554   7.916  18.435  0.00  0.00    +0.000 A 
ATOM     16  C   UNL     1       2.191   8.204  19.768  0.00  0.00    +0.000 A 
ATOM     17  C   UNL     1       1.059   9.005  20.036  0.00  0.00    +0.000 A 
BRANCH  17  18
ATOM     18  S   UNL     1       0.447   9.041  21.726  0.00  0.00    +0.000 S 
ATOM     19  O   UNL     1      -0.821   8.334  21.722  0.00  0.00    +0.000 OA
ATOM     20  O   UNL     1       1.532   8.576  22.568  0.00  0.00    +0.000 OA
BRANCH  18  21
ATOM     21  N   UNL     1       0.162  10.639  22.143  0.00  0.00    +0.000 NA
ATOM     22  C   UNL     1      -0.965  11.087  22.980  0.00  0.00    +0.000 C 
ATOM     23  C   UNL     1      -1.973  11.977  22.205  0.00  0.00    +0.000 C 
ATOM     24  N   UNL     1      -1.472  12.852  21.127  0.00  0.00    +0.000 NA
ATOM     25  C   UNL     1      -2.507  13.038  20.100  0.00  0.00    +0.000 C 
ATOM     26  C   UNL     1      -0.225  12.399  20.483  0.00  0.00    +0.000 C 
ATOM     27  C   UNL     1       0.792  11.759  21.430  0.00  0.00    +0.000 C 
ENDBRANCH  18  21
ENDBRANCH  17  18
ENDBRANCH   1  15
BRANCH   4  28
ATOM     28  N   UNL     1       5.648   3.821  16.103  0.00  0.00    +0.000 N 
ATOM     29  H   UNL     1       5.214   2.902  16.150  0.00  0.00    +0.000 HD
BRANCH  28  30
ATOM     30  C   UNL     1       6.143   4.108  14.800  0.00  0.00    +0.000 A 
ATOM     31  C   UNL     1       5.575   3.471  13.684  0.00  0.00    +0.000 A 
ATOM     32  C   UNL     1       6.113   3.624  12.408  0.00  0.00    +0.000 A 
ATOM     33  C   UNL     1       7.213   4.452  12.221  0.00  0.00    +0.000 A 
ATOM     34  C   UNL     1       7.749   5.131  13.314  0.00  0.00    +0.000 A 
ATOM     35  C   UNL     1       7.213   4.985  14.595  0.00  0.00    +0.000 A 
BRANCH  34  36
ATOM     36  O   UNL     1       8.831   5.950  13.162  0.00  0.00    +0.000 OA
ATOM     37  H   UNL     1       8.730   6.704  13.767  0.00  0.00    +0.000 HD
ENDBRANCH  34  36
ENDBRANCH  28  30
ENDBRANCH   4  28
TORSDOF 6
ENDMDL
MODEL 4
REMARK VINA RESULT:      -9.3      1.038      1.231
REMARK  Name = 
REMARK  8 active torsions:
REMARK  status: ('A' for Active; 'I' for Inactive)
REMARK    1  A    between atoms: C_1  and  C_2
REMARK    2  A    between atoms: C_5  and  C_6
REMARK    3  A    between atoms: C_9  and  N_10
REMARK    4  A    between atoms: N_10  and  C_11
REMARK    5  A    between atoms: C_15  and  O_16
REMARK    6  A    between atoms: C_25  and  S_26
REMARK    7  A    between atoms: S_26  and  N_29
REMARK    8  A    between atoms: N_32  and  C_33
REMARK                            x       y       z     vdW  Elec       q    Type
REMARK                         _______ _______ _______ _____ _____    ______ ____
ROOT
ATOM      1  C   UNL     1       1.571   8.140  19.735  0.00  0.00    +0.000 A 
ATOM      2  N   UNL     1       2.037   8.610  18.557  0.00  0.00    +0.000 NA
ATOM      3  N   UNL     1       1.913   9.920  18.239  0.00  0.00    +0.000 NA
ATOM      4  C   UNL     1       1.238  10.781  19.029  0.00  0.00    +0.000 A 
ATOM      5  C   UNL     1       0.647  10.334  20.227  0.00  0.00    +0.000 A 
ATOM      6  C   UNL     1      -0.174  11.158  21.039  0.00  0.00    +0.000 A 
ATOM      7  C   UNL     1      -0.688  10.712  22.256  0.00  0.00    +0.000 A 
ATOM      8  C   UNL     1      -0.333   9.461  22.728  0.00  0.00    +0.000 A 
ATOM      9  C   UNL     1       0.460   8.629  21.940  0.00  0.00    +0.000 A 
ATOM     10  C   UNL     1       0.891   8.999  20.637  0.00  0.00    +0.000 A 
ENDROOT
BRANCH   1  15
ATOM     11  C   UNL     1       1.388   2.702  19.323  0.00  0.00    +0.000 C 
ATOM     12  C   UNL     1       1.992   3.969  19.847  0.00  0.00    +0.000 A 
ATOM     13  C   UNL     1       1.268   4.614  20.859  0.00  0.00    +0.000 A 
ATOM     14  C   UNL     1       1.279   5.997  20.927  0.00  0.00    +0.000 A 
ATOM     15  C   UNL     1       2.014   6.747  20.006  0.00  0.00    +0.000 A 
ATOM     16  C   UNL     1       3.026   6.077  19.287  0.00  0.00    +0.000 A 
ATOM     17  C   UNL     1       3.013   4.667  19.193  0.00  0.00    +0.000 A 
BRANCH  17  18
ATOM     18  S   UNL     1       4.105   3.904  17.986  0.00  0.00    +0.000 S 
ATOM     19  O   UNL     1       4.805   2.837  18.678  0.00  0.00    +0.000 OA
ATOM     20  O   UNL     1       3.289   3.602  16.825  0.00  0.00    +0.000 OA
BRANCH  18  21
ATOM     21  N   UNL     1       5.228   5.050  17.502  0.00  0.00    +0.000 NA
ATOM     22  C   UNL     1       4.928   6.167  16.589  0.00  0.00    +0.000 C 
ATOM     23  C   UNL     1       5.689   6.062  15.240  0.00  0.00    +0.000 C 
ATOM     24  N   UNL     1       7.029   5.444  15.221  0.00  0.00    +0.000 NA
ATOM     25  C   UNL     1       7.274   4.799  13.924  0.00  0.00    +0.000 C 
ATOM     26  C   UNL     1       7.285   4.474  16.302  0.00  0.00    +0.000 C 
ATOM     27  C   UNL     1       6.674   4.843  17.656  0.00  0.00    +0.000 C 
ENDBRANCH  18  21
ENDBRANCH  17  18
ENDBRANCH   1  15
BRANCH   4  28
ATOM     28  N   UNL     1       1.168  12.147  18.625  0.00  0.00    +0.000 N 
ATOM     29  H   UNL     1       0.207  12.471  18.715  0.00  0.00    +0.000 HD
BRANCH  28  30
ATOM     30  C   UNL     1       2.099  13.107  19.108  0.00  0.00    +0.000 A 
ATOM     31  C   UNL     1       2.975  13.741  18.210  0.00  0.00    +0.000 A 
ATOM     32  C   UNL     1       3.986  14.589  18.658  0.00  0.00    +0.000 A 
ATOM     33  C   UNL     1       4.116  14.846  20.017  0.00  0.00    +0.000 A 
ATOM     34  C   UNL     1       3.217  14.265  20.909  0.00  0.00    +0.000 A 
ATOM     35  C   UNL     1       2.199  13.416  20.468  0.00  0.00    +0.000 A 
BRANCH  34  36
ATOM     36  O   UNL     1       3.321  14.497  22.251  0.00  0.00    +0.000 OA
ATOM     37  H   UNL     1       2.496  14.914  22.552  0.00  0.00    +0.000 HD
ENDBRANCH  34  36
ENDBRANCH  28  30
ENDBRANCH   4  28
TORSDOF 6
ENDMDL
MODEL 5
REMARK VINA RESULT:      -9.3      4.853     10.289
REMARK  Name = 
REMARK  8 active torsions:
REMARK  status: ('A' for Active; 'I' for Inactive)
REMARK    1  A    between atoms: C_1  and  C_2
REMARK    2  A    between atoms: C_5  and  C_6
REMARK    3  A    between atoms: C_9  and  N_10
REMARK    4  A    between atoms: N_10  and  C_11
REMARK    5  A    between atoms: C_15  and  O_16
REMARK    6  A    between atoms: C_25  and  S_26
REMARK    7  A    between atoms: S_26  and  N_29
REMARK    8  A    between atoms: N_32  and  C_33
REMARK                            x       y       z     vdW  Elec       q    Type
REMARK                         _______ _______ _______ _____ _____    ______ ____
ROOT
ATOM      1  C   UNL     1      -0.517  10.336  19.155  0.00  0.00    +0.000 A 
ATOM      2  N   UNL     1       0.164   9.803  18.116  0.00  0.00    +0.000 NA
ATOM      3  N   UNL     1       1.113   8.861  18.323  0.00  0.00    +0.000 NA
ATOM      4  C   UNL     1       1.488   8.493  19.566  0.00  0.00    +0.000 A 
ATOM      5  C   UNL     1       0.883   9.080  20.695  0.00  0.00    +0.000 A 
ATOM      6  C   UNL     1       1.312   8.825  22.023  0.00  0.00    +0.000 A 
ATOM      7  C   UNL     1       0.650   9.364  23.125  0.00  0.00    +0.000 A 
ATOM      8  C   UNL     1      -0.501  10.106  22.933  0.00  0.00    +0.000 A 
ATOM      9  C   UNL     1      -0.933  10.381  21.636  0.00  0.00    +0.000 A 
ATOM     10  C   UNL     1      -0.208   9.961  20.488  0.00  0.00    +0.000 A 
ENDROOT
BRANCH   1  15
ATOM     11  C   UNL     1      -5.758  11.327  18.006  0.00  0.00    +0.000 C 
ATOM     12  C   UNL     1      -4.324  11.748  18.108  0.00  0.00    +0.000 A 
ATOM     13  C   UNL     1      -3.474  11.259  17.108  0.00  0.00    +0.000 A 
ATOM     14  C   UNL     1      -2.157  10.962  17.419  0.00  0.00    +0.000 A 
ATOM     15  C   UNL     1      -1.672  11.160  18.714  0.00  0.00    +0.000 A 
ATOM     16  C   UNL     1      -2.412  12.015  19.558  0.00  0.00    +0.000 A 
ATOM     17  C   UNL     1      -3.763  12.307  19.261  0.00  0.00    +0.000 A 
BRANCH  17  18
ATOM     18  S   UNL     1      -4.743  13.099  20.543  0.00  0.00    +0.000 S 
ATOM     19  O   UNL     1      -5.501  14.153  19.893  0.00  0.00    +0.000 OA
ATOM     20  O   UNL     1      -5.436  12.037  21.248  0.00  0.00    +0.000 OA
BRANCH  18  21
ATOM     21  N   UNL     1      -3.691  13.802  21.643  0.00  0.00    +0.000 NA
ATOM     22  C   UNL     1      -3.471  13.303  23.012  0.00  0.00    +0.000 C 
ATOM     23  C   UNL     1      -3.955  14.298  24.100  0.00  0.00    +0.000 C 
ATOM     24  N   UNL     1      -3.876  15.747  23.830  0.00  0.00    +0.000 NA
ATOM     25  C   UNL     1      -4.944  16.457  24.547  0.00  0.00    +0.000 C 
ATOM     26  C   UNL     1      -3.916  16.120  22.404  0.00  0.00    +0.000 C 
ATOM     27  C   UNL     1      -3.172  15.166  21.467  0.00  0.00    +0.000 C 
ENDBRANCH  18  21
ENDBRANCH  17  18
ENDBRANCH   1  15
BRANCH   4  28
ATOM     28  N   UNL     1       2.488   7.484  19.693  0.00  0.00    +0.000 N 
ATOM     29  H   UNL     1       3.042   7.668  20.527  0.00  0.00    +0.000 HD
BRANCH  28  30
ATOM     30  C   UNL     1       2.162   6.105  19.568  0.00  0.00    +0.000 A 
ATOM     31  C   UNL     1       1.789   5.371  20.708  0.00  0.00    +0.000 A 
ATOM     32  C   UNL     1       1.588   3.994  20.651  0.00  0.00    +0.000 A 
ATOM     33  C   UNL     1       1.721   3.328  19.439  0.00  0.00    +0.000 A 
ATOM     34  C   UNL     1       2.036   4.057  18.293  0.00  0.00    +0.000 A 
ATOM     35  C   UNL     1       2.237   5.438  18.341  0.00  0.00    +0.000 A 
BRANCH  34  36
ATOM     36  O   UNL     1       2.176   3.431  17.088  0.00  0.00    +0.000 OA
ATOM     37  H   UNL     1       1.293   3.321  16.697  0.00  0.00    +0.000 HD
ENDBRANCH  34  36
ENDBRANCH  28  30
ENDBRANCH   4  28
TORSDOF 6
ENDMDL
MODEL 6
REMARK VINA RESULT:      -9.2      1.036      1.443
REMARK  Name = 
REMARK  8 active torsions:
REMARK  status: ('A' for Active; 'I' for Inactive)
REMARK    1  A    between atoms: C_1  and  C_2
REMARK    2  A    between atoms: C_5  and  C_6
REMARK    3  A    between atoms: C_9  and  N_10
REMARK    4  A    between atoms: N_10  and  C_11
REMARK    5  A    between atoms: C_15  and  O_16
REMARK    6  A    between atoms: C_25  and  S_26
REMARK    7  A    between atoms: S_26  and  N_29
REMARK    8  A    between atoms: N_32  and  C_33
REMARK                            x       y       z     vdW  Elec       q    Type
REMARK                         _______ _______ _______ _____ _____    ______ ____
ROOT
ATOM      1  C   UNL     1       1.701   8.041  19.491  0.00  0.00    +0.000 A 
ATOM      2  N   UNL     1       1.860   8.454  18.214  0.00  0.00    +0.000 NA
ATOM      3  N   UNL     1       1.521   9.713  17.849  0.00  0.00    +0.000 NA
ATOM      4  C   UNL     1       0.923  10.564  18.709  0.00  0.00    +0.000 A 
ATOM      5  C   UNL     1       0.644  10.163  20.030  0.00  0.00    +0.000 A 
ATOM      6  C   UNL     1      -0.087  10.965  20.943  0.00  0.00    +0.000 A 
ATOM      7  C   UNL     1      -0.288  10.573  22.266  0.00  0.00    +0.000 A 
ATOM      8  C   UNL     1       0.299   9.410  22.730  0.00  0.00    +0.000 A 
ATOM      9  C   UNL     1       1.009   8.599  21.845  0.00  0.00    +0.000 A 
ATOM     10  C   UNL     1       1.121   8.900  20.460  0.00  0.00    +0.000 A 
ENDROOT
BRANCH   1  15
ATOM     11  C   UNL     1       2.076   2.597  19.472  0.00  0.00    +0.000 C 
ATOM     12  C   UNL     1       2.622   3.960  19.774  0.00  0.00    +0.000 A 
ATOM     13  C   UNL     1       2.052   4.613  20.874  0.00  0.00    +0.000 A 
ATOM     14  C   UNL     1       1.914   5.991  20.851  0.00  0.00    +0.000 A 
ATOM     15  C   UNL     1       2.350   6.729  19.748  0.00  0.00    +0.000 A 
ATOM     16  C   UNL     1       3.265   6.105  18.873  0.00  0.00    +0.000 A 
ATOM     17  C   UNL     1       3.398   4.699  18.874  0.00  0.00    +0.000 A 
BRANCH  17  18
ATOM     18  S   UNL     1       4.299   3.948  17.512  0.00  0.00    +0.000 S 
ATOM     19  O   UNL     1       4.052   2.520  17.588  0.00  0.00    +0.000 OA
ATOM     20  O   UNL     1       3.931   4.685  16.317  0.00  0.00    +0.000 OA
BRANCH  18  21
ATOM     21  N   UNL     1       5.935   4.217  17.759  0.00  0.00    +0.000 NA
ATOM     22  C   UNL     1       6.516   4.655  19.041  0.00  0.00    +0.000 C 
ATOM     23  C   UNL     1       7.142   6.073  18.964  0.00  0.00    +0.000 C 
ATOM     24  N   UNL     1       7.754   6.517  17.696  0.00  0.00    +0.000 NA
ATOM     25  C   UNL     1       7.636   7.974  17.556  0.00  0.00    +0.000 C 
ATOM     26  C   UNL     1       7.221   5.867  16.484  0.00  0.00    +0.000 C 
ATOM     27  C   UNL     1       6.879   4.384  16.645  0.00  0.00    +0.000 C 
ENDBRANCH  18  21
ENDBRANCH  17  18
ENDBRANCH   1  15
BRANCH   4  28
ATOM     28  N   UNL     1       0.613  11.877  18.244  0.00  0.00    +0.000 N 
ATOM     29  H   UNL     1      -0.363  12.080  18.452  0.00  0.00    +0.000 HD
BRANCH  28  30
ATOM     30  C   UNL     1       1.459  12.982  18.538  0.00  0.00    +0.000 A 
ATOM     31  C   UNL     1       0.957  14.063  19.284  0.00  0.00    +0.000 A 
ATOM     32  C   UNL     1       1.710  15.218  19.483  0.00  0.00    +0.000 A 
ATOM     33  C   UNL     1       2.998  15.298  18.968  0.00  0.00    +0.000 A 
ATOM     34  C   UNL     1       3.522  14.208  18.275  0.00  0.00    +0.000 A 
ATOM     35  C   UNL     1       2.776  13.046  18.073  0.00  0.00    +0.000 A 
BRANCH  34  36
ATOM     36  O   UNL     1       4.784  14.257  17.755  0.00  0.00    +0.000 OA
ATOM     37  H   UNL     1       4.894  15.111  17.302  0.00  0.00    +0.000 HD
ENDBRANCH  34  36
ENDBRANCH  28  30
ENDBRANCH   4  28
TORSDOF 6
ENDMDL
MODEL 7
REMARK VINA RESULT:      -9.2      4.448      9.612
REMARK  Name = 
REMARK  8 active torsions:
REMARK  status: ('A' for Active; 'I' for Inactive)
REMARK    1  A    between atoms: C_1  and  C_2
REMARK    2  A    between atoms: C_5  and  C_6
REMARK    3  A    between atoms: C_9  and  N_10
REMARK    4  A    between atoms: N_10  and  C_11
REMARK    5  A    between atoms: C_15  and  O_16
REMARK    6  A    between atoms: C_25  and  S_26
REMARK    7  A    between atoms: S_26  and  N_29
REMARK    8  A    between atoms: N_32  and  C_33
REMARK                            x       y       z     vdW  Elec       q    Type
REMARK                         _______ _______ _______ _____ _____    ______ ____
ROOT
ATOM      1  C   UNL     1      -0.468  10.375  19.298  0.00  0.00    +0.000 A 
ATOM      2  N   UNL     1       0.223   9.880  18.248  0.00  0.00    +0.000 NA
ATOM      3  N   UNL     1       1.172   8.932  18.432  0.00  0.00    +0.000 NA
ATOM      4  C   UNL     1       1.535   8.521  19.666  0.00  0.00    +0.000 A 
ATOM      5  C   UNL     1       0.917   9.067  20.808  0.00  0.00    +0.000 A 
ATOM      6  C   UNL     1       1.333   8.766  22.130  0.00  0.00    +0.000 A 
ATOM      7  C   UNL     1       0.659   9.265  23.244  0.00  0.00    +0.000 A 
ATOM      8  C   UNL     1      -0.492  10.012  23.066  0.00  0.00    +0.000 A 
ATOM      9  C   UNL     1      -0.910  10.332  21.776  0.00  0.00    +0.000 A 
ATOM     10  C   UNL     1      -0.173   9.953  20.621  0.00  0.00    +0.000 A 
ENDROOT
BRANCH   1  15
ATOM     11  C   UNL     1      -5.726  11.458  18.317  0.00  0.00    +0.000 C 
ATOM     12  C   UNL     1      -4.279  11.846  18.351  0.00  0.00    +0.000 A 
ATOM     13  C   UNL     1      -3.480  11.304  17.336  0.00  0.00    +0.000 A 
ATOM     14  C   UNL     1      -2.160  10.986  17.606  0.00  0.00    +0.000 A 
ATOM     15  C   UNL     1      -1.621  11.212  18.875  0.00  0.00    +0.000 A 
ATOM     16  C   UNL     1      -2.307  12.112  19.718  0.00  0.00    +0.000 A 
ATOM     17  C   UNL     1      -3.660  12.428  19.463  0.00  0.00    +0.000 A 
BRANCH  17  18
ATOM     18  S   UNL     1      -4.572  13.285  20.755  0.00  0.00    +0.000 S 
ATOM     19  O   UNL     1      -5.626  14.030  20.092  0.00  0.00    +0.000 OA
ATOM     20  O   UNL     1      -4.906  12.288  21.754  0.00  0.00    +0.000 OA
BRANCH  18  21
ATOM     21  N   UNL     1      -3.532  14.375  21.490  0.00  0.00    +0.000 NA
ATOM     22  C   UNL     1      -2.802  15.434  20.771  0.00  0.00    +0.000 C 
ATOM     23  C   UNL     1      -1.264  15.225  20.792  0.00  0.00    +0.000 C 
ATOM     24  N   UNL     1      -0.646  14.582  21.968  0.00  0.00    +0.000 NA
ATOM     25  C   UNL     1       0.563  13.847  21.570  0.00  0.00    +0.000 C 
ATOM     26  C   UNL     1      -1.534  13.681  22.726  0.00  0.00    +0.000 C 
ATOM     27  C   UNL     1      -2.986  14.151  22.836  0.00  0.00    +0.000 C 
ENDBRANCH  18  21
ENDBRANCH  17  18
ENDBRANCH   1  15
BRANCH   4  28
ATOM     28  N   UNL     1       2.534   7.508  19.767  0.00  0.00    +0.000 N 
ATOM     29  H   UNL     1       3.015   7.605  20.659  0.00  0.00    +0.000 HD
BRANCH  28  30
ATOM     30  C   UNL     1       2.239   6.149  19.469  0.00  0.00    +0.000 A 
ATOM     31  C   UNL     1       2.413   5.671  18.159  0.00  0.00    +0.000 A 
ATOM     32  C   UNL     1       2.014   4.386  17.796  0.00  0.00    +0.000 A 
ATOM     33  C   UNL     1       1.465   3.540  18.752  0.00  0.00    +0.000 A 
ATOM     34  C   UNL     1       1.340   3.988  20.066  0.00  0.00    +0.000 A 
ATOM     35  C   UNL     1       1.739   5.274  20.438  0.00  0.00    +0.000 A 
BRANCH  34  36
ATOM     36  O   UNL     1       0.801   3.181  21.027  0.00  0.00    +0.000 OA
ATOM     37  H   UNL     1      -0.087   2.914  20.738  0.00  0.00    +0.000 HD
ENDBRANCH  34  36
ENDBRANCH  28  30
ENDBRANCH   4  28
TORSDOF 6
ENDMDL
MODEL 8
REMARK VINA RESULT:      -9.0      1.166      1.489
REMARK  Name = 
REMARK  8 active torsions:
REMARK  status: ('A' for Active; 'I' for Inactive)
REMARK    1  A    between atoms: C_1  and  C_2
REMARK    2  A    between atoms: C_5  and  C_6
REMARK    3  A    between atoms: C_9  and  N_10
REMARK    4  A    between atoms: N_10  and  C_11
REMARK    5  A    between atoms: C_15  and  O_16
REMARK    6  A    between atoms: C_25  and  S_26
REMARK    7  A    between atoms: S_26  and  N_29
REMARK    8  A    between atoms: N_32  and  C_33
REMARK                            x       y       z     vdW  Elec       q    Type
REMARK                         _______ _______ _______ _____ _____    ______ ____
ROOT
ATOM      1  C   UNL     1       1.621   8.048  19.673  0.00  0.00    +0.000 A 
ATOM      2  N   UNL     1       1.788   8.406  18.380  0.00  0.00    +0.000 NA
ATOM      3  N   UNL     1       1.437   9.642  17.956  0.00  0.00    +0.000 NA
ATOM      4  C   UNL     1       0.820  10.524  18.771  0.00  0.00    +0.000 A 
ATOM      5  C   UNL     1       0.532  10.178  20.106  0.00  0.00    +0.000 A 
ATOM      6  C   UNL     1      -0.218  11.011  20.976  0.00  0.00    +0.000 A 
ATOM      7  C   UNL     1      -0.427  10.676  22.313  0.00  0.00    +0.000 A 
ATOM      8  C   UNL     1       0.170   9.542  22.834  0.00  0.00    +0.000 A 
ATOM      9  C   UNL     1       0.899   8.702  21.993  0.00  0.00    +0.000 A 
ATOM     10  C   UNL     1       1.021   8.942  20.597  0.00  0.00    +0.000 A 
ENDROOT
BRANCH   1  15
ATOM     11  C   UNL     1       3.167   2.896  18.758  0.00  0.00    +0.000 C 
ATOM     12  C   UNL     1       3.113   4.130  19.605  0.00  0.00    +0.000 A 
ATOM     13  C   UNL     1       1.886   4.386  20.229  0.00  0.00    +0.000 A 
ATOM     14  C   UNL     1       1.477   5.696  20.414  0.00  0.00    +0.000 A 
ATOM     15  C   UNL     1       2.284   6.757  19.994  0.00  0.00    +0.000 A 
ATOM     16  C   UNL     1       3.647   6.479  19.760  0.00  0.00    +0.000 A 
ATOM     17  C   UNL     1       4.072   5.148  19.550  0.00  0.00    +0.000 A 
BRANCH  17  18
ATOM     18  S   UNL     1       5.733   4.896  18.910  0.00  0.00    +0.000 S 
ATOM     19  O   UNL     1       6.644   5.440  19.900  0.00  0.00    +0.000 OA
ATOM     20  O   UNL     1       5.822   3.499  18.533  0.00  0.00    +0.000 OA
BRANCH  18  21
ATOM     21  N   UNL     1       5.888   5.788  17.499  0.00  0.00    +0.000 NA
ATOM     22  C   UNL     1       4.787   6.033  16.551  0.00  0.00    +0.000 C 
ATOM     23  C   UNL     1       5.020   5.363  15.171  0.00  0.00    +0.000 C 
ATOM     24  N   UNL     1       6.401   5.229  14.666  0.00  0.00    +0.000 NA
ATOM     25  C   UNL     1       6.517   4.040  13.811  0.00  0.00    +0.000 C 
ATOM     26  C   UNL     1       7.445   5.183  15.707  0.00  0.00    +0.000 C 
ATOM     27  C   UNL     1       7.197   6.098  16.908  0.00  0.00    +0.000 C 
ENDBRANCH  18  21
ENDBRANCH  17  18
ENDBRANCH   1  15
BRANCH   4  28
ATOM     28  N   UNL     1       0.497  11.810  18.245  0.00  0.00    +0.000 N 
ATOM     29  H   UNL     1      -0.488  12.000  18.414  0.00  0.00    +0.000 HD
BRANCH  28  30
ATOM     30  C   UNL     1       1.311  12.944  18.521  0.00  0.00    +0.000 A 
ATOM     31  C   UNL     1       2.674  12.923  18.177  0.00  0.00    +0.000 A 
ATOM     32  C   UNL     1       3.531  13.957  18.545  0.00  0.00    +0.000 A 
ATOM     33  C   UNL     1       3.030  15.053  19.237  0.00  0.00    +0.000 A 
ATOM     34  C   UNL     1       1.670  15.107  19.534  0.00  0.00    +0.000 A 
ATOM     35  C   UNL     1       0.803  14.076  19.166  0.00  0.00    +0.000 A 
BRANCH  34  36
ATOM     36  O   UNL     1       1.148  16.170  20.214  0.00  0.00    +0.000 OA
ATOM     37  H   UNL     1       0.520  16.627  19.630  0.00  0.00    +0.000 HD
ENDBRANCH  34  36
ENDBRANCH  28  30
ENDBRANCH   4  28
TORSDOF 6
ENDMDL
MODEL 9
REMARK VINA RESULT:      -9.0      4.367      9.566
REMARK  Name = 
REMARK  8 active torsions:
REMARK  status: ('A' for Active; 'I' for Inactive)
REMARK    1  A    between atoms: C_1  and  C_2
REMARK    2  A    between atoms: C_5  and  C_6
REMARK    3  A    between atoms: C_9  and  N_10
REMARK    4  A    between atoms: N_10  and  C_11
REMARK    5  A    between atoms: C_15  and  O_16
REMARK    6  A    between atoms: C_25  and  S_26
REMARK    7  A    between atoms: S_26  and  N_29
REMARK    8  A    between atoms: N_32  and  C_33
REMARK                            x       y       z     vdW  Elec       q    Type
REMARK                         _______ _______ _______ _____ _____    ______ ____
ROOT
ATOM      1  C   UNL     1      -0.496  10.386  19.222  0.00  0.00    +0.000 A 
ATOM      2  N   UNL     1       0.134   9.894  18.132  0.00  0.00    +0.000 NA
ATOM      3  N   UNL     1       1.083   8.938  18.257  0.00  0.00    +0.000 NA
ATOM      4  C   UNL     1       1.509   8.514  19.465  0.00  0.00    +0.000 A 
ATOM      5  C   UNL     1       0.959   9.055  20.644  0.00  0.00    +0.000 A 
ATOM      6  C   UNL     1       1.444   8.740  21.939  0.00  0.00    +0.000 A 
ATOM      7  C   UNL     1       0.835   9.236  23.091  0.00  0.00    +0.000 A 
ATOM      8  C   UNL     1      -0.317   9.994  22.982  0.00  0.00    +0.000 A 
ATOM      9  C   UNL     1      -0.803  10.327  21.719  0.00  0.00    +0.000 A 
ATOM     10  C   UNL     1      -0.132   9.952  20.523  0.00  0.00    +0.000 A 
ENDROOT
BRANCH   1  15
ATOM     11  C   UNL     1      -5.789  11.517  18.533  0.00  0.00    +0.000 C 
ATOM     12  C   UNL     1      -4.340  11.895  18.493  0.00  0.00    +0.000 A 
ATOM     13  C   UNL     1      -3.601  11.357  17.432  0.00  0.00    +0.000 A 
ATOM     14  C   UNL     1      -2.271  11.025  17.628  0.00  0.00    +0.000 A 
ATOM     15  C   UNL     1      -1.663  11.236  18.868  0.00  0.00    +0.000 A 
ATOM     16  C   UNL     1      -2.295  12.133  19.754  0.00  0.00    +0.000 A 
ATOM     17  C   UNL     1      -3.658  12.462  19.575  0.00  0.00    +0.000 A 
BRANCH  17  18
ATOM     18  S   UNL     1      -4.492  13.313  20.921  0.00  0.00    +0.000 S 
ATOM     19  O   UNL     1      -5.589  14.054  20.326  0.00  0.00    +0.000 OA
ATOM     20  O   UNL     1      -4.759  12.314  21.939  0.00  0.00    +0.000 OA
BRANCH  18  21
ATOM     21  N   UNL     1      -3.414  14.408  21.592  0.00  0.00    +0.000 NA
ATOM     22  C   UNL     1      -2.705  15.446  20.823  0.00  0.00    +0.000 C 
ATOM     23  C   UNL     1      -1.170  15.223  20.786  0.00  0.00    +0.000 C 
ATOM     24  N   UNL     1      -0.510  14.598  21.949  0.00  0.00    +0.000 NA
ATOM     25  C   UNL     1       0.676  13.845  21.518  0.00  0.00    +0.000 C 
ATOM     26  C   UNL     1      -1.374  13.721  22.761  0.00  0.00    +0.000 C 
ATOM     27  C   UNL     1      -2.817  14.206  22.919  0.00  0.00    +0.000 C 
ENDBRANCH  18  21
ENDBRANCH  17  18
ENDBRANCH   1  15
BRANCH   4  28
ATOM     28  N   UNL     1       2.504   7.493  19.505  0.00  0.00    +0.000 N 
ATOM     29  H   UNL     1       3.134   7.673  20.283  0.00  0.00    +0.000 HD
BRANCH  28  30
ATOM     30  C   UNL     1       2.152   6.117  19.416  0.00  0.00    +0.000 A 
ATOM     31  C   UNL     1       1.759   5.423  20.574  0.00  0.00    +0.000 A 
ATOM     32  C   UNL     1       1.532   4.049  20.554  0.00  0.00    +0.000 A 
ATOM     33  C   UNL     1       1.658   3.347  19.361  0.00  0.00    +0.000 A 
ATOM     34  C   UNL     1       1.993   4.038  18.198  0.00  0.00    +0.000 A 
ATOM     35  C   UNL     1       2.220   5.416  18.208  0.00  0.00    +0.000 A 
BRANCH  34  36
ATOM     36  O   UNL     1       2.127   3.376  17.010  0.00  0.00    +0.000 OA
ATOM     37  H   UNL     1       1.450   3.710  16.398  0.00  0.00    +0.000 HD
ENDBRANCH  34  36
ENDBRANCH  28  30
ENDBRANCH   4  28
TORSDOF 6
ENDMDL
