MODEL 1
REMARK VINA RESULT:      -6.4      0.000      0.000
REMARK  Name = 
REMARK  2 active torsions:
REMARK  status: ('A' for Active; 'I' for Inactive)
REMARK    1  A    between atoms: C_5  and  S_6
REMARK    2  A    between atoms: S_6  and  C_8
REMARK                            x       y       z     vdW  Elec       q    Type
REMARK                         _______ _______ _______ _____ _____    ______ ____
ROOT
ATOM      1  N   UNL     1       1.304   1.589  18.595  0.00  0.00    +0.000 N 
ATOM      2  C   UNL     1       1.994   2.724  18.416  0.00  0.00    +0.000 A 
ATOM      3  N   UNL     1       1.460   3.821  17.938  0.00  0.00    +0.000 NA
ATOM      4  C   UNL     1       2.415   4.823  17.881  0.00  0.00    +0.000 A 
ATOM      5  C   UNL     1       3.658   4.460  18.342  0.00  0.00    +0.000 A 
ATOM      6  S   UNL     1       3.667   2.822  18.796  0.00  0.00    +0.000 S 
ATOM      7  H   UNL     1       0.403   1.539  18.133  0.00  0.00    +0.000 HD
ATOM      8  H   UNL     1       1.811   0.712  18.625  0.00  0.00    +0.000 HD
ENDROOT
BRANCH   5   9
ATOM      9  S   UNL     1       5.049   5.492  18.401  0.00  0.00    +0.000 S 
ATOM     10  O   UNL     1       6.048   4.830  19.421  0.00  0.00    +0.000 OA
BRANCH   9  11
ATOM     11  C   UNL     1       5.759   5.203  16.765  0.00  0.00    +0.000 A 
ATOM     12  C   UNL     1       5.077   4.451  15.805  0.00  0.00    +0.000 A 
ATOM     13  C   UNL     1       5.658   4.225  14.559  0.00  0.00    +0.000 A 
ATOM     14  C   UNL     1       6.912   4.756  14.312  0.00  0.00    +0.000 A 
ATOM     15  N   UNL     1       7.611   5.472  15.218  0.00  0.00    +0.000 NA
ATOM     16  C   UNL     1       7.021   5.674  16.423  0.00  0.00    +0.000 A 
ENDBRANCH   9  11
ENDBRANCH   5   9
TORSDOF 2
ENDMDL
MODEL 2
REMARK VINA RESULT:      -6.3      2.154      5.370
REMARK  Name = 
REMARK  2 active torsions:
REMARK  status: ('A' for Active; 'I' for Inactive)
REMARK    1  A    between atoms: C_5  and  S_6
REMARK    2  A    between atoms: S_6  and  C_8
REMARK                            x       y       z     vdW  Elec       q    Type
REMARK                         _______ _______ _______ _____ _____    ______ ____
ROOT
ATOM      1  N   UNL     1       7.718   4.519  16.695  0.00  0.00    +0.000 N 
ATOM      2  C   UNL     1       6.595   5.209  16.939  0.00  0.00    +0.000 A 
ATOM      3  N   UNL     1       6.076   6.059  16.087  0.00  0.00    +0.000 NA
ATOM      4  C   UNL     1       4.916   6.604  16.614  0.00  0.00    +0.000 A 
ATOM      5  C   UNL     1       4.572   6.130  17.858  0.00  0.00    +0.000 A 
ATOM      6  S   UNL     1       5.744   5.035  18.421  0.00  0.00    +0.000 S 
ATOM      7  H   UNL     1       8.282   4.847  15.919  0.00  0.00    +0.000 HD
ATOM      8  H   UNL     1       8.251   4.164  17.481  0.00  0.00    +0.000 HD
ENDROOT
BRANCH   5   9
ATOM      9  S   UNL     1       3.179   6.615  18.768  0.00  0.00    +0.000 S 
ATOM     10  O   UNL     1       2.331   7.541  17.821  0.00  0.00    +0.000 OA
BRANCH   9  11
ATOM     11  C   UNL     1       2.273   5.055  18.865  0.00  0.00    +0.000 A 
ATOM     12  C   UNL     1       1.711   4.620  20.068  0.00  0.00    +0.000 A 
ATOM     13  C   UNL     1       1.038   3.401  20.119  0.00  0.00    +0.000 A 
ATOM     14  C   UNL     1       0.952   2.648  18.962  0.00  0.00    +0.000 A 
ATOM     15  N   UNL     1       1.497   3.024  17.785  0.00  0.00    +0.000 NA
ATOM     16  C   UNL     1       2.148   4.214  17.766  0.00  0.00    +0.000 A 
ENDBRANCH   9  11
ENDBRANCH   5   9
TORSDOF 2
ENDMDL
MODEL 3
REMARK VINA RESULT:      -6.2      1.809      5.237
REMARK  Name = 
REMARK  2 active torsions:
REMARK  status: ('A' for Active; 'I' for Inactive)
REMARK    1  A    between atoms: C_5  and  S_6
REMARK    2  A    between atoms: S_6  and  C_8
REMARK                            x       y       z     vdW  Elec       q    Type
REMARK                         _______ _______ _______ _____ _____    ______ ____
ROOT
ATOM      1  N   UNL     1       7.483   5.177  14.428  0.00  0.00    +0.000 N 
ATOM      2  C   UNL     1       6.981   5.138  15.671  0.00  0.00    +0.000 A 
ATOM      3  N   UNL     1       7.641   4.660  16.697  0.00  0.00    +0.000 NA
ATOM      4  C   UNL     1       6.869   4.765  17.843  0.00  0.00    +0.000 A 
ATOM      5  C   UNL     1       5.638   5.346  17.655  0.00  0.00    +0.000 A 
ATOM      6  S   UNL     1       5.398   5.712  16.013  0.00  0.00    +0.000 S 
ATOM      7  H   UNL     1       8.309   4.613  14.265  0.00  0.00    +0.000 HD
ATOM      8  H   UNL     1       6.840   5.219  13.646  0.00  0.00    +0.000 HD
ENDROOT
BRANCH   5   9
ATOM      9  S   UNL     1       4.456   5.618  18.893  0.00  0.00    +0.000 S 
ATOM     10  O   UNL     1       3.584   6.837  18.412  0.00  0.00    +0.000 OA
BRANCH   9  11
ATOM     11  C   UNL     1       3.410   4.159  18.694  0.00  0.00    +0.000 A 
ATOM     12  C   UNL     1       2.023   4.276  18.572  0.00  0.00    +0.000 A 
ATOM     13  C   UNL     1       1.238   3.132  18.442  0.00  0.00    +0.000 A 
ATOM     14  C   UNL     1       1.867   1.900  18.445  0.00  0.00    +0.000 A 
ATOM     15  N   UNL     1       3.201   1.743  18.580  0.00  0.00    +0.000 NA
ATOM     16  C   UNL     1       3.939   2.874  18.706  0.00  0.00    +0.000 A 
ENDBRANCH   9  11
ENDBRANCH   5   9
TORSDOF 2
ENDMDL
MODEL 4
REMARK VINA RESULT:      -6.2      1.474      1.607
REMARK  Name = 
REMARK  2 active torsions:
REMARK  status: ('A' for Active; 'I' for Inactive)
REMARK    1  A    between atoms: C_5  and  S_6
REMARK    2  A    between atoms: S_6  and  C_8
REMARK                            x       y       z     vdW  Elec       q    Type
REMARK                         _______ _______ _______ _____ _____    ______ ____
ROOT
ATOM      1  N   UNL     1       0.701   3.211  19.943  0.00  0.00    +0.000 N 
ATOM      2  C   UNL     1       2.002   3.485  19.770  0.00  0.00    +0.000 A 
ATOM      3  N   UNL     1       2.938   2.567  19.789  0.00  0.00    +0.000 NA
ATOM      4  C   UNL     1       4.174   3.151  19.569  0.00  0.00    +0.000 A 
ATOM      5  C   UNL     1       4.140   4.511  19.366  0.00  0.00    +0.000 A 
ATOM      6  S   UNL     1       2.550   5.093  19.517  0.00  0.00    +0.000 S 
ATOM      7  H   UNL     1       0.487   2.294  20.319  0.00  0.00    +0.000 HD
ATOM      8  H   UNL     1       0.088   3.951  20.263  0.00  0.00    +0.000 HD
ENDROOT
BRANCH   5   9
ATOM      9  S   UNL     1       5.519   5.517  19.063  0.00  0.00    +0.000 S 
ATOM     10  O   UNL     1       6.695   4.927  19.925  0.00  0.00    +0.000 OA
BRANCH   9  11
ATOM     11  C   UNL     1       5.896   5.074  17.352  0.00  0.00    +0.000 A 
ATOM     12  C   UNL     1       4.882   4.723  16.458  0.00  0.00    +0.000 A 
ATOM     13  C   UNL     1       5.204   4.364  15.150  0.00  0.00    +0.000 A 
ATOM     14  C   UNL     1       6.537   4.361  14.778  0.00  0.00    +0.000 A 
ATOM     15  N   UNL     1       7.547   4.676  15.617  0.00  0.00    +0.000 NA
ATOM     16  C   UNL     1       7.203   5.020  16.884  0.00  0.00    +0.000 A 
ENDBRANCH   9  11
ENDBRANCH   5   9
TORSDOF 2
ENDMDL
MODEL 5
REMARK VINA RESULT:      -6.1      2.443      5.267
REMARK  Name = 
REMARK  2 active torsions:
REMARK  status: ('A' for Active; 'I' for Inactive)
REMARK    1  A    between atoms: C_5  and  S_6
REMARK    2  A    between atoms: S_6  and  C_8
REMARK                            x       y       z     vdW  Elec       q    Type
REMARK                         _______ _______ _______ _____ _____    ______ ____
ROOT
ATOM      1  N   UNL     1       8.337   5.333  20.364  0.00  0.00    +0.000 N 
ATOM      2  C   UNL     1       7.671   5.129  19.218  0.00  0.00    +0.000 A 
ATOM      3  N   UNL     1       8.217   4.587  18.158  0.00  0.00    +0.000 NA
ATOM      4  C   UNL     1       7.280   4.498  17.141  0.00  0.00    +0.000 A 
ATOM      5  C   UNL     1       6.029   4.962  17.469  0.00  0.00    +0.000 A 
ATOM      6  S   UNL     1       6.024   5.586  19.051  0.00  0.00    +0.000 S 
ATOM      7  H   UNL     1       9.347   5.261  20.310  0.00  0.00    +0.000 HD
ATOM      8  H   UNL     1       8.000   6.043  21.003  0.00  0.00    +0.000 HD
ENDROOT
BRANCH   5   9
ATOM      9  S   UNL     1       4.653   4.977  16.415  0.00  0.00    +0.000 S 
ATOM     10  O   UNL     1       5.072   4.174  15.129  0.00  0.00    +0.000 OA
BRANCH   9  11
ATOM     11  C   UNL     1       3.518   3.900  17.317  0.00  0.00    +0.000 A 
ATOM     12  C   UNL     1       2.235   4.330  17.661  0.00  0.00    +0.000 A 
ATOM     13  C   UNL     1       1.388   3.486  18.378  0.00  0.00    +0.000 A 
ATOM     14  C   UNL     1       1.856   2.234  18.734  0.00  0.00    +0.000 A 
ATOM     15  N   UNL     1       3.095   1.787  18.436  0.00  0.00    +0.000 NA
ATOM     16  C   UNL     1       3.897   2.631  17.740  0.00  0.00    +0.000 A 
ENDBRANCH   9  11
ENDBRANCH   5   9
TORSDOF 2
ENDMDL
MODEL 6
REMARK VINA RESULT:      -6.1      2.081      5.478
REMARK  Name = 
REMARK  2 active torsions:
REMARK  status: ('A' for Active; 'I' for Inactive)
REMARK    1  A    between atoms: C_5  and  S_6
REMARK    2  A    between atoms: S_6  and  C_8
REMARK                            x       y       z     vdW  Elec       q    Type
REMARK                         _______ _______ _______ _____ _____    ______ ____
ROOT
ATOM      1  N   UNL     1       7.368   5.365  15.398  0.00  0.00    +0.000 N 
ATOM      2  C   UNL     1       6.519   5.398  16.435  0.00  0.00    +0.000 A 
ATOM      3  N   UNL     1       6.667   4.660  17.508  0.00  0.00    +0.000 NA
ATOM      4  C   UNL     1       5.644   4.922  18.404  0.00  0.00    +0.000 A 
ATOM      5  C   UNL     1       4.748   5.878  17.990  0.00  0.00    +0.000 A 
ATOM      6  S   UNL     1       5.138   6.420  16.427  0.00  0.00    +0.000 S 
ATOM      7  H   UNL     1       8.009   4.580  15.373  0.00  0.00    +0.000 HD
ATOM      8  H   UNL     1       7.037   5.667  14.490  0.00  0.00    +0.000 HD
ENDROOT
BRANCH   5   9
ATOM      9  S   UNL     1       3.370   6.422  18.891  0.00  0.00    +0.000 S 
ATOM     10  O   UNL     1       2.590   7.413  17.950  0.00  0.00    +0.000 OA
BRANCH   9  11
ATOM     11  C   UNL     1       2.378   4.913  18.943  0.00  0.00    +0.000 A 
ATOM     12  C   UNL     1       1.865   4.429  20.149  0.00  0.00    +0.000 A 
ATOM     13  C   UNL     1       1.122   3.250  20.163  0.00  0.00    +0.000 A 
ATOM     14  C   UNL     1       0.919   2.586  18.966  0.00  0.00    +0.000 A 
ATOM     15  N   UNL     1       1.413   3.011  17.784  0.00  0.00    +0.000 NA
ATOM     16  C   UNL     1       2.134   4.160  17.801  0.00  0.00    +0.000 A 
ENDBRANCH   9  11
ENDBRANCH   5   9
TORSDOF 2
ENDMDL
MODEL 7
REMARK VINA RESULT:      -6.1      2.399      2.766
REMARK  Name = 
REMARK  2 active torsions:
REMARK  status: ('A' for Active; 'I' for Inactive)
REMARK    1  A    between atoms: C_5  and  S_6
REMARK    2  A    between atoms: S_6  and  C_8
REMARK                            x       y       z     vdW  Elec       q    Type
REMARK                         _______ _______ _______ _____ _____    ______ ____
ROOT
ATOM      1  N   UNL     1       1.457   2.504  22.200  0.00  0.00    +0.000 N 
ATOM      2  C   UNL     1       1.859   2.981  21.013  0.00  0.00    +0.000 A 
ATOM      3  N   UNL     1       2.004   2.230  19.949  0.00  0.00    +0.000 NA
ATOM      4  C   UNL     1       2.416   3.005  18.878  0.00  0.00    +0.000 A 
ATOM      5  C   UNL     1       2.554   4.344  19.157  0.00  0.00    +0.000 A 
ATOM      6  S   UNL     1       2.232   4.644  20.799  0.00  0.00    +0.000 S 
ATOM      7  H   UNL     1       1.488   1.497  22.307  0.00  0.00    +0.000 HD
ATOM      8  H   UNL     1       1.692   3.024  23.037  0.00  0.00    +0.000 HD
ENDROOT
BRANCH   5   9
ATOM      9  S   UNL     1       3.048   5.561  18.026  0.00  0.00    +0.000 S 
ATOM     10  O   UNL     1       2.931   6.938  18.779  0.00  0.00    +0.000 OA
BRANCH   9  11
ATOM     11  C   UNL     1       4.818   5.219  17.906  0.00  0.00    +0.000 A 
ATOM     12  C   UNL     1       5.406   4.878  16.686  0.00  0.00    +0.000 A 
ATOM     13  C   UNL     1       6.769   4.596  16.627  0.00  0.00    +0.000 A 
ATOM     14  C   UNL     1       7.505   4.659  17.797  0.00  0.00    +0.000 A 
ATOM     15  N   UNL     1       6.972   4.966  18.998  0.00  0.00    +0.000 NA
ATOM     16  C   UNL     1       5.642   5.234  19.025  0.00  0.00    +0.000 A 
ENDBRANCH   9  11
ENDBRANCH   5   9
TORSDOF 2
ENDMDL
MODEL 8
REMARK VINA RESULT:      -6.0      2.642      5.716
REMARK  Name = 
REMARK  2 active torsions:
REMARK  status: ('A' for Active; 'I' for Inactive)
REMARK    1  A    between atoms: C_5  and  S_6
REMARK    2  A    between atoms: S_6  and  C_8
REMARK                            x       y       z     vdW  Elec       q    Type
REMARK                         _______ _______ _______ _____ _____    ______ ____
ROOT
ATOM      1  N   UNL     1       7.569   4.688  16.452  0.00  0.00    +0.000 N 
ATOM      2  C   UNL     1       6.607   4.932  17.353  0.00  0.00    +0.000 A 
ATOM      3  N   UNL     1       6.670   4.527  18.598  0.00  0.00    +0.000 NA
ATOM      4  C   UNL     1       5.539   4.939  19.284  0.00  0.00    +0.000 A 
ATOM      5  C   UNL     1       4.649   5.673  18.537  0.00  0.00    +0.000 A 
ATOM      6  S   UNL     1       5.186   5.801  16.930  0.00  0.00    +0.000 S 
ATOM      7  H   UNL     1       8.248   3.980  16.707  0.00  0.00    +0.000 HD
ATOM      8  H   UNL     1       7.329   4.705  15.468  0.00  0.00    +0.000 HD
ENDROOT
BRANCH   5   9
ATOM      9  S   UNL     1       3.152   6.328  19.115  0.00  0.00    +0.000 S 
ATOM     10  O   UNL     1       2.321   6.726  17.840  0.00  0.00    +0.000 OA
BRANCH   9  11
ATOM     11  C   UNL     1       2.359   4.844  19.772  0.00  0.00    +0.000 A 
ATOM     12  C   UNL     1       1.595   4.011  18.951  0.00  0.00    +0.000 A 
ATOM     13  C   UNL     1       0.976   2.884  19.490  0.00  0.00    +0.000 A 
ATOM     14  C   UNL     1       1.136   2.628  20.840  0.00  0.00    +0.000 A 
ATOM     15  N   UNL     1       1.850   3.417  21.670  0.00  0.00    +0.000 NA
ATOM     16  C   UNL     1       2.440   4.508  21.118  0.00  0.00    +0.000 A 
ENDBRANCH   9  11
ENDBRANCH   5   9
TORSDOF 2
ENDMDL
MODEL 9
REMARK VINA RESULT:      -6.0      2.382      5.420
REMARK  Name = 
REMARK  2 active torsions:
REMARK  status: ('A' for Active; 'I' for Inactive)
REMARK    1  A    between atoms: C_5  and  S_6
REMARK    2  A    between atoms: S_6  and  C_8
REMARK                            x       y       z     vdW  Elec       q    Type
REMARK                         _______ _______ _______ _____ _____    ______ ____
ROOT
ATOM      1  N   UNL     1       7.723   4.369  16.932  0.00  0.00    +0.000 N 
ATOM      2  C   UNL     1       6.627   5.123  17.102  0.00  0.00    +0.000 A 
ATOM      3  N   UNL     1       6.184   5.959  16.195  0.00  0.00    +0.000 NA
ATOM      4  C   UNL     1       5.035   6.583  16.652  0.00  0.00    +0.000 A 
ATOM      5  C   UNL     1       4.621   6.182  17.901  0.00  0.00    +0.000 A 
ATOM      6  S   UNL     1       5.714   5.057  18.555  0.00  0.00    +0.000 S 
ATOM      7  H   UNL     1       8.330   4.634  16.165  0.00  0.00    +0.000 HD
ATOM      8  H   UNL     1       8.207   4.024  17.752  0.00  0.00    +0.000 HD
ENDROOT
BRANCH   5   9
ATOM      9  S   UNL     1       3.221   6.774  18.734  0.00  0.00    +0.000 S 
ATOM     10  O   UNL     1       2.370   7.559  17.669  0.00  0.00    +0.000 OA
BRANCH   9  11
ATOM     11  C   UNL     1       2.326   5.234  19.037  0.00  0.00    +0.000 A 
ATOM     12  C   UNL     1       2.020   4.360  17.992  0.00  0.00    +0.000 A 
ATOM     13  C   UNL     1       1.308   3.190  18.251  0.00  0.00    +0.000 A 
ATOM     14  C   UNL     1       0.918   2.932  19.553  0.00  0.00    +0.000 A 
ATOM     15  N   UNL     1       1.178   3.760  20.588  0.00  0.00    +0.000 NA
ATOM     16  C   UNL     1       1.871   4.892  20.305  0.00  0.00    +0.000 A 
ENDBRANCH   9  11
ENDBRANCH   5   9
TORSDOF 2
ENDMDL
