MODEL 1
REMARK VINA RESULT:      -7.0      0.000      0.000
REMARK  Name = 
REMARK  4 active torsions:
REMARK  status: ('A' for Active; 'I' for Inactive)
REMARK    1  A    between atoms: C_1  and  C_2
REMARK    2  A    between atoms: C_7  and  C_8
REMARK    3  A    between atoms: N_10  and  N_11
REMARK    4  A    between atoms: C_12  and  C_13
REMARK                            x       y       z     vdW  Elec       q    Type
REMARK                         _______ _______ _______ _____ _____    ______ ____
ROOT
ATOM      1  C   UNL     1       4.759   4.335  18.775  0.00  0.00    +0.000 C 
ATOM      2  O   UNL     1       5.950   4.225  19.057  0.00  0.00    +0.000 OA
ATOM      3  N   UNL     1       4.306   4.701  17.507  0.00  0.00    +0.000 N 
ATOM      4  H   UNL     1       3.309   4.780  17.348  0.00  0.00    +0.000 HD
ENDROOT
BRANCH   1  11
ATOM      5  C   UNL     1       2.500   6.387  19.793  0.00  0.00    +0.000 C 
ATOM      6  C   UNL     1       2.715   4.970  20.198  0.00  0.00    +0.000 A 
ATOM      7  N   UNL     1       1.835   4.427  21.127  0.00  0.00    +0.000 NA
ATOM      8  C   UNL     1       2.132   3.177  21.363  0.00  0.00    +0.000 A 
ATOM      9  N   UNL     1       1.430   2.403  22.202  0.00  0.00    +0.000 N 
ATOM     10  S   UNL     1       3.501   2.580  20.533  0.00  0.00    +0.000 S 
ATOM     11  C   UNL     1       3.699   4.098  19.749  0.00  0.00    +0.000 A 
ATOM     12  H   UNL     1       0.804   2.894  22.832  0.00  0.00    +0.000 HD
ATOM     13  H   UNL     1       1.872   1.584  22.597  0.00  0.00    +0.000 HD
ENDBRANCH   1  11
BRANCH   3  14
ATOM     14  N   UNL     1       5.176   4.995  16.499  0.00  0.00    +0.000 NA
ATOM     15  C   UNL     1       5.182   4.160  15.507  0.00  0.00    +0.000 C 
BRANCH  15  16
ATOM     16  C   UNL     1       6.059   4.355  14.342  0.00  0.00    +0.000 A 
ATOM     17  C   UNL     1       5.878   3.642  13.158  0.00  0.00    +0.000 A 
ATOM     18  C   UNL     1       6.749   3.860  12.093  0.00  0.00    +0.000 A 
ATOM     19  C   UNL     1       7.770   4.785  12.255  0.00  0.00    +0.000 A 
ATOM     20  N   UNL     1       7.970   5.493  13.391  0.00  0.00    +0.000 NA
ATOM     21  C   UNL     1       7.109   5.261  14.411  0.00  0.00    +0.000 A 
ENDBRANCH  15  16
ENDBRANCH   3  14
TORSDOF 3
ENDMDL
MODEL 2
REMARK VINA RESULT:      -6.9      5.399      6.809
REMARK  Name = 
REMARK  4 active torsions:
REMARK  status: ('A' for Active; 'I' for Inactive)
REMARK    1  A    between atoms: C_1  and  C_2
REMARK    2  A    between atoms: C_7  and  C_8
REMARK    3  A    between atoms: N_10  and  N_11
REMARK    4  A    between atoms: C_12  and  C_13
REMARK                            x       y       z     vdW  Elec       q    Type
REMARK                         _______ _______ _______ _____ _____    ______ ____
ROOT
ATOM      1  C   UNL     1       7.368   5.920  18.460  0.00  0.00    +0.000 C 
ATOM      2  O   UNL     1       8.083   5.440  19.336  0.00  0.00    +0.000 OA
ATOM      3  N   UNL     1       7.517   7.222  17.982  0.00  0.00    +0.000 N 
ATOM      4  H   UNL     1       6.886   7.554  17.263  0.00  0.00    +0.000 HD
ENDROOT
BRANCH   1  11
ATOM      5  C   UNL     1       7.200   4.809  15.445  0.00  0.00    +0.000 C 
ATOM      6  C   UNL     1       6.195   4.681  16.537  0.00  0.00    +0.000 A 
ATOM      7  N   UNL     1       5.025   3.986  16.255  0.00  0.00    +0.000 NA
ATOM      8  C   UNL     1       4.257   3.934  17.311  0.00  0.00    +0.000 A 
ATOM      9  N   UNL     1       3.075   3.302  17.327  0.00  0.00    +0.000 N 
ATOM     10  S   UNL     1       4.853   4.746  18.691  0.00  0.00    +0.000 S 
ATOM     11  C   UNL     1       6.284   5.169  17.835  0.00  0.00    +0.000 A 
ATOM     12  H   UNL     1       2.689   3.072  16.417  0.00  0.00    +0.000 HD
ATOM     13  H   UNL     1       2.392   3.563  18.024  0.00  0.00    +0.000 HD
ENDBRANCH   1  11
BRANCH   3  14
ATOM     14  N   UNL     1       8.460   8.063  18.493  0.00  0.00    +0.000 NA
ATOM     15  C   UNL     1       8.313   9.316  18.191  0.00  0.00    +0.000 C 
BRANCH  15  16
ATOM     16  C   UNL     1       9.247  10.341  18.682  0.00  0.00    +0.000 A 
ATOM     17  C   UNL     1      10.051  11.080  17.814  0.00  0.00    +0.000 A 
ATOM     18  C   UNL     1      10.925  12.027  18.339  0.00  0.00    +0.000 A 
ATOM     19  C   UNL     1      10.963  12.199  19.715  0.00  0.00    +0.000 A 
ATOM     20  N   UNL     1      10.197  11.498  20.582  0.00  0.00    +0.000 NA
ATOM     21  C   UNL     1       9.355  10.582  20.044  0.00  0.00    +0.000 A 
ENDBRANCH  15  16
ENDBRANCH   3  14
TORSDOF 3
ENDMDL
MODEL 3
REMARK VINA RESULT:      -6.8      4.123      8.384
REMARK  Name = 
REMARK  4 active torsions:
REMARK  status: ('A' for Active; 'I' for Inactive)
REMARK    1  A    between atoms: C_1  and  C_2
REMARK    2  A    between atoms: C_7  and  C_8
REMARK    3  A    between atoms: N_10  and  N_11
REMARK    4  A    between atoms: C_12  and  C_13
REMARK                            x       y       z     vdW  Elec       q    Type
REMARK                         _______ _______ _______ _____ _____    ______ ____
ROOT
ATOM      1  C   UNL     1       2.935   6.601  19.050  0.00  0.00    +0.000 C 
ATOM      2  O   UNL     1       2.769   7.209  17.995  0.00  0.00    +0.000 OA
ATOM      3  N   UNL     1       2.364   7.002  20.258  0.00  0.00    +0.000 N 
ATOM      4  H   UNL     1       2.550   6.457  21.091  0.00  0.00    +0.000 HD
ENDROOT
BRANCH   1  11
ATOM      5  C   UNL     1       5.941   6.162  17.993  0.00  0.00    +0.000 C 
ATOM      6  C   UNL     1       5.054   5.192  18.692  0.00  0.00    +0.000 A 
ATOM      7  N   UNL     1       5.564   3.925  18.948  0.00  0.00    +0.000 NA
ATOM      8  C   UNL     1       4.686   3.198  19.586  0.00  0.00    +0.000 A 
ATOM      9  N   UNL     1       4.925   1.939  19.981  0.00  0.00    +0.000 N 
ATOM     10  S   UNL     1       3.184   3.955  19.882  0.00  0.00    +0.000 S 
ATOM     11  C   UNL     1       3.756   5.398  19.141  0.00  0.00    +0.000 A 
ATOM     12  H   UNL     1       5.726   1.490  19.552  0.00  0.00    +0.000 HD
ATOM     13  H   UNL     1       4.141   1.327  20.160  0.00  0.00    +0.000 HD
ENDBRANCH   1  11
BRANCH   3  14
ATOM     14  N   UNL     1       1.602   8.129  20.346  0.00  0.00    +0.000 NA
ATOM     15  C   UNL     1       1.014   8.318  21.486  0.00  0.00    +0.000 C 
BRANCH  15  16
ATOM     16  C   UNL     1       0.171   9.498  21.731  0.00  0.00    +0.000 A 
ATOM     17  C   UNL     1      -0.395   9.751  22.980  0.00  0.00    +0.000 A 
ATOM     18  C   UNL     1      -1.196  10.877  23.148  0.00  0.00    +0.000 A 
ATOM     19  C   UNL     1      -1.402  11.708  22.057  0.00  0.00    +0.000 A 
ATOM     20  N   UNL     1      -0.867  11.490  20.833  0.00  0.00    +0.000 NA
ATOM     21  C   UNL     1      -0.092  10.387  20.698  0.00  0.00    +0.000 A 
ENDBRANCH  15  16
ENDBRANCH   3  14
TORSDOF 3
ENDMDL
MODEL 4
REMARK VINA RESULT:      -6.8      4.103      8.441
REMARK  Name = 
REMARK  4 active torsions:
REMARK  status: ('A' for Active; 'I' for Inactive)
REMARK    1  A    between atoms: C_1  and  C_2
REMARK    2  A    between atoms: C_7  and  C_8
REMARK    3  A    between atoms: N_10  and  N_11
REMARK    4  A    between atoms: C_12  and  C_13
REMARK                            x       y       z     vdW  Elec       q    Type
REMARK                         _______ _______ _______ _____ _____    ______ ____
ROOT
ATOM      1  C   UNL     1       2.871   6.627  19.079  0.00  0.00    +0.000 C 
ATOM      2  O   UNL     1       2.698   7.259  18.040  0.00  0.00    +0.000 OA
ATOM      3  N   UNL     1       2.314   7.004  20.302  0.00  0.00    +0.000 N 
ATOM      4  H   UNL     1       2.505   6.440  21.121  0.00  0.00    +0.000 HD
ENDROOT
BRANCH   1  11
ATOM      5  C   UNL     1       5.845   6.179  17.941  0.00  0.00    +0.000 C 
ATOM      6  C   UNL     1       4.969   5.206  18.650  0.00  0.00    +0.000 A 
ATOM      7  N   UNL     1       5.475   3.932  18.878  0.00  0.00    +0.000 NA
ATOM      8  C   UNL     1       4.608   3.204  19.530  0.00  0.00    +0.000 A 
ATOM      9  N   UNL     1       4.846   1.939  19.903  0.00  0.00    +0.000 N 
ATOM     10  S   UNL     1       3.119   3.969  19.872  0.00  0.00    +0.000 S 
ATOM     11  C   UNL     1       3.684   5.417  19.134  0.00  0.00    +0.000 A 
ATOM     12  H   UNL     1       5.633   1.489  19.448  0.00  0.00    +0.000 HD
ATOM     13  H   UNL     1       4.062   1.331  20.094  0.00  0.00    +0.000 HD
ENDBRANCH   1  11
BRANCH   3  14
ATOM     14  N   UNL     1       1.561   8.134  20.422  0.00  0.00    +0.000 NA
ATOM     15  C   UNL     1       1.315   8.514  21.638  0.00  0.00    +0.000 C 
BRANCH  15  16
ATOM     16  C   UNL     1       0.526   9.722  21.922  0.00  0.00    +0.000 A 
ATOM     17  C   UNL     1       0.610  10.860  21.121  0.00  0.00    +0.000 A 
ATOM     18  C   UNL     1      -0.151  11.979  21.448  0.00  0.00    +0.000 A 
ATOM     19  C   UNL     1      -0.968  11.917  22.568  0.00  0.00    +0.000 A 
ATOM     20  N   UNL     1      -1.071  10.828  23.364  0.00  0.00    +0.000 NA
ATOM     21  C   UNL     1      -0.319   9.753  23.023  0.00  0.00    +0.000 A 
ENDBRANCH  15  16
ENDBRANCH   3  14
TORSDOF 3
ENDMDL
MODEL 5
REMARK VINA RESULT:      -6.7      1.326      1.326
REMARK  Name = 
REMARK  4 active torsions:
REMARK  status: ('A' for Active; 'I' for Inactive)
REMARK    1  A    between atoms: C_1  and  C_2
REMARK    2  A    between atoms: C_7  and  C_8
REMARK    3  A    between atoms: N_10  and  N_11
REMARK    4  A    between atoms: C_12  and  C_13
REMARK                            x       y       z     vdW  Elec       q    Type
REMARK                         _______ _______ _______ _____ _____    ______ ____
ROOT
ATOM      1  C   UNL     1       2.840   3.964  17.678  0.00  0.00    +0.000 C 
ATOM      2  O   UNL     1       2.151   3.513  16.766  0.00  0.00    +0.000 OA
ATOM      3  N   UNL     1       4.026   4.666  17.461  0.00  0.00    +0.000 N 
ATOM      4  H   UNL     1       4.548   5.003  18.262  0.00  0.00    +0.000 HD
ENDROOT
BRANCH   1  11
ATOM      5  C   UNL     1       2.469   6.252  19.909  0.00  0.00    +0.000 C 
ATOM      6  C   UNL     1       2.317   4.778  20.059  0.00  0.00    +0.000 A 
ATOM      7  N   UNL     1       1.957   4.294  21.311  0.00  0.00    +0.000 NA
ATOM      8  C   UNL     1       1.837   2.993  21.282  0.00  0.00    +0.000 A 
ATOM      9  N   UNL     1       1.474   2.267  22.348  0.00  0.00    +0.000 N 
ATOM     10  S   UNL     1       2.189   2.258  19.781  0.00  0.00    +0.000 S 
ATOM     11  C   UNL     1       2.483   3.803  19.083  0.00  0.00    +0.000 A 
ATOM     12  H   UNL     1       1.531   2.742  23.243  0.00  0.00    +0.000 HD
ATOM     13  H   UNL     1       1.712   1.285  22.374  0.00  0.00    +0.000 HD
ENDBRANCH   1  11
BRANCH   3  14
ATOM     14  N   UNL     1       4.515   4.866  16.205  0.00  0.00    +0.000 NA
ATOM     15  C   UNL     1       5.635   4.268  15.940  0.00  0.00    +0.000 C 
BRANCH  15  16
ATOM     16  C   UNL     1       6.275   4.381  14.621  0.00  0.00    +0.000 A 
ATOM     17  C   UNL     1       5.841   3.635  13.526  0.00  0.00    +0.000 A 
ATOM     18  C   UNL     1       6.496   3.775  12.305  0.00  0.00    +0.000 A 
ATOM     19  C   UNL     1       7.563   4.658  12.227  0.00  0.00    +0.000 A 
ATOM     20  N   UNL     1       8.007   5.396  13.270  0.00  0.00    +0.000 NA
ATOM     21  C   UNL     1       7.352   5.240  14.446  0.00  0.00    +0.000 A 
ENDBRANCH  15  16
ENDBRANCH   3  14
TORSDOF 3
ENDMDL
MODEL 6
REMARK VINA RESULT:      -6.7      4.004      8.534
REMARK  Name = 
REMARK  4 active torsions:
REMARK  status: ('A' for Active; 'I' for Inactive)
REMARK    1  A    between atoms: C_1  and  C_2
REMARK    2  A    between atoms: C_7  and  C_8
REMARK    3  A    between atoms: N_10  and  N_11
REMARK    4  A    between atoms: C_12  and  C_13
REMARK                            x       y       z     vdW  Elec       q    Type
REMARK                         _______ _______ _______ _____ _____    ______ ____
ROOT
ATOM      1  C   UNL     1       2.430   5.621  20.121  0.00  0.00    +0.000 C 
ATOM      2  O   UNL     1       1.845   4.964  20.978  0.00  0.00    +0.000 OA
ATOM      3  N   UNL     1       2.331   7.010  20.027  0.00  0.00    +0.000 N 
ATOM      4  H   UNL     1       2.835   7.487  19.289  0.00  0.00    +0.000 HD
ENDROOT
BRANCH   1  11
ATOM      5  C   UNL     1       1.550   3.824  17.603  0.00  0.00    +0.000 C 
ATOM      6  C   UNL     1       2.922   4.231  18.016  0.00  0.00    +0.000 A 
ATOM      7  N   UNL     1       3.983   3.807  17.227  0.00  0.00    +0.000 NA
ATOM      8  C   UNL     1       5.115   4.261  17.697  0.00  0.00    +0.000 A 
ATOM      9  N   UNL     1       6.298   4.023  17.115  0.00  0.00    +0.000 N 
ATOM     10  S   UNL     1       4.995   5.181  19.131  0.00  0.00    +0.000 S 
ATOM     11  C   UNL     1       3.284   5.008  19.110  0.00  0.00    +0.000 A 
ATOM     12  H   UNL     1       6.308   3.275  16.430  0.00  0.00    +0.000 HD
ATOM     13  H   UNL     1       7.139   4.101  17.670  0.00  0.00    +0.000 HD
ENDBRANCH   1  11
BRANCH   3  14
ATOM     14  N   UNL     1       1.540   7.726  20.875  0.00  0.00    +0.000 NA
ATOM     15  C   UNL     1       1.218   8.915  20.469  0.00  0.00    +0.000 C 
BRANCH  15  16
ATOM     16  C   UNL     1       0.359   9.797  21.273  0.00  0.00    +0.000 A 
ATOM     17  C   UNL     1      -0.363  10.843  20.699  0.00  0.00    +0.000 A 
ATOM     18  C   UNL     1      -1.149  11.654  21.514  0.00  0.00    +0.000 A 
ATOM     19  C   UNL     1      -1.182  11.387  22.874  0.00  0.00    +0.000 A 
ATOM     20  N   UNL     1      -0.494  10.380  23.460  0.00  0.00    +0.000 NA
ATOM     21  C   UNL     1       0.263   9.607  22.645  0.00  0.00    +0.000 A 
ENDBRANCH  15  16
ENDBRANCH   3  14
TORSDOF 3
ENDMDL
MODEL 7
REMARK VINA RESULT:      -6.7      4.929      8.241
REMARK  Name = 
REMARK  4 active torsions:
REMARK  status: ('A' for Active; 'I' for Inactive)
REMARK    1  A    between atoms: C_1  and  C_2
REMARK    2  A    between atoms: C_7  and  C_8
REMARK    3  A    between atoms: N_10  and  N_11
REMARK    4  A    between atoms: C_12  and  C_13
REMARK                            x       y       z     vdW  Elec       q    Type
REMARK                         _______ _______ _______ _____ _____    ______ ____
ROOT
ATOM      1  C   UNL     1       2.521   6.152  19.458  0.00  0.00    +0.000 C 
ATOM      2  O   UNL     1       2.595   6.714  18.368  0.00  0.00    +0.000 OA
ATOM      3  N   UNL     1       2.017   6.772  20.602  0.00  0.00    +0.000 N 
ATOM      4  H   UNL     1       1.994   6.251  21.470  0.00  0.00    +0.000 HD
ENDROOT
BRANCH   1  11
ATOM      5  C   UNL     1       0.739   3.589  20.234  0.00  0.00    +0.000 C 
ATOM      6  C   UNL     1       2.208   3.659  19.996  0.00  0.00    +0.000 A 
ATOM      7  N   UNL     1       2.932   2.478  20.103  0.00  0.00    +0.000 NA
ATOM      8  C   UNL     1       4.195   2.690  19.843  0.00  0.00    +0.000 A 
ATOM      9  N   UNL     1       5.117   1.718  19.849  0.00  0.00    +0.000 N 
ATOM     10  S   UNL     1       4.610   4.311  19.500  0.00  0.00    +0.000 S 
ATOM     11  C   UNL     1       2.962   4.777  19.663  0.00  0.00    +0.000 A 
ATOM     12  H   UNL     1       4.840   0.853  20.302  0.00  0.00    +0.000 HD
ATOM     13  H   UNL     1       6.089   1.968  19.972  0.00  0.00    +0.000 HD
ENDBRANCH   1  11
BRANCH   3  14
ATOM     14  N   UNL     1       1.601   8.070  20.583  0.00  0.00    +0.000 NA
ATOM     15  C   UNL     1       0.847   8.429  21.574  0.00  0.00    +0.000 C 
BRANCH  15  16
ATOM     16  C   UNL     1       0.334   9.802  21.694  0.00  0.00    +0.000 A 
ATOM     17  C   UNL     1      -0.442  10.206  22.780  0.00  0.00    +0.000 A 
ATOM     18  C   UNL     1      -0.911  11.516  22.831  0.00  0.00    +0.000 A 
ATOM     19  C   UNL     1      -0.586  12.373  21.790  0.00  0.00    +0.000 A 
ATOM     20  N   UNL     1       0.163  12.012  20.724  0.00  0.00    +0.000 NA
ATOM     21  C   UNL     1       0.607  10.732  20.699  0.00  0.00    +0.000 A 
ENDBRANCH  15  16
ENDBRANCH   3  14
TORSDOF 3
ENDMDL
MODEL 8
REMARK VINA RESULT:      -6.6      0.727      1.156
REMARK  Name = 
REMARK  4 active torsions:
REMARK  status: ('A' for Active; 'I' for Inactive)
REMARK    1  A    between atoms: C_1  and  C_2
REMARK    2  A    between atoms: C_7  and  C_8
REMARK    3  A    between atoms: N_10  and  N_11
REMARK    4  A    between atoms: C_12  and  C_13
REMARK                            x       y       z     vdW  Elec       q    Type
REMARK                         _______ _______ _______ _____ _____    ______ ____
ROOT
ATOM      1  C   UNL     1       4.703   4.436  18.607  0.00  0.00    +0.000 C 
ATOM      2  O   UNL     1       5.909   4.406  18.841  0.00  0.00    +0.000 OA
ATOM      3  N   UNL     1       4.177   4.716  17.346  0.00  0.00    +0.000 N 
ATOM      4  H   UNL     1       3.171   4.731  17.227  0.00  0.00    +0.000 HD
ENDROOT
BRANCH   1  11
ATOM      5  C   UNL     1       2.488   6.463  19.761  0.00  0.00    +0.000 C 
ATOM      6  C   UNL     1       2.735   5.046  20.144  0.00  0.00    +0.000 A 
ATOM      7  N   UNL     1       1.912   4.491  21.117  0.00  0.00    +0.000 NA
ATOM      8  C   UNL     1       2.230   3.241  21.328  0.00  0.00    +0.000 A 
ATOM      9  N   UNL     1       1.581   2.457  22.199  0.00  0.00    +0.000 N 
ATOM     10  S   UNL     1       3.556   2.660  20.420  0.00  0.00    +0.000 S 
ATOM     11  C   UNL     1       3.699   4.184  19.636  0.00  0.00    +0.000 A 
ATOM     12  H   UNL     1       0.988   2.939  22.865  0.00  0.00    +0.000 HD
ATOM     13  H   UNL     1       2.051   1.639  22.564  0.00  0.00    +0.000 HD
ENDBRANCH   1  11
BRANCH   3  14
ATOM     14  N   UNL     1       4.985   5.011  16.288  0.00  0.00    +0.000 NA
ATOM     15  C   UNL     1       5.205   4.035  15.464  0.00  0.00    +0.000 C 
BRANCH  15  16
ATOM     16  C   UNL     1       6.046   4.209  14.270  0.00  0.00    +0.000 A 
ATOM     17  C   UNL     1       7.139   5.075  14.261  0.00  0.00    +0.000 A 
ATOM     18  C   UNL     1       7.891   5.209  13.097  0.00  0.00    +0.000 A 
ATOM     19  C   UNL     1       7.518   4.471  11.983  0.00  0.00    +0.000 A 
ATOM     20  N   UNL     1       6.465   3.623  11.961  0.00  0.00    +0.000 NA
ATOM     21  C   UNL     1       5.750   3.512  13.107  0.00  0.00    +0.000 A 
ENDBRANCH  15  16
ENDBRANCH   3  14
TORSDOF 3
ENDMDL
MODEL 9
REMARK VINA RESULT:      -6.6      5.472      6.881
REMARK  Name = 
REMARK  4 active torsions:
REMARK  status: ('A' for Active; 'I' for Inactive)
REMARK    1  A    between atoms: C_1  and  C_2
REMARK    2  A    between atoms: C_7  and  C_8
REMARK    3  A    between atoms: N_10  and  N_11
REMARK    4  A    between atoms: C_12  and  C_13
REMARK                            x       y       z     vdW  Elec       q    Type
REMARK                         _______ _______ _______ _____ _____    ______ ____
ROOT
ATOM      1  C   UNL     1       7.321   6.137  18.288  0.00  0.00    +0.000 C 
ATOM      2  O   UNL     1       8.020   5.706  19.202  0.00  0.00    +0.000 OA
ATOM      3  N   UNL     1       7.477   7.413  17.746  0.00  0.00    +0.000 N 
ATOM      4  H   UNL     1       6.859   7.707  16.999  0.00  0.00    +0.000 HD
ENDROOT
BRANCH   1  11
ATOM      5  C   UNL     1       7.242   4.804  15.362  0.00  0.00    +0.000 C 
ATOM      6  C   UNL     1       6.199   4.769  16.425  0.00  0.00    +0.000 A 
ATOM      7  N   UNL     1       5.030   4.067  16.155  0.00  0.00    +0.000 NA
ATOM      8  C   UNL     1       4.226   4.103  17.183  0.00  0.00    +0.000 A 
ATOM      9  N   UNL     1       3.036   3.487  17.205  0.00  0.00    +0.000 N 
ATOM     10  S   UNL     1       4.784   5.011  18.519  0.00  0.00    +0.000 S 
ATOM     11  C   UNL     1       6.249   5.353  17.684  0.00  0.00    +0.000 A 
ATOM     12  H   UNL     1       2.678   3.193  16.303  0.00  0.00    +0.000 HD
ATOM     13  H   UNL     1       2.332   3.807  17.857  0.00  0.00    +0.000 HD
ENDBRANCH   1  11
BRANCH   3  14
ATOM     14  N   UNL     1       8.410   8.282  18.230  0.00  0.00    +0.000 NA
ATOM     15  C   UNL     1       8.133   9.540  18.079  0.00  0.00    +0.000 C 
BRANCH  15  16
ATOM     16  C   UNL     1       9.039  10.592  18.562  0.00  0.00    +0.000 A 
ATOM     17  C   UNL     1       9.674  10.504  19.801  0.00  0.00    +0.000 A 
ATOM     18  C   UNL     1      10.511  11.538  20.211  0.00  0.00    +0.000 A 
ATOM     19  C   UNL     1      10.681  12.624  19.365  0.00  0.00    +0.000 A 
ATOM     20  N   UNL     1      10.079  12.739  18.159  0.00  0.00    +0.000 NA
ATOM     21  C   UNL     1       9.270  11.718  17.784  0.00  0.00    +0.000 A 
ENDBRANCH  15  16
ENDBRANCH   3  14
TORSDOF 3
ENDMDL
