MODEL 1
REMARK VINA RESULT:      -6.8      0.000      0.000
REMARK  Name = 
REMARK  6 active torsions:
REMARK  status: ('A' for Active; 'I' for Inactive)
REMARK    1  A    between atoms: C_1  and  C_2
REMARK    2  A    between atoms: C_7  and  O_8
REMARK    3  A    between atoms: O_8  and  C_9
REMARK    4  A    between atoms: C_9  and  C_10
REMARK    5  A    between atoms: C_10  and  N_11
REMARK    6  A    between atoms: C_15  and  C_16
REMARK                            x       y       z     vdW  Elec       q    Type
REMARK                         _______ _______ _______ _____ _____    ______ ____
ROOT
ATOM      1  C   UNL     1       6.389   4.368  17.958  0.00  0.00    +0.000 C 
ENDROOT
BRANCH   1   2
ATOM      2  N   UNL     1       6.034   5.623  17.253  0.00  0.00    +0.000 NA
ATOM      3  C   UNL     1       4.770   5.549  16.492  0.00  0.00    +0.000 C 
ATOM      4  C   UNL     1       4.823   4.622  15.268  0.00  0.00    +0.000 C 
ATOM      5  N   UNL     1       6.058   4.797  14.538  0.00  0.00    +0.000 N 
ATOM      6  C   UNL     1       6.441   4.273  13.339  0.00  0.00    +0.000 A 
ATOM      7  C   UNL     1       5.673   3.284  12.553  0.00  0.00    +0.000 C 
ATOM      8  N   UNL     1       7.629   4.758  13.039  0.00  0.00    +0.000 NA
ATOM      9  N   UNL     1       8.061   5.530  14.096  0.00  0.00    +0.000 NA
ATOM     10  C   UNL     1       7.128   5.498  15.021  0.00  0.00    +0.000 A 
ATOM     11  C   UNL     1       7.120   6.121  16.373  0.00  0.00    +0.000 C 
ENDBRANCH   1   2
BRANCH   1  12
ATOM     12  C   UNL     1       5.382   4.086  19.093  0.00  0.00    +0.000 C 
BRANCH  12  13
ATOM     13  O   UNL     1       4.441   3.067  18.765  0.00  0.00    +0.000 OA
BRANCH  13  20
ATOM     14  C   UNL     1       1.686   4.149  17.696  0.00  0.00    +0.000 C 
ATOM     15  C   UNL     1       1.989   3.545  19.042  0.00  0.00    +0.000 A 
ATOM     16  C   UNL     1       0.908   3.499  19.947  0.00  0.00    +0.000 A 
ATOM     17  C   UNL     1       1.060   3.025  21.244  0.00  0.00    +0.000 A 
ATOM     18  C   UNL     1       2.306   2.578  21.664  0.00  0.00    +0.000 A 
ATOM     19  C   UNL     1       3.392   2.611  20.782  0.00  0.00    +0.000 A 
ATOM     20  C   UNL     1       3.251   3.079  19.465  0.00  0.00    +0.000 A 
ENDBRANCH  13  20
ENDBRANCH  12  13
ENDBRANCH   1  12
TORSDOF 4
ENDMDL
MODEL 2
REMARK VINA RESULT:      -6.8      2.559      7.021
REMARK  Name = 
REMARK  6 active torsions:
REMARK  status: ('A' for Active; 'I' for Inactive)
REMARK    1  A    between atoms: C_1  and  C_2
REMARK    2  A    between atoms: C_7  and  O_8
REMARK    3  A    between atoms: O_8  and  C_9
REMARK    4  A    between atoms: C_9  and  C_10
REMARK    5  A    between atoms: C_10  and  N_11
REMARK    6  A    between atoms: C_15  and  C_16
REMARK                            x       y       z     vdW  Elec       q    Type
REMARK                         _______ _______ _______ _____ _____    ______ ____
ROOT
ATOM      1  C   UNL     1       6.075   4.701  17.670  0.00  0.00    +0.000 C 
ENDROOT
BRANCH   1   2
ATOM      2  N   UNL     1       4.729   5.089  17.186  0.00  0.00    +0.000 NA
ATOM      3  C   UNL     1       4.008   6.010  18.086  0.00  0.00    +0.000 C 
ATOM      4  C   UNL     1       3.583   5.384  19.423  0.00  0.00    +0.000 C 
ATOM      5  N   UNL     1       3.051   4.056  19.228  0.00  0.00    +0.000 N 
ATOM      6  C   UNL     1       2.450   3.219  20.121  0.00  0.00    +0.000 A 
ATOM      7  C   UNL     1       2.309   3.474  21.571  0.00  0.00    +0.000 C 
ATOM      8  N   UNL     1       2.073   2.132  19.478  0.00  0.00    +0.000 NA
ATOM      9  N   UNL     1       2.516   2.223  18.176  0.00  0.00    +0.000 NA
ATOM     10  C   UNL     1       3.157   3.364  18.052  0.00  0.00    +0.000 A 
ATOM     11  C   UNL     1       3.869   3.922  16.869  0.00  0.00    +0.000 C 
ENDBRANCH   1   2
BRANCH   1  12
ATOM     12  C   UNL     1       7.044   4.527  16.481  0.00  0.00    +0.000 C 
BRANCH  12  13
ATOM     13  O   UNL     1       6.736   5.377  15.380  0.00  0.00    +0.000 OA
BRANCH  13  20
ATOM     14  C   UNL     1       8.786   5.943  13.061  0.00  0.00    +0.000 C 
ATOM     15  C   UNL     1       7.614   4.997  13.056  0.00  0.00    +0.000 A 
ATOM     16  C   UNL     1       7.387   4.313  11.843  0.00  0.00    +0.000 A 
ATOM     17  C   UNL     1       6.305   3.458  11.678  0.00  0.00    +0.000 A 
ATOM     18  C   UNL     1       5.423   3.263  12.733  0.00  0.00    +0.000 A 
ATOM     19  C   UNL     1       5.630   3.929  13.946  0.00  0.00    +0.000 A 
ATOM     20  C   UNL     1       6.725   4.789  14.131  0.00  0.00    +0.000 A 
ENDBRANCH  13  20
ENDBRANCH  12  13
ENDBRANCH   1  12
TORSDOF 4
ENDMDL
MODEL 3
REMARK VINA RESULT:      -6.8      1.876      3.209
REMARK  Name = 
REMARK  6 active torsions:
REMARK  status: ('A' for Active; 'I' for Inactive)
REMARK    1  A    between atoms: C_1  and  C_2
REMARK    2  A    between atoms: C_7  and  O_8
REMARK    3  A    between atoms: O_8  and  C_9
REMARK    4  A    between atoms: C_9  and  C_10
REMARK    5  A    between atoms: C_10  and  N_11
REMARK    6  A    between atoms: C_15  and  C_16
REMARK                            x       y       z     vdW  Elec       q    Type
REMARK                         _______ _______ _______ _____ _____    ______ ____
ROOT
ATOM      1  C   UNL     1       3.367   4.615  17.188  0.00  0.00    +0.000 C 
ENDROOT
BRANCH   1   2
ATOM      2  N   UNL     1       4.567   3.776  17.418  0.00  0.00    +0.000 NA
ATOM      3  C   UNL     1       5.270   4.066  18.684  0.00  0.00    +0.000 C 
ATOM      4  C   UNL     1       5.957   5.440  18.725  0.00  0.00    +0.000 C 
ATOM      5  N   UNL     1       6.636   5.717  17.480  0.00  0.00    +0.000 N 
ATOM      6  C   UNL     1       7.465   6.750  17.152  0.00  0.00    +0.000 A 
ATOM      7  C   UNL     1       7.766   7.911  18.016  0.00  0.00    +0.000 C 
ATOM      8  N   UNL     1       7.897   6.555  15.923  0.00  0.00    +0.000 NA
ATOM      9  N   UNL     1       7.271   5.438  15.415  0.00  0.00    +0.000 NA
ATOM     10  C   UNL     1       6.467   4.973  16.345  0.00  0.00    +0.000 A 
ATOM     11  C   UNL     1       5.530   3.817  16.290  0.00  0.00    +0.000 C 
ENDBRANCH   1   2
BRANCH   1  12
ATOM     12  C   UNL     1       2.112   3.728  17.038  0.00  0.00    +0.000 C 
BRANCH  12  13
ATOM     13  O   UNL     1       1.090   4.043  17.981  0.00  0.00    +0.000 OA
BRANCH  13  20
ATOM     14  C   UNL     1       2.155   6.328  19.863  0.00  0.00    +0.000 C 
ATOM     15  C   UNL     1       1.896   4.885  20.208  0.00  0.00    +0.000 A 
ATOM     16  C   UNL     1       2.210   4.507  21.530  0.00  0.00    +0.000 A 
ATOM     17  C   UNL     1       2.080   3.194  21.965  0.00  0.00    +0.000 A 
ATOM     18  C   UNL     1       1.622   2.226  21.082  0.00  0.00    +0.000 A 
ATOM     19  C   UNL     1       1.301   2.578  19.766  0.00  0.00    +0.000 A 
ATOM     20  C   UNL     1       1.419   3.903  19.315  0.00  0.00    +0.000 A 
ENDBRANCH  13  20
ENDBRANCH  12  13
ENDBRANCH   1  12
TORSDOF 4
ENDMDL
MODEL 4
REMARK VINA RESULT:      -6.7      2.839      6.655
REMARK  Name = 
REMARK  6 active torsions:
REMARK  status: ('A' for Active; 'I' for Inactive)
REMARK    1  A    between atoms: C_1  and  C_2
REMARK    2  A    between atoms: C_7  and  O_8
REMARK    3  A    between atoms: O_8  and  C_9
REMARK    4  A    between atoms: C_9  and  C_10
REMARK    5  A    between atoms: C_10  and  N_11
REMARK    6  A    between atoms: C_15  and  C_16
REMARK                            x       y       z     vdW  Elec       q    Type
REMARK                         _______ _______ _______ _____ _____    ______ ____
ROOT
ATOM      1  C   UNL     1       3.126   6.221  18.400  0.00  0.00    +0.000 C 
ENDROOT
BRANCH   1   2
ATOM      2  N   UNL     1       2.954   4.900  17.752  0.00  0.00    +0.000 NA
ATOM      3  C   UNL     1       1.613   4.309  17.935  0.00  0.00    +0.000 C 
ATOM      4  C   UNL     1       1.302   3.883  19.378  0.00  0.00    +0.000 C 
ATOM      5  N   UNL     1       2.435   3.218  19.978  0.00  0.00    +0.000 N 
ATOM      6  C   UNL     1       2.533   2.577  21.178  0.00  0.00    +0.000 A 
ATOM      7  C   UNL     1       1.474   2.523  22.207  0.00  0.00    +0.000 C 
ATOM      8  N   UNL     1       3.746   2.070  21.276  0.00  0.00    +0.000 NA
ATOM      9  N   UNL     1       4.471   2.464  20.172  0.00  0.00    +0.000 NA
ATOM     10  C   UNL     1       3.685   3.206  19.423  0.00  0.00    +0.000 A 
ATOM     11  C   UNL     1       3.992   3.918  18.151  0.00  0.00    +0.000 C 
ENDBRANCH   1   2
BRANCH   1  12
ATOM     12  C   UNL     1       3.634   7.259  17.376  0.00  0.00    +0.000 C 
BRANCH  12  13
ATOM     13  O   UNL     1       5.053   7.402  17.383  0.00  0.00    +0.000 OA
BRANCH  13  20
ATOM     14  C   UNL     1       7.606   5.990  18.560  0.00  0.00    +0.000 C 
ATOM     15  C   UNL     1       6.922   5.727  17.245  0.00  0.00    +0.000 A 
ATOM     16  C   UNL     1       7.529   4.754  16.425  0.00  0.00    +0.000 A 
ATOM     17  C   UNL     1       7.040   4.456  15.159  0.00  0.00    +0.000 A 
ATOM     18  C   UNL     1       5.919   5.126  14.687  0.00  0.00    +0.000 A 
ATOM     19  C   UNL     1       5.298   6.093  15.485  0.00  0.00    +0.000 A 
ATOM     20  C   UNL     1       5.776   6.398  16.770  0.00  0.00    +0.000 A 
ENDBRANCH  13  20
ENDBRANCH  12  13
ENDBRANCH   1  12
TORSDOF 4
ENDMDL
MODEL 5
REMARK VINA RESULT:      -6.6      2.663      4.804
REMARK  Name = 
REMARK  6 active torsions:
REMARK  status: ('A' for Active; 'I' for Inactive)
REMARK    1  A    between atoms: C_1  and  C_2
REMARK    2  A    between atoms: C_7  and  O_8
REMARK    3  A    between atoms: O_8  and  C_9
REMARK    4  A    between atoms: C_9  and  C_10
REMARK    5  A    between atoms: C_10  and  N_11
REMARK    6  A    between atoms: C_15  and  C_16
REMARK                            x       y       z     vdW  Elec       q    Type
REMARK                         _______ _______ _______ _____ _____    ______ ____
ROOT
ATOM      1  C   UNL     1       3.810   4.375  16.809  0.00  0.00    +0.000 C 
ENDROOT
BRANCH   1   2
ATOM      2  N   UNL     1       4.749   5.422  17.277  0.00  0.00    +0.000 NA
ATOM      3  C   UNL     1       4.991   5.406  18.733  0.00  0.00    +0.000 C 
ATOM      4  C   UNL     1       3.776   5.813  19.580  0.00  0.00    +0.000 C 
ATOM      5  N   UNL     1       3.103   6.955  19.007  0.00  0.00    +0.000 N 
ATOM      6  C   UNL     1       2.076   7.702  19.507  0.00  0.00    +0.000 A 
ATOM      7  C   UNL     1       1.336   7.413  20.753  0.00  0.00    +0.000 C 
ATOM      8  N   UNL     1       1.830   8.681  18.660  0.00  0.00    +0.000 NA
ATOM      9  N   UNL     1       2.640   8.515  17.557  0.00  0.00    +0.000 NA
ATOM     10  C   UNL     1       3.363   7.434  17.753  0.00  0.00    +0.000 A 
ATOM     11  C   UNL     1       4.355   6.788  16.850  0.00  0.00    +0.000 C 
ENDBRANCH   1   2
BRANCH   1  12
ATOM     12  C   UNL     1       4.292   2.980  17.262  0.00  0.00    +0.000 C 
BRANCH  12  13
ATOM     13  O   UNL     1       3.235   2.155  17.747  0.00  0.00    +0.000 OA
BRANCH  13  20
ATOM     14  C   UNL     1       4.752   1.882  20.490  0.00  0.00    +0.000 C 
ATOM     15  C   UNL     1       3.352   2.379  20.248  0.00  0.00    +0.000 A 
ATOM     16  C   UNL     1       2.619   2.725  21.402  0.00  0.00    +0.000 A 
ATOM     17  C   UNL     1       1.295   3.139  21.331  0.00  0.00    +0.000 A 
ATOM     18  C   UNL     1       0.673   3.222  20.092  0.00  0.00    +0.000 A 
ATOM     19  C   UNL     1       1.382   2.887  18.933  0.00  0.00    +0.000 A 
ATOM     20  C   UNL     1       2.723   2.476  18.989  0.00  0.00    +0.000 A 
ENDBRANCH  13  20
ENDBRANCH  12  13
ENDBRANCH   1  12
TORSDOF 4
ENDMDL
MODEL 6
REMARK VINA RESULT:      -6.5      2.038      3.552
REMARK  Name = 
REMARK  6 active torsions:
REMARK  status: ('A' for Active; 'I' for Inactive)
REMARK    1  A    between atoms: C_1  and  C_2
REMARK    2  A    between atoms: C_7  and  O_8
REMARK    3  A    between atoms: O_8  and  C_9
REMARK    4  A    between atoms: C_9  and  C_10
REMARK    5  A    between atoms: C_10  and  N_11
REMARK    6  A    between atoms: C_15  and  C_16
REMARK                            x       y       z     vdW  Elec       q    Type
REMARK                         _______ _______ _______ _____ _____    ______ ____
ROOT
ATOM      1  C   UNL     1       3.638   4.772  17.053  0.00  0.00    +0.000 C 
ENDROOT
BRANCH   1   2
ATOM      2  N   UNL     1       4.754   4.757  16.077  0.00  0.00    +0.000 NA
ATOM      3  C   UNL     1       5.836   3.810  16.414  0.00  0.00    +0.000 C 
ATOM      4  C   UNL     1       6.646   4.195  17.661  0.00  0.00    +0.000 C 
ATOM      5  N   UNL     1       6.940   5.609  17.673  0.00  0.00    +0.000 N 
ATOM      6  C   UNL     1       7.735   6.326  18.518  0.00  0.00    +0.000 A 
ATOM      7  C   UNL     1       8.409   5.789  19.720  0.00  0.00    +0.000 C 
ATOM      8  N   UNL     1       7.749   7.578  18.107  0.00  0.00    +0.000 NA
ATOM      9  N   UNL     1       6.882   7.694  17.042  0.00  0.00    +0.000 NA
ATOM     10  C   UNL     1       6.354   6.509  16.826  0.00  0.00    +0.000 A 
ATOM     11  C   UNL     1       5.326   6.103  15.829  0.00  0.00    +0.000 C 
ENDBRANCH   1   2
BRANCH   1  12
ATOM     12  C   UNL     1       2.717   3.553  16.834  0.00  0.00    +0.000 C 
BRANCH  12  13
ATOM     13  O   UNL     1       2.980   2.484  17.741  0.00  0.00    +0.000 OA
BRANCH  13  20
ATOM     14  C   UNL     1       4.736   1.973  20.301  0.00  0.00    +0.000 C 
ATOM     15  C   UNL     1       3.315   2.464  20.232  0.00  0.00    +0.000 A 
ATOM     16  C   UNL     1       2.683   2.680  21.474  0.00  0.00    +0.000 A 
ATOM     17  C   UNL     1       1.353   3.074  21.559  0.00  0.00    +0.000 A 
ATOM     18  C   UNL     1       0.624   3.266  20.393  0.00  0.00    +0.000 A 
ATOM     19  C   UNL     1       1.231   3.060  19.150  0.00  0.00    +0.000 A 
ATOM     20  C   UNL     1       2.577   2.672  19.048  0.00  0.00    +0.000 A 
ENDBRANCH  13  20
ENDBRANCH  12  13
ENDBRANCH   1  12
TORSDOF 4
ENDMDL
MODEL 7
REMARK VINA RESULT:      -6.5      4.457      6.630
REMARK  Name = 
REMARK  6 active torsions:
REMARK  status: ('A' for Active; 'I' for Inactive)
REMARK    1  A    between atoms: C_1  and  C_2
REMARK    2  A    between atoms: C_7  and  O_8
REMARK    3  A    between atoms: O_8  and  C_9
REMARK    4  A    between atoms: C_9  and  C_10
REMARK    5  A    between atoms: C_10  and  N_11
REMARK    6  A    between atoms: C_15  and  C_16
REMARK                            x       y       z     vdW  Elec       q    Type
REMARK                         _______ _______ _______ _____ _____    ______ ____
ROOT
ATOM      1  C   UNL     1       3.534   6.452  18.339  0.00  0.00    +0.000 C 
ENDROOT
BRANCH   1   2
ATOM      2  N   UNL     1       3.407   5.161  17.623  0.00  0.00    +0.000 NA
ATOM      3  C   UNL     1       2.063   4.556  17.708  0.00  0.00    +0.000 C 
ATOM      4  C   UNL     1       1.680   4.062  19.111  0.00  0.00    +0.000 C 
ATOM      5  N   UNL     1       2.785   3.376  19.739  0.00  0.00    +0.000 N 
ATOM      6  C   UNL     1       2.824   2.682  20.913  0.00  0.00    +0.000 A 
ATOM      7  C   UNL     1       1.712   2.575  21.881  0.00  0.00    +0.000 C 
ATOM      8  N   UNL     1       4.034   2.177  21.052  0.00  0.00    +0.000 NA
ATOM      9  N   UNL     1       4.813   2.626  20.007  0.00  0.00    +0.000 NA
ATOM     10  C   UNL     1       4.062   3.397  19.252  0.00  0.00    +0.000 A 
ATOM     11  C   UNL     1       4.430   4.168  18.032  0.00  0.00    +0.000 C 
ENDBRANCH   1   2
BRANCH   1  12
ATOM     12  C   UNL     1       2.390   7.406  17.934  0.00  0.00    +0.000 C 
BRANCH  12  13
ATOM     13  O   UNL     1       2.508   8.700  18.521  0.00  0.00    +0.000 OA
BRANCH  13  20
ATOM     14  C   UNL     1       1.423   8.485  21.466  0.00  0.00    +0.000 C 
ATOM     15  C   UNL     1       0.807   9.211  20.300  0.00  0.00    +0.000 A 
ATOM     16  C   UNL     1      -0.431   9.837  20.555  0.00  0.00    +0.000 A 
ATOM     17  C   UNL     1      -1.140  10.490  19.554  0.00  0.00    +0.000 A 
ATOM     18  C   UNL     1      -0.618  10.535  18.269  0.00  0.00    +0.000 A 
ATOM     19  C   UNL     1       0.610   9.924  17.993  0.00  0.00    +0.000 A 
ATOM     20  C   UNL     1       1.343   9.269  18.996  0.00  0.00    +0.000 A 
ENDBRANCH  13  20
ENDBRANCH  12  13
ENDBRANCH   1  12
TORSDOF 4
ENDMDL
MODEL 8
REMARK VINA RESULT:      -6.5      2.844      6.555
REMARK  Name = 
REMARK  6 active torsions:
REMARK  status: ('A' for Active; 'I' for Inactive)
REMARK    1  A    between atoms: C_1  and  C_2
REMARK    2  A    between atoms: C_7  and  O_8
REMARK    3  A    between atoms: O_8  and  C_9
REMARK    4  A    between atoms: C_9  and  C_10
REMARK    5  A    between atoms: C_10  and  N_11
REMARK    6  A    between atoms: C_15  and  C_16
REMARK                            x       y       z     vdW  Elec       q    Type
REMARK                         _______ _______ _______ _____ _____    ______ ____
ROOT
ATOM      1  C   UNL     1       5.414   6.316  16.559  0.00  0.00    +0.000 C 
ENDROOT
BRANCH   1   2
ATOM      2  N   UNL     1       4.840   6.457  17.919  0.00  0.00    +0.000 NA
ATOM      3  C   UNL     1       5.405   5.519  18.910  0.00  0.00    +0.000 C 
ATOM      4  C   UNL     1       5.033   4.048  18.671  0.00  0.00    +0.000 C 
ATOM      5  N   UNL     1       3.640   3.916  18.314  0.00  0.00    +0.000 N 
ATOM      6  C   UNL     1       2.886   2.791  18.151  0.00  0.00    +0.000 A 
ATOM      7  C   UNL     1       3.396   1.405  18.205  0.00  0.00    +0.000 C 
ATOM      8  N   UNL     1       1.649   3.160  17.884  0.00  0.00    +0.000 NA
ATOM      9  N   UNL     1       1.619   4.534  17.780  0.00  0.00    +0.000 NA
ATOM     10  C   UNL     1       2.841   4.976  17.985  0.00  0.00    +0.000 A 
ATOM     11  C   UNL     1       3.359   6.371  17.935  0.00  0.00    +0.000 C 
ENDBRANCH   1   2
BRANCH   1  12
ATOM     12  C   UNL     1       6.662   5.408  16.594  0.00  0.00    +0.000 C 
BRANCH  12  13
ATOM     13  O   UNL     1       7.515   5.589  15.466  0.00  0.00    +0.000 OA
BRANCH  13  20
ATOM     14  C   UNL     1       8.771   6.038  12.617  0.00  0.00    +0.000 C 
ATOM     15  C   UNL     1       7.685   5.073  13.012  0.00  0.00    +0.000 A 
ATOM     16  C   UNL     1       7.138   4.307  11.962  0.00  0.00    +0.000 A 
ATOM     17  C   UNL     1       6.087   3.422  12.173  0.00  0.00    +0.000 A 
ATOM     18  C   UNL     1       5.563   3.281  13.451  0.00  0.00    +0.000 A 
ATOM     19  C   UNL     1       6.092   4.028  14.508  0.00  0.00    +0.000 A 
ATOM     20  C   UNL     1       7.160   4.919  14.312  0.00  0.00    +0.000 A 
ENDBRANCH  13  20
ENDBRANCH  12  13
ENDBRANCH   1  12
TORSDOF 4
ENDMDL
MODEL 9
REMARK VINA RESULT:      -6.5      3.158      6.178
REMARK  Name = 
REMARK  6 active torsions:
REMARK  status: ('A' for Active; 'I' for Inactive)
REMARK    1  A    between atoms: C_1  and  C_2
REMARK    2  A    between atoms: C_7  and  O_8
REMARK    3  A    between atoms: O_8  and  C_9
REMARK    4  A    between atoms: C_9  and  C_10
REMARK    5  A    between atoms: C_10  and  N_11
REMARK    6  A    between atoms: C_15  and  C_16
REMARK                            x       y       z     vdW  Elec       q    Type
REMARK                         _______ _______ _______ _____ _____    ______ ____
ROOT
ATOM      1  C   UNL     1       2.625   6.312  19.377  0.00  0.00    +0.000 C 
ENDROOT
BRANCH   1   2
ATOM      2  N   UNL     1       1.565   5.285  19.507  0.00  0.00    +0.000 NA
ATOM      3  C   UNL     1       1.581   4.563  20.795  0.00  0.00    +0.000 C 
ATOM      4  C   UNL     1       2.797   3.644  20.989  0.00  0.00    +0.000 C 
ATOM      5  N   UNL     1       3.086   2.905  19.782  0.00  0.00    +0.000 N 
ATOM      6  C   UNL     1       3.984   1.901  19.571  0.00  0.00    +0.000 A 
ATOM      7  C   UNL     1       4.969   1.412  20.559  0.00  0.00    +0.000 C 
ATOM      8  N   UNL     1       3.856   1.489  18.325  0.00  0.00    +0.000 NA
ATOM      9  N   UNL     1       2.932   2.295  17.696  0.00  0.00    +0.000 NA
ATOM     10  C   UNL     1       2.517   3.184  18.570  0.00  0.00    +0.000 A 
ATOM     11  C   UNL     1       1.561   4.311  18.387  0.00  0.00    +0.000 C 
ENDBRANCH   1   2
BRANCH   1  12
ATOM     12  C   UNL     1       2.903   6.613  17.889  0.00  0.00    +0.000 C 
BRANCH  12  13
ATOM     13  O   UNL     1       4.231   7.074  17.650  0.00  0.00    +0.000 OA
BRANCH  13  20
ATOM     14  C   UNL     1       6.144   5.209  19.311  0.00  0.00    +0.000 C 
ATOM     15  C   UNL     1       5.995   5.291  17.815  0.00  0.00    +0.000 A 
ATOM     16  C   UNL     1       6.852   4.455  17.069  0.00  0.00    +0.000 A 
ATOM     17  C   UNL     1       6.865   4.475  15.680  0.00  0.00    +0.000 A 
ATOM     18  C   UNL     1       6.009   5.333  15.003  0.00  0.00    +0.000 A 
ATOM     19  C   UNL     1       5.148   6.170  15.722  0.00  0.00    +0.000 A 
ATOM     20  C   UNL     1       5.117   6.154  17.126  0.00  0.00    +0.000 A 
ENDBRANCH  13  20
ENDBRANCH  12  13
ENDBRANCH   1  12
TORSDOF 4
ENDMDL
