MODEL 1
REMARK VINA RESULT:      -7.8      0.000      0.000
REMARK  Name = 
REMARK  7 active torsions:
REMARK  status: ('A' for Active; 'I' for Inactive)
REMARK    1  A    between atoms: C_1  and  O_2
REMARK    2  A    between atoms: O_2  and  C_3
REMARK    3  A    between atoms: C_12  and  C_13
REMARK    4  A    between atoms: C_13  and  C_14
REMARK    5  A    between atoms: C_14  and  O_15
REMARK    6  A    between atoms: N_17  and  C_18
REMARK    7  A    between atoms: C_24  and  C_25
REMARK                            x       y       z     vdW  Elec       q    Type
REMARK                         _______ _______ _______ _____ _____    ______ ____
ROOT
ATOM      1  C   UNL     1       1.522   8.964  19.393  0.00  0.00    +0.000 A 
ATOM      2  C   UNL     1       2.024   9.615  18.257  0.00  0.00    +0.000 A 
ATOM      3  C   UNL     1       2.769   8.909  17.329  0.00  0.00    +0.000 A 
ATOM      4  C   UNL     1       3.057   7.567  17.560  0.00  0.00    +0.000 A 
ATOM      5  C   UNL     1       2.707   6.939  18.776  0.00  0.00    +0.000 A 
ATOM      6  C   UNL     1       1.866   7.630  19.687  0.00  0.00    +0.000 A 
ATOM      7  N   UNL     1       1.386   7.035  20.798  0.00  0.00    +0.000 NA
ATOM      8  C   UNL     1       1.700   5.760  21.100  0.00  0.00    +0.000 A 
ATOM      9  C   UNL     1       2.597   5.027  20.318  0.00  0.00    +0.000 A 
ATOM     10  C   UNL     1       3.110   3.703  20.438  0.00  0.00    +0.000 A 
ATOM     11  C   UNL     1       4.022   3.554  19.424  0.00  0.00    +0.000 A 
ATOM     12  N   UNL     1       4.058   4.683  18.632  0.00  0.00    +0.000 N 
ATOM     13  C   UNL     1       3.149   5.620  19.166  0.00  0.00    +0.000 A 
ENDROOT
BRANCH  12  14
ATOM     14  C   UNL     1       5.000   4.831  17.560  0.00  0.00    +0.000 A 
ATOM     15  C   UNL     1       4.579   4.505  16.254  0.00  0.00    +0.000 A 
ATOM     16  C   UNL     1       5.471   4.550  15.182  0.00  0.00    +0.000 A 
ATOM     17  C   UNL     1       6.761   5.003  15.390  0.00  0.00    +0.000 A 
ATOM     18  F   UNL     1       7.622   5.047  14.365  0.00  0.00    +0.000 F 
ATOM     19  C   UNL     1       7.178   5.413  16.650  0.00  0.00    +0.000 A 
ATOM     20  C   UNL     1       6.316   5.323  17.762  0.00  0.00    +0.000 A 
ATOM     21  C   UNL     1       6.907   5.697  19.098  0.00  0.00    +0.000 C 
ENDBRANCH  12  14
BRANCH   1  23
ATOM     22  C   UNL     1      -0.473  10.203  19.739  0.00  0.00    +0.000 C 
ATOM     23  O   UNL     1       0.705   9.622  20.293  0.00  0.00    +0.000 OA
ENDBRANCH   1  23
BRANCH  10  24
ATOM     24  C   UNL     1       2.778   2.669  21.476  0.00  0.00    +0.000 C 
BRANCH  24  25
ATOM     25  C   UNL     1       1.275   2.453  21.658  0.00  0.00    +0.000 C 
BRANCH  25  26
ATOM     26  O   UNL     1       0.574   2.624  20.432  0.00  0.00    +0.000 OA
ATOM     27  H   UNL     1       1.219   2.491  19.713  0.00  0.00    +0.000 HD
ENDBRANCH  25  26
ENDBRANCH  24  25
ENDBRANCH  10  24
TORSDOF 5
ENDMDL
MODEL 2
REMARK VINA RESULT:      -7.5      1.455      1.586
REMARK  Name = 
REMARK  7 active torsions:
REMARK  status: ('A' for Active; 'I' for Inactive)
REMARK    1  A    between atoms: C_1  and  O_2
REMARK    2  A    between atoms: O_2  and  C_3
REMARK    3  A    between atoms: C_12  and  C_13
REMARK    4  A    between atoms: C_13  and  C_14
REMARK    5  A    between atoms: C_14  and  O_15
REMARK    6  A    between atoms: N_17  and  C_18
REMARK    7  A    between atoms: C_24  and  C_25
REMARK                            x       y       z     vdW  Elec       q    Type
REMARK                         _______ _______ _______ _____ _____    ______ ____
ROOT
ATOM      1  C   UNL     1       1.700   8.173  19.639  0.00  0.00    +0.000 A 
ATOM      2  C   UNL     1       2.007   8.958  18.519  0.00  0.00    +0.000 A 
ATOM      3  C   UNL     1       2.711   8.408  17.463  0.00  0.00    +0.000 A 
ATOM      4  C   UNL     1       3.154   7.091  17.546  0.00  0.00    +0.000 A 
ATOM      5  C   UNL     1       3.003   6.339  18.733  0.00  0.00    +0.000 A 
ATOM      6  C   UNL     1       2.203   6.865  19.780  0.00  0.00    +0.000 A 
ATOM      7  N   UNL     1       1.909   6.141  20.879  0.00  0.00    +0.000 NA
ATOM      8  C   UNL     1       2.378   4.887  21.036  0.00  0.00    +0.000 A 
ATOM      9  C   UNL     1       3.251   4.315  20.107  0.00  0.00    +0.000 A 
ATOM     10  C   UNL     1       3.902   3.048  20.059  0.00  0.00    +0.000 A 
ATOM     11  C   UNL     1       4.708   3.075  18.949  0.00  0.00    +0.000 A 
ATOM     12  N   UNL     1       4.545   4.257  18.258  0.00  0.00    +0.000 N 
ATOM     13  C   UNL     1       3.613   5.049  18.960  0.00  0.00    +0.000 A 
ENDROOT
BRANCH  12  14
ATOM     14  C   UNL     1       5.345   4.587  17.112  0.00  0.00    +0.000 A 
ATOM     15  C   UNL     1       4.896   4.163  15.844  0.00  0.00    +0.000 A 
ATOM     16  C   UNL     1       5.668   4.381  14.703  0.00  0.00    +0.000 A 
ATOM     17  C   UNL     1       6.848   5.096  14.806  0.00  0.00    +0.000 A 
ATOM     18  F   UNL     1       7.595   5.306  13.714  0.00  0.00    +0.000 F 
ATOM     19  C   UNL     1       7.271   5.599  16.029  0.00  0.00    +0.000 A 
ATOM     20  C   UNL     1       6.541   5.345  17.208  0.00  0.00    +0.000 A 
ATOM     21  C   UNL     1       7.147   5.850  18.493  0.00  0.00    +0.000 C 
ENDBRANCH  12  14
BRANCH   1  23
ATOM     22  C   UNL     1       0.002   9.693  20.306  0.00  0.00    +0.000 C 
ATOM     23  O   UNL     1       0.926   8.670  20.671  0.00  0.00    +0.000 OA
ENDBRANCH   1  23
BRANCH  10  24
ATOM     24  C   UNL     1       3.789   1.909  21.032  0.00  0.00    +0.000 C 
BRANCH  24  25
ATOM     25  C   UNL     1       4.946   0.914  20.938  0.00  0.00    +0.000 C 
BRANCH  25  26
ATOM     26  O   UNL     1       5.828   1.038  22.047  0.00  0.00    +0.000 OA
ATOM     27  H   UNL     1       5.451   0.509  22.773  0.00  0.00    +0.000 HD
ENDBRANCH  25  26
ENDBRANCH  24  25
ENDBRANCH  10  24
TORSDOF 5
ENDMDL
MODEL 3
REMARK VINA RESULT:      -7.2      3.159      5.403
REMARK  Name = 
REMARK  7 active torsions:
REMARK  status: ('A' for Active; 'I' for Inactive)
REMARK    1  A    between atoms: C_1  and  O_2
REMARK    2  A    between atoms: O_2  and  C_3
REMARK    3  A    between atoms: C_12  and  C_13
REMARK    4  A    between atoms: C_13  and  C_14
REMARK    5  A    between atoms: C_14  and  O_15
REMARK    6  A    between atoms: N_17  and  C_18
REMARK    7  A    between atoms: C_24  and  C_25
REMARK                            x       y       z     vdW  Elec       q    Type
REMARK                         _______ _______ _______ _____ _____    ______ ____
ROOT
ATOM      1  C   UNL     1       0.477  10.127  19.876  0.00  0.00    +0.000 A 
ATOM      2  C   UNL     1      -0.222   9.651  20.994  0.00  0.00    +0.000 A 
ATOM      3  C   UNL     1       0.085   8.411  21.524  0.00  0.00    +0.000 A 
ATOM      4  C   UNL     1       1.053   7.623  20.908  0.00  0.00    +0.000 A 
ATOM      5  C   UNL     1       1.647   8.011  19.686  0.00  0.00    +0.000 A 
ATOM      6  C   UNL     1       1.403   9.318  19.190  0.00  0.00    +0.000 A 
ATOM      7  N   UNL     1       2.046   9.794  18.104  0.00  0.00    +0.000 NA
ATOM      8  C   UNL     1       2.938   9.039  17.432  0.00  0.00    +0.000 A 
ATOM      9  C   UNL     1       3.175   7.708  17.784  0.00  0.00    +0.000 A 
ATOM     10  C   UNL     1       4.023   6.708  17.225  0.00  0.00    +0.000 A 
ATOM     11  C   UNL     1       3.779   5.561  17.937  0.00  0.00    +0.000 A 
ATOM     12  N   UNL     1       2.880   5.801  18.955  0.00  0.00    +0.000 N 
ATOM     13  C   UNL     1       2.500   7.158  18.891  0.00  0.00    +0.000 A 
ENDROOT
BRANCH  12  14
ATOM     14  C   UNL     1       2.373   4.749  19.789  0.00  0.00    +0.000 A 
ATOM     15  C   UNL     1       2.769   4.723  21.142  0.00  0.00    +0.000 A 
ATOM     16  C   UNL     1       2.376   3.681  21.983  0.00  0.00    +0.000 A 
ATOM     17  C   UNL     1       1.519   2.708  21.504  0.00  0.00    +0.000 A 
ATOM     18  F   UNL     1       1.141   1.703  22.306  0.00  0.00    +0.000 F 
ATOM     19  C   UNL     1       1.045   2.754  20.199  0.00  0.00    +0.000 A 
ATOM     20  C   UNL     1       1.471   3.763  19.311  0.00  0.00    +0.000 A 
ATOM     21  C   UNL     1       0.974   3.656  17.891  0.00  0.00    +0.000 C 
ENDBRANCH  12  14
BRANCH   1  23
ATOM     22  C   UNL     1       0.368  12.456  20.322  0.00  0.00    +0.000 C 
ATOM     23  O   UNL     1       0.251  11.396  19.377  0.00  0.00    +0.000 OA
ENDBRANCH   1  23
BRANCH  10  24
ATOM     24  C   UNL     1       4.970   6.835  16.066  0.00  0.00    +0.000 C 
BRANCH  24  25
ATOM     25  C   UNL     1       5.952   5.668  15.954  0.00  0.00    +0.000 C 
BRANCH  25  26
ATOM     26  O   UNL     1       7.290   6.092  16.186  0.00  0.00    +0.000 OA
ATOM     27  H   UNL     1       7.753   6.055  15.329  0.00  0.00    +0.000 HD
ENDBRANCH  25  26
ENDBRANCH  24  25
ENDBRANCH  10  24
TORSDOF 5
ENDMDL
MODEL 4
REMARK VINA RESULT:      -7.0      2.768      5.622
REMARK  Name = 
REMARK  7 active torsions:
REMARK  status: ('A' for Active; 'I' for Inactive)
REMARK    1  A    between atoms: C_1  and  O_2
REMARK    2  A    between atoms: O_2  and  C_3
REMARK    3  A    between atoms: C_12  and  C_13
REMARK    4  A    between atoms: C_13  and  C_14
REMARK    5  A    between atoms: C_14  and  O_15
REMARK    6  A    between atoms: N_17  and  C_18
REMARK    7  A    between atoms: C_24  and  C_25
REMARK                            x       y       z     vdW  Elec       q    Type
REMARK                         _______ _______ _______ _____ _____    ______ ____
ROOT
ATOM      1  C   UNL     1       5.358   4.860  16.057  0.00  0.00    +0.000 A 
ATOM      2  C   UNL     1       5.404   6.072  15.354  0.00  0.00    +0.000 A 
ATOM      3  C   UNL     1       4.869   7.217  15.915  0.00  0.00    +0.000 A 
ATOM      4  C   UNL     1       4.241   7.143  17.156  0.00  0.00    +0.000 A 
ATOM      5  C   UNL     1       4.034   5.903  17.801  0.00  0.00    +0.000 A 
ATOM      6  C   UNL     1       4.660   4.744  17.275  0.00  0.00    +0.000 A 
ATOM      7  N   UNL     1       4.613   3.560  17.919  0.00  0.00    +0.000 NA
ATOM      8  C   UNL     1       3.953   3.425  19.087  0.00  0.00    +0.000 A 
ATOM      9  C   UNL     1       3.225   4.483  19.638  0.00  0.00    +0.000 A 
ATOM     10  C   UNL     1       2.430   4.585  20.816  0.00  0.00    +0.000 A 
ATOM     11  C   UNL     1       1.888   5.846  20.801  0.00  0.00    +0.000 A 
ATOM     12  N   UNL     1       2.354   6.564  19.720  0.00  0.00    +0.000 N 
ATOM     13  C   UNL     1       3.218   5.728  18.981  0.00  0.00    +0.000 A 
ENDROOT
BRANCH  12  14
ATOM     14  C   UNL     1       1.867   7.878  19.410  0.00  0.00    +0.000 A 
ATOM     15  C   UNL     1       1.833   8.273  18.057  0.00  0.00    +0.000 A 
ATOM     16  C   UNL     1       1.447   9.565  17.699  0.00  0.00    +0.000 A 
ATOM     17  C   UNL     1       1.011  10.440  18.676  0.00  0.00    +0.000 A 
ATOM     18  F   UNL     1       0.642  11.683  18.338  0.00  0.00    +0.000 F 
ATOM     19  C   UNL     1       0.953  10.049  20.008  0.00  0.00    +0.000 A 
ATOM     20  C   UNL     1       1.391   8.770  20.407  0.00  0.00    +0.000 A 
ATOM     21  C   UNL     1       1.381   8.491  21.888  0.00  0.00    +0.000 C 
ENDBRANCH  12  14
BRANCH   1  23
ATOM     22  C   UNL     1       6.348   3.782  14.188  0.00  0.00    +0.000 C 
ATOM     23  O   UNL     1       5.958   3.719  15.558  0.00  0.00    +0.000 OA
ENDBRANCH   1  23
BRANCH  10  24
ATOM     24  C   UNL     1       2.178   3.535  21.860  0.00  0.00    +0.000 C 
BRANCH  24  25
ATOM     25  C   UNL     1       1.202   2.449  21.406  0.00  0.00    +0.000 C 
BRANCH  25  26
ATOM     26  O   UNL     1       0.404   2.893  20.315  0.00  0.00    +0.000 OA
ATOM     27  H   UNL     1       1.004   3.322  19.678  0.00  0.00    +0.000 HD
ENDBRANCH  25  26
ENDBRANCH  24  25
ENDBRANCH  10  24
TORSDOF 5
ENDMDL
MODEL 5
REMARK VINA RESULT:      -6.9      0.774      1.515
REMARK  Name = 
REMARK  7 active torsions:
REMARK  status: ('A' for Active; 'I' for Inactive)
REMARK    1  A    between atoms: C_1  and  O_2
REMARK    2  A    between atoms: O_2  and  C_3
REMARK    3  A    between atoms: C_12  and  C_13
REMARK    4  A    between atoms: C_13  and  C_14
REMARK    5  A    between atoms: C_14  and  O_15
REMARK    6  A    between atoms: N_17  and  C_18
REMARK    7  A    between atoms: C_24  and  C_25
REMARK                            x       y       z     vdW  Elec       q    Type
REMARK                         _______ _______ _______ _____ _____    ______ ____
ROOT
ATOM      1  C   UNL     1       1.286   9.614  19.350  0.00  0.00    +0.000 A 
ATOM      2  C   UNL     1       1.832  10.152  18.177  0.00  0.00    +0.000 A 
ATOM      3  C   UNL     1       2.559   9.346  17.320  0.00  0.00    +0.000 A 
ATOM      4  C   UNL     1       2.786   8.015  17.659  0.00  0.00    +0.000 A 
ATOM      5  C   UNL     1       2.390   7.499  18.914  0.00  0.00    +0.000 A 
ATOM      6  C   UNL     1       1.567   8.294  19.753  0.00  0.00    +0.000 A 
ATOM      7  N   UNL     1       1.046   7.808  20.898  0.00  0.00    +0.000 NA
ATOM      8  C   UNL     1       1.300   6.548  21.303  0.00  0.00    +0.000 A 
ATOM      9  C   UNL     1       2.175   5.719  20.597  0.00  0.00    +0.000 A 
ATOM     10  C   UNL     1       2.628   4.388  20.829  0.00  0.00    +0.000 A 
ATOM     11  C   UNL     1       3.548   4.122  19.845  0.00  0.00    +0.000 A 
ATOM     12  N   UNL     1       3.644   5.183  18.969  0.00  0.00    +0.000 N 
ATOM     13  C   UNL     1       2.769   6.197  19.413  0.00  0.00    +0.000 A 
ENDROOT
BRANCH  12  14
ATOM     14  C   UNL     1       4.608   5.207  17.906  0.00  0.00    +0.000 A 
ATOM     15  C   UNL     1       5.731   6.049  18.045  0.00  0.00    +0.000 A 
ATOM     16  C   UNL     1       6.660   6.178  17.013  0.00  0.00    +0.000 A 
ATOM     17  C   UNL     1       6.522   5.407  15.873  0.00  0.00    +0.000 A 
ATOM     18  F   UNL     1       7.410   5.530  14.877  0.00  0.00    +0.000 F 
ATOM     19  C   UNL     1       5.472   4.507  15.745  0.00  0.00    +0.000 A 
ATOM     20  C   UNL     1       4.487   4.397  16.747  0.00  0.00    +0.000 A 
ATOM     21  C   UNL     1       3.338   3.464  16.456  0.00  0.00    +0.000 C 
ENDBRANCH  12  14
BRANCH   1  23
ATOM     22  C   UNL     1      -0.821  10.654  19.686  0.00  0.00    +0.000 C 
ATOM     23  O   UNL     1       0.486  10.374  20.182  0.00  0.00    +0.000 OA
ENDBRANCH   1  23
BRANCH  10  24
ATOM     24  C   UNL     1       2.236   3.453  21.937  0.00  0.00    +0.000 C 
BRANCH  24  25
ATOM     25  C   UNL     1       1.191   2.419  21.517  0.00  0.00    +0.000 C 
BRANCH  25  26
ATOM     26  O   UNL     1       0.392   2.896  20.442  0.00  0.00    +0.000 OA
ATOM     27  H   UNL     1      -0.423   2.361  20.432  0.00  0.00    +0.000 HD
ENDBRANCH  25  26
ENDBRANCH  24  25
ENDBRANCH  10  24
TORSDOF 5
ENDMDL
MODEL 6
REMARK VINA RESULT:      -6.7      1.385      4.674
REMARK  Name = 
REMARK  7 active torsions:
REMARK  status: ('A' for Active; 'I' for Inactive)
REMARK    1  A    between atoms: C_1  and  O_2
REMARK    2  A    between atoms: O_2  and  C_3
REMARK    3  A    between atoms: C_12  and  C_13
REMARK    4  A    between atoms: C_13  and  C_14
REMARK    5  A    between atoms: C_14  and  O_15
REMARK    6  A    between atoms: N_17  and  C_18
REMARK    7  A    between atoms: C_24  and  C_25
REMARK                            x       y       z     vdW  Elec       q    Type
REMARK                         _______ _______ _______ _____ _____    ______ ____
ROOT
ATOM      1  C   UNL     1       2.944   3.409  21.080  0.00  0.00    +0.000 A 
ATOM      2  C   UNL     1       3.826   2.384  20.713  0.00  0.00    +0.000 A 
ATOM      3  C   UNL     1       4.767   2.603  19.723  0.00  0.00    +0.000 A 
ATOM      4  C   UNL     1       4.794   3.828  19.062  0.00  0.00    +0.000 A 
ATOM      5  C   UNL     1       3.807   4.811  19.299  0.00  0.00    +0.000 A 
ATOM      6  C   UNL     1       2.900   4.627  20.374  0.00  0.00    +0.000 A 
ATOM      7  N   UNL     1       2.026   5.589  20.735  0.00  0.00    +0.000 NA
ATOM      8  C   UNL     1       1.966   6.763  20.076  0.00  0.00    +0.000 A 
ATOM      9  C   UNL     1       2.750   7.003  18.945  0.00  0.00    +0.000 A 
ATOM     10  C   UNL     1       2.847   8.122  18.068  0.00  0.00    +0.000 A 
ATOM     11  C   UNL     1       3.726   7.757  17.080  0.00  0.00    +0.000 A 
ATOM     12  N   UNL     1       4.240   6.501  17.325  0.00  0.00    +0.000 N 
ATOM     13  C   UNL     1       3.653   6.013  18.511  0.00  0.00    +0.000 A 
ENDROOT
BRANCH  12  14
ATOM     14  C   UNL     1       5.106   5.837  16.393  0.00  0.00    +0.000 A 
ATOM     15  C   UNL     1       4.516   5.083  15.358  0.00  0.00    +0.000 A 
ATOM     16  C   UNL     1       5.303   4.349  14.470  0.00  0.00    +0.000 A 
ATOM     17  C   UNL     1       6.681   4.431  14.554  0.00  0.00    +0.000 A 
ATOM     18  F   UNL     1       7.441   3.726  13.706  0.00  0.00    +0.000 F 
ATOM     19  C   UNL     1       7.290   5.234  15.510  0.00  0.00    +0.000 A 
ATOM     20  C   UNL     1       6.521   5.941  16.457  0.00  0.00    +0.000 A 
ATOM     21  C   UNL     1       7.288   6.698  17.512  0.00  0.00    +0.000 C 
ENDBRANCH  12  14
BRANCH   1  23
ATOM     22  C   UNL     1       1.031   2.274  21.909  0.00  0.00    +0.000 C 
ATOM     23  O   UNL     1       2.051   3.247  22.122  0.00  0.00    +0.000 OA
ENDBRANCH   1  23
BRANCH  10  24
ATOM     24  C   UNL     1       2.118   9.433  18.151  0.00  0.00    +0.000 C 
BRANCH  24  25
ATOM     25  C   UNL     1       0.632   9.324  17.806  0.00  0.00    +0.000 C 
BRANCH  25  26
ATOM     26  O   UNL     1       0.004  10.600  17.807  0.00  0.00    +0.000 OA
ATOM     27  H   UNL     1       0.615  11.218  18.250  0.00  0.00    +0.000 HD
ENDBRANCH  25  26
ENDBRANCH  24  25
ENDBRANCH  10  24
TORSDOF 5
ENDMDL
MODEL 7
REMARK VINA RESULT:      -6.7      3.159      5.240
REMARK  Name = 
REMARK  7 active torsions:
REMARK  status: ('A' for Active; 'I' for Inactive)
REMARK    1  A    between atoms: C_1  and  O_2
REMARK    2  A    between atoms: O_2  and  C_3
REMARK    3  A    between atoms: C_12  and  C_13
REMARK    4  A    between atoms: C_13  and  C_14
REMARK    5  A    between atoms: C_14  and  O_15
REMARK    6  A    between atoms: N_17  and  C_18
REMARK    7  A    between atoms: C_24  and  C_25
REMARK                            x       y       z     vdW  Elec       q    Type
REMARK                         _______ _______ _______ _____ _____    ______ ____
ROOT
ATOM      1  C   UNL     1       2.234   9.146  18.270  0.00  0.00    +0.000 A 
ATOM      2  C   UNL     1       1.463   9.142  19.440  0.00  0.00    +0.000 A 
ATOM      3  C   UNL     1       1.490   8.044  20.281  0.00  0.00    +0.000 A 
ATOM      4  C   UNL     1       2.246   6.929  19.929  0.00  0.00    +0.000 A 
ATOM      5  C   UNL     1       2.893   6.847  18.675  0.00  0.00    +0.000 A 
ATOM      6  C   UNL     1       2.943   8.003  17.853  0.00  0.00    +0.000 A 
ATOM      7  N   UNL     1       3.660   8.028  16.711  0.00  0.00    +0.000 NA
ATOM      8  C   UNL     1       4.348   6.947  16.293  0.00  0.00    +0.000 A 
ATOM      9  C   UNL     1       4.284   5.733  16.982  0.00  0.00    +0.000 A 
ATOM     10  C   UNL     1       4.875   4.460  16.734  0.00  0.00    +0.000 A 
ATOM     11  C   UNL     1       4.389   3.619  17.703  0.00  0.00    +0.000 A 
ATOM     12  N   UNL     1       3.584   4.307  18.586  0.00  0.00    +0.000 N 
ATOM     13  C   UNL     1       3.519   5.651  18.162  0.00  0.00    +0.000 A 
ENDROOT
BRANCH  12  14
ATOM     14  C   UNL     1       2.865   3.645  19.637  0.00  0.00    +0.000 A 
ATOM     15  C   UNL     1       1.493   3.932  19.788  0.00  0.00    +0.000 A 
ATOM     16  C   UNL     1       0.759   3.383  20.840  0.00  0.00    +0.000 A 
ATOM     17  C   UNL     1       1.365   2.479  21.694  0.00  0.00    +0.000 A 
ATOM     18  F   UNL     1       0.666   1.951  22.707  0.00  0.00    +0.000 F 
ATOM     19  C   UNL     1       2.693   2.112  21.517  0.00  0.00    +0.000 A 
ATOM     20  C   UNL     1       3.475   2.694  20.498  0.00  0.00    +0.000 A 
ATOM     21  C   UNL     1       4.930   2.300  20.463  0.00  0.00    +0.000 C 
ENDBRANCH  12  14
BRANCH   1  23
ATOM     22  C   UNL     1       2.274  11.516  18.131  0.00  0.00    +0.000 C 
ATOM     23  O   UNL     1       2.292  10.260  17.455  0.00  0.00    +0.000 OA
ENDBRANCH   1  23
BRANCH  10  24
ATOM     24  C   UNL     1       5.809   4.070  15.624  0.00  0.00    +0.000 C 
BRANCH  24  25
ATOM     25  C   UNL     1       7.207   4.672  15.767  0.00  0.00    +0.000 C 
BRANCH  25  26
ATOM     26  O   UNL     1       7.891   4.132  16.892  0.00  0.00    +0.000 OA
ATOM     27  H   UNL     1       7.470   3.279  17.099  0.00  0.00    +0.000 HD
ENDBRANCH  25  26
ENDBRANCH  24  25
ENDBRANCH  10  24
TORSDOF 5
ENDMDL
MODEL 8
REMARK VINA RESULT:      -6.7      4.956      7.986
REMARK  Name = 
REMARK  7 active torsions:
REMARK  status: ('A' for Active; 'I' for Inactive)
REMARK    1  A    between atoms: C_1  and  O_2
REMARK    2  A    between atoms: O_2  and  C_3
REMARK    3  A    between atoms: C_12  and  C_13
REMARK    4  A    between atoms: C_13  and  C_14
REMARK    5  A    between atoms: C_14  and  O_15
REMARK    6  A    between atoms: N_17  and  C_18
REMARK    7  A    between atoms: C_24  and  C_25
REMARK                            x       y       z     vdW  Elec       q    Type
REMARK                         _______ _______ _______ _____ _____    ______ ____
ROOT
ATOM      1  C   UNL     1      -4.386  11.596  17.499  0.00  0.00    +0.000 A 
ATOM      2  C   UNL     1      -4.039  10.643  16.533  0.00  0.00    +0.000 A 
ATOM      3  C   UNL     1      -2.955   9.809  16.743  0.00  0.00    +0.000 A 
ATOM      4  C   UNL     1      -2.187   9.961  17.894  0.00  0.00    +0.000 A 
ATOM      5  C   UNL     1      -2.418  11.024  18.796  0.00  0.00    +0.000 A 
ATOM      6  C   UNL     1      -3.580  11.822  18.632  0.00  0.00    +0.000 A 
ATOM      7  N   UNL     1      -3.926  12.761  19.535  0.00  0.00    +0.000 NA
ATOM      8  C   UNL     1      -3.172  12.993  20.628  0.00  0.00    +0.000 A 
ATOM      9  C   UNL     1      -1.960  12.328  20.830  0.00  0.00    +0.000 A 
ATOM     10  C   UNL     1      -0.980  12.416  21.861  0.00  0.00    +0.000 A 
ATOM     11  C   UNL     1       0.043  11.582  21.487  0.00  0.00    +0.000 A 
ATOM     12  N   UNL     1      -0.270  10.922  20.317  0.00  0.00    +0.000 N 
ATOM     13  C   UNL     1      -1.541  11.363  19.894  0.00  0.00    +0.000 A 
ENDROOT
BRANCH  12  14
ATOM     14  C   UNL     1       0.670  10.065  19.651  0.00  0.00    +0.000 A 
ATOM     15  C   UNL     1       1.238  10.515  18.442  0.00  0.00    +0.000 A 
ATOM     16  C   UNL     1       2.095   9.695  17.706  0.00  0.00    +0.000 A 
ATOM     17  C   UNL     1       2.457   8.461  18.213  0.00  0.00    +0.000 A 
ATOM     18  F   UNL     1       3.277   7.669  17.509  0.00  0.00    +0.000 F 
ATOM     19  C   UNL     1       1.979   8.028  19.443  0.00  0.00    +0.000 A 
ATOM     20  C   UNL     1       1.067   8.810  20.181  0.00  0.00    +0.000 A 
ATOM     21  C   UNL     1       0.535   8.196  21.452  0.00  0.00    +0.000 C 
ENDBRANCH  12  14
BRANCH   1  23
ATOM     22  C   UNL     1      -6.734  11.793  17.790  0.00  0.00    +0.000 C 
ATOM     23  O   UNL     1      -5.512  12.385  17.355  0.00  0.00    +0.000 OA
ENDBRANCH   1  23
BRANCH  10  24
ATOM     24  C   UNL     1      -1.008  13.269  23.097  0.00  0.00    +0.000 C 
BRANCH  24  25
ATOM     25  C   UNL     1      -0.717  14.745  22.822  0.00  0.00    +0.000 C 
BRANCH  25  26
ATOM     26  O   UNL     1       0.682  14.992  22.744  0.00  0.00    +0.000 OA
ATOM     27  H   UNL     1       1.101  14.166  22.443  0.00  0.00    +0.000 HD
ENDBRANCH  25  26
ENDBRANCH  24  25
ENDBRANCH  10  24
TORSDOF 5
ENDMDL
MODEL 9
REMARK VINA RESULT:      -6.6      3.192      6.661
REMARK  Name = 
REMARK  7 active torsions:
REMARK  status: ('A' for Active; 'I' for Inactive)
REMARK    1  A    between atoms: C_1  and  O_2
REMARK    2  A    between atoms: O_2  and  C_3
REMARK    3  A    between atoms: C_12  and  C_13
REMARK    4  A    between atoms: C_13  and  C_14
REMARK    5  A    between atoms: C_14  and  O_15
REMARK    6  A    between atoms: N_17  and  C_18
REMARK    7  A    between atoms: C_24  and  C_25
REMARK                            x       y       z     vdW  Elec       q    Type
REMARK                         _______ _______ _______ _____ _____    ______ ____
ROOT
ATOM      1  C   UNL     1       6.240   4.829  15.677  0.00  0.00    +0.000 A 
ATOM      2  C   UNL     1       6.232   3.463  15.990  0.00  0.00    +0.000 A 
ATOM      3  C   UNL     1       5.220   2.940  16.774  0.00  0.00    +0.000 A 
ATOM      4  C   UNL     1       4.243   3.788  17.288  0.00  0.00    +0.000 A 
ATOM      5  C   UNL     1       4.328   5.189  17.125  0.00  0.00    +0.000 A 
ATOM      6  C   UNL     1       5.310   5.719  16.248  0.00  0.00    +0.000 A 
ATOM      7  N   UNL     1       5.353   7.032  15.946  0.00  0.00    +0.000 NA
ATOM      8  C   UNL     1       4.473   7.903  16.479  0.00  0.00    +0.000 A 
ATOM      9  C   UNL     1       3.530   7.495  17.426  0.00  0.00    +0.000 A 
ATOM     10  C   UNL     1       2.532   8.209  18.151  0.00  0.00    +0.000 A 
ATOM     11  C   UNL     1       1.958   7.300  19.005  0.00  0.00    +0.000 A 
ATOM     12  N   UNL     1       2.488   6.043  18.806  0.00  0.00    +0.000 N 
ATOM     13  C   UNL     1       3.470   6.138  17.797  0.00  0.00    +0.000 A 
ENDROOT
BRANCH  12  14
ATOM     14  C   UNL     1       2.137   4.928  19.638  0.00  0.00    +0.000 A 
ATOM     15  C   UNL     1       2.552   4.946  20.985  0.00  0.00    +0.000 A 
ATOM     16  C   UNL     1       2.312   3.856  21.823  0.00  0.00    +0.000 A 
ATOM     17  C   UNL     1       1.583   2.781  21.348  0.00  0.00    +0.000 A 
ATOM     18  F   UNL     1       1.351   1.731  22.146  0.00  0.00    +0.000 F 
ATOM     19  C   UNL     1       1.087   2.774  20.050  0.00  0.00    +0.000 A 
ATOM     20  C   UNL     1       1.363   3.835  19.164  0.00  0.00    +0.000 A 
ATOM     21  C   UNL     1       0.864   3.674  17.750  0.00  0.00    +0.000 C 
ENDBRANCH  12  14
BRANCH   1  23
ATOM     22  C   UNL     1       7.223   4.808  13.516  0.00  0.00    +0.000 C 
ATOM     23  O   UNL     1       7.190   5.364  14.828  0.00  0.00    +0.000 OA
ENDBRANCH   1  23
BRANCH  10  24
ATOM     24  C   UNL     1       2.182   9.667  18.059  0.00  0.00    +0.000 C 
BRANCH  24  25
ATOM     25  C   UNL     1       0.807   9.999  18.640  0.00  0.00    +0.000 C 
BRANCH  25  26
ATOM     26  O   UNL     1      -0.180  10.085  17.619  0.00  0.00    +0.000 OA
ATOM     27  H   UNL     1       0.262  10.433  16.824  0.00  0.00    +0.000 HD
ENDBRANCH  25  26
ENDBRANCH  24  25
ENDBRANCH  10  24
TORSDOF 5
ENDMDL
