MODEL 1
REMARK VINA RESULT:      -7.9      0.000      0.000
REMARK  Name = 
REMARK  3 active torsions:
REMARK  status: ('A' for Active; 'I' for Inactive)
REMARK    1  A    between atoms: C_3  and  N_4
REMARK    2  A    between atoms: N_7  and  C_8
REMARK    3  A    between atoms: C_20  and  O_21
REMARK                            x       y       z     vdW  Elec       q    Type
REMARK                         _______ _______ _______ _____ _____    ______ ____
ROOT
ATOM      1  O   UNL     1       2.967   7.953  18.167  0.00  0.00    +0.000 OA
ATOM      2  C   UNL     1       2.643   7.004  18.877  0.00  0.00    +0.000 C 
ATOM      3  C   UNL     1       1.800   7.170  20.131  0.00  0.00    +0.000 C 
ATOM      4  C   UNL     1       1.392   6.056  20.753  0.00  0.00    +0.000 C 
ATOM      5  C   UNL     1       1.712   4.694  20.319  0.00  0.00    +0.000 C 
ATOM      6  O   UNL     1       1.279   3.720  20.930  0.00  0.00    +0.000 OA
ATOM      7  C   UNL     1       2.575   4.520  19.147  0.00  0.00    +0.000 A 
ATOM      8  C   UNL     1       2.926   3.238  18.707  0.00  0.00    +0.000 A 
ATOM      9  C   UNL     1       3.760   3.074  17.602  0.00  0.00    +0.000 A 
ATOM     10  C   UNL     1       4.251   4.196  16.934  0.00  0.00    +0.000 A 
ATOM     11  C   UNL     1       3.896   5.476  17.364  0.00  0.00    +0.000 A 
ATOM     12  C   UNL     1       3.047   5.640  18.470  0.00  0.00    +0.000 A 
ENDROOT
BRANCH   3  13
ATOM     13  N   UNL     1       1.461   8.455  20.581  0.00  0.00    +0.000 N 
ATOM     14  C   UNL     1       0.946   9.542  19.711  0.00  0.00    +0.000 C 
ATOM     15  C   UNL     1      -0.453  10.000  20.165  0.00  0.00    +0.000 C 
ATOM     16  N   UNL     1      -0.454  10.359  21.597  0.00  0.00    +0.000 N 
ATOM     17  C   UNL     1       0.106   9.334  22.497  0.00  0.00    +0.000 C 
ATOM     18  C   UNL     1       1.498   8.866  22.007  0.00  0.00    +0.000 C 
BRANCH  16  19
ATOM     19  C   UNL     1      -0.725  11.634  22.050  0.00  0.00    +0.000 A 
ATOM     20  C   UNL     1       0.026  12.734  21.610  0.00  0.00    +0.000 A 
ATOM     21  C   UNL     1      -0.214  14.029  22.082  0.00  0.00    +0.000 A 
ATOM     22  C   UNL     1      -1.226  14.256  23.009  0.00  0.00    +0.000 A 
ATOM     23  C   UNL     1      -1.991  13.185  23.457  0.00  0.00    +0.000 A 
ATOM     24  C   UNL     1      -1.739  11.893  22.981  0.00  0.00    +0.000 A 
ENDBRANCH  16  19
ENDBRANCH   3  13
BRANCH   8  25
ATOM     25  O   UNL     1       2.486   2.092  19.310  0.00  0.00    +0.000 OA
ATOM     26  H   UNL     1       1.863   2.337  20.032  0.00  0.00    +0.000 HD
ENDBRANCH   8  25
TORSDOF 3
ENDMDL
MODEL 2
REMARK VINA RESULT:      -7.7      1.495      2.529
REMARK  Name = 
REMARK  3 active torsions:
REMARK  status: ('A' for Active; 'I' for Inactive)
REMARK    1  A    between atoms: C_3  and  N_4
REMARK    2  A    between atoms: N_7  and  C_8
REMARK    3  A    between atoms: C_20  and  O_21
REMARK                            x       y       z     vdW  Elec       q    Type
REMARK                         _______ _______ _______ _____ _____    ______ ____
ROOT
ATOM      1  O   UNL     1       1.214   5.563  20.715  0.00  0.00    +0.000 OA
ATOM      2  C   UNL     1       1.957   5.667  19.742  0.00  0.00    +0.000 C 
ATOM      3  C   UNL     1       2.404   7.012  19.194  0.00  0.00    +0.000 C 
ATOM      4  C   UNL     1       3.321   7.007  18.217  0.00  0.00    +0.000 C 
ATOM      5  C   UNL     1       3.911   5.799  17.633  0.00  0.00    +0.000 C 
ATOM      6  O   UNL     1       4.766   5.877  16.755  0.00  0.00    +0.000 OA
ATOM      7  C   UNL     1       3.444   4.495  18.110  0.00  0.00    +0.000 A 
ATOM      8  C   UNL     1       3.962   3.312  17.567  0.00  0.00    +0.000 A 
ATOM      9  C   UNL     1       3.505   2.072  18.011  0.00  0.00    +0.000 A 
ATOM     10  C   UNL     1       2.521   2.010  18.998  0.00  0.00    +0.000 A 
ATOM     11  C   UNL     1       2.009   3.185  19.548  0.00  0.00    +0.000 A 
ATOM     12  C   UNL     1       2.477   4.435  19.109  0.00  0.00    +0.000 A 
ENDROOT
BRANCH   3  13
ATOM     13  N   UNL     1       1.874   8.196  19.726  0.00  0.00    +0.000 N 
ATOM     14  C   UNL     1       1.504   9.387  18.921  0.00  0.00    +0.000 C 
ATOM     15  C   UNL     1       0.007   9.718  19.073  0.00  0.00    +0.000 C 
ATOM     16  N   UNL     1      -0.365   9.846  20.496  0.00  0.00    +0.000 N 
ATOM     17  C   UNL     1       0.035   8.713  21.349  0.00  0.00    +0.000 C 
ATOM     18  C   UNL     1       1.536   8.378  21.159  0.00  0.00    +0.000 C 
BRANCH  16  19
ATOM     19  C   UNL     1      -0.831  11.022  21.046  0.00  0.00    +0.000 A 
ATOM     20  C   UNL     1      -0.835  11.220  22.436  0.00  0.00    +0.000 A 
ATOM     21  C   UNL     1      -1.332  12.393  23.013  0.00  0.00    +0.000 A 
ATOM     22  C   UNL     1      -1.834  13.409  22.206  0.00  0.00    +0.000 A 
ATOM     23  C   UNL     1      -1.836  13.243  20.826  0.00  0.00    +0.000 A 
ATOM     24  C   UNL     1      -1.340  12.063  20.259  0.00  0.00    +0.000 A 
ENDBRANCH  16  19
ENDBRANCH   3  13
BRANCH   8  25
ATOM     25  O   UNL     1       4.925   3.293  16.597  0.00  0.00    +0.000 OA
ATOM     26  H   UNL     1       4.497   3.456  15.726  0.00  0.00    +0.000 HD
ENDBRANCH   8  25
TORSDOF 3
ENDMDL
MODEL 3
REMARK VINA RESULT:      -7.6      1.268      1.617
REMARK  Name = 
REMARK  3 active torsions:
REMARK  status: ('A' for Active; 'I' for Inactive)
REMARK    1  A    between atoms: C_3  and  N_4
REMARK    2  A    between atoms: N_7  and  C_8
REMARK    3  A    between atoms: C_20  and  O_21
REMARK                            x       y       z     vdW  Elec       q    Type
REMARK                         _______ _______ _______ _____ _____    ______ ____
ROOT
ATOM      1  O   UNL     1       3.300   8.455  17.331  0.00  0.00    +0.000 OA
ATOM      2  C   UNL     1       3.211   7.413  17.974  0.00  0.00    +0.000 C 
ATOM      3  C   UNL     1       2.385   7.303  19.246  0.00  0.00    +0.000 C 
ATOM      4  C   UNL     1       2.248   6.086  19.790  0.00  0.00    +0.000 C 
ATOM      5  C   UNL     1       2.847   4.861  19.255  0.00  0.00    +0.000 C 
ATOM      6  O   UNL     1       2.654   3.776  19.798  0.00  0.00    +0.000 OA
ATOM      7  C   UNL     1       3.695   4.962  18.065  0.00  0.00    +0.000 A 
ATOM      8  C   UNL     1       4.307   3.822  17.529  0.00  0.00    +0.000 A 
ATOM      9  C   UNL     1       5.127   3.922  16.406  0.00  0.00    +0.000 A 
ATOM     10  C   UNL     1       5.343   5.167  15.816  0.00  0.00    +0.000 A 
ATOM     11  C   UNL     1       4.728   6.304  16.341  0.00  0.00    +0.000 A 
ATOM     12  C   UNL     1       3.893   6.202  17.465  0.00  0.00    +0.000 A 
ENDROOT
BRANCH   3  13
ATOM     13  N   UNL     1       1.786   8.447  19.792  0.00  0.00    +0.000 N 
ATOM     14  C   UNL     1       1.358   9.629  19.002  0.00  0.00    +0.000 C 
ATOM     15  C   UNL     1      -0.156   9.874  19.146  0.00  0.00    +0.000 C 
ATOM     16  N   UNL     1      -0.546   9.959  20.568  0.00  0.00    +0.000 N 
ATOM     17  C   UNL     1      -0.090   8.836  21.407  0.00  0.00    +0.000 C 
ATOM     18  C   UNL     1       1.427   8.588  21.225  0.00  0.00    +0.000 C 
BRANCH  16  19
ATOM     19  C   UNL     1      -1.080  11.099  21.132  0.00  0.00    +0.000 A 
ATOM     20  C   UNL     1      -1.015  11.321  22.517  0.00  0.00    +0.000 A 
ATOM     21  C   UNL     1      -1.578  12.456  23.110  0.00  0.00    +0.000 A 
ATOM     22  C   UNL     1      -2.219  13.408  22.324  0.00  0.00    +0.000 A 
ATOM     23  C   UNL     1      -2.292  13.217  20.949  0.00  0.00    +0.000 A 
ATOM     24  C   UNL     1      -1.729  12.076  20.367  0.00  0.00    +0.000 A 
ENDBRANCH  16  19
ENDBRANCH   3  13
BRANCH   8  25
ATOM     25  O   UNL     1       4.144   2.569  18.052  0.00  0.00    +0.000 OA
ATOM     26  H   UNL     1       3.653   2.644  18.901  0.00  0.00    +0.000 HD
ENDBRANCH   8  25
TORSDOF 3
ENDMDL
MODEL 4
REMARK VINA RESULT:      -7.5      0.503      1.016
REMARK  Name = 
REMARK  3 active torsions:
REMARK  status: ('A' for Active; 'I' for Inactive)
REMARK    1  A    between atoms: C_3  and  N_4
REMARK    2  A    between atoms: N_7  and  C_8
REMARK    3  A    between atoms: C_20  and  O_21
REMARK                            x       y       z     vdW  Elec       q    Type
REMARK                         _______ _______ _______ _____ _____    ______ ____
ROOT
ATOM      1  O   UNL     1       2.731   8.087  17.939  0.00  0.00    +0.000 OA
ATOM      2  C   UNL     1       2.563   7.184  18.754  0.00  0.00    +0.000 C 
ATOM      3  C   UNL     1       1.817   7.390  20.062  0.00  0.00    +0.000 C 
ATOM      4  C   UNL     1       1.574   6.306  20.812  0.00  0.00    +0.000 C 
ATOM      5  C   UNL     1       1.988   4.943  20.467  0.00  0.00    +0.000 C 
ATOM      6  O   UNL     1       1.705   3.996  21.196  0.00  0.00    +0.000 OA
ATOM      7  C   UNL     1       2.761   4.739  19.240  0.00  0.00    +0.000 A 
ATOM      8  C   UNL     1       3.197   3.458  18.878  0.00  0.00    +0.000 A 
ATOM      9  C   UNL     1       3.946   3.268  17.719  0.00  0.00    +0.000 A 
ATOM     10  C   UNL     1       4.267   4.362  16.915  0.00  0.00    +0.000 A 
ATOM     11  C   UNL     1       3.827   5.639  17.266  0.00  0.00    +0.000 A 
ATOM     12  C   UNL     1       3.062   5.829  18.429  0.00  0.00    +0.000 A 
ENDROOT
BRANCH   3  13
ATOM     13  N   UNL     1       1.394   8.675  20.432  0.00  0.00    +0.000 N 
ATOM     14  C   UNL     1       0.803   9.666  19.497  0.00  0.00    +0.000 C 
ATOM     15  C   UNL     1      -0.621  10.057  19.932  0.00  0.00    +0.000 C 
ATOM     16  N   UNL     1      -0.641  10.508  21.338  0.00  0.00    +0.000 N 
ATOM     17  C   UNL     1      -0.011   9.583  22.297  0.00  0.00    +0.000 C 
ATOM     18  C   UNL     1       1.408   9.179  21.827  0.00  0.00    +0.000 C 
BRANCH  16  19
ATOM     19  C   UNL     1      -0.996  11.788  21.710  0.00  0.00    +0.000 A 
ATOM     20  C   UNL     1      -1.547  12.048  22.975  0.00  0.00    +0.000 A 
ATOM     21  C   UNL     1      -1.941  13.334  23.359  0.00  0.00    +0.000 A 
ATOM     22  C   UNL     1      -1.786  14.402  22.480  0.00  0.00    +0.000 A 
ATOM     23  C   UNL     1      -1.237  14.175  21.223  0.00  0.00    +0.000 A 
ATOM     24  C   UNL     1      -0.850  12.882  20.849  0.00  0.00    +0.000 A 
ENDBRANCH  16  19
ENDBRANCH   3  13
BRANCH   8  25
ATOM     25  O   UNL     1       2.923   2.339  19.615  0.00  0.00    +0.000 OA
ATOM     26  H   UNL     1       2.297   2.582  20.334  0.00  0.00    +0.000 HD
ENDBRANCH   8  25
TORSDOF 3
ENDMDL
MODEL 5
REMARK VINA RESULT:      -7.4      1.420      2.138
REMARK  Name = 
REMARK  3 active torsions:
REMARK  status: ('A' for Active; 'I' for Inactive)
REMARK    1  A    between atoms: C_3  and  N_4
REMARK    2  A    between atoms: N_7  and  C_8
REMARK    3  A    between atoms: C_20  and  O_21
REMARK                            x       y       z     vdW  Elec       q    Type
REMARK                         _______ _______ _______ _____ _____    ______ ____
ROOT
ATOM      1  O   UNL     1       2.703   8.568  17.348  0.00  0.00    +0.000 OA
ATOM      2  C   UNL     1       2.962   7.615  18.079  0.00  0.00    +0.000 C 
ATOM      3  C   UNL     1       2.235   7.368  19.390  0.00  0.00    +0.000 C 
ATOM      4  C   UNL     1       2.501   6.227  20.039  0.00  0.00    +0.000 C 
ATOM      5  C   UNL     1       3.451   5.209  19.581  0.00  0.00    +0.000 C 
ATOM      6  O   UNL     1       3.623   4.175  20.221  0.00  0.00    +0.000 OA
ATOM      7  C   UNL     1       4.203   5.462  18.350  0.00  0.00    +0.000 A 
ATOM      8  C   UNL     1       5.138   4.529  17.883  0.00  0.00    +0.000 A 
ATOM      9  C   UNL     1       5.865   4.779  16.721  0.00  0.00    +0.000 A 
ATOM     10  C   UNL     1       5.663   5.968  16.020  0.00  0.00    +0.000 A 
ATOM     11  C   UNL     1       4.726   6.896  16.476  0.00  0.00    +0.000 A 
ATOM     12  C   UNL     1       3.986   6.640  17.642  0.00  0.00    +0.000 A 
ENDROOT
BRANCH   3  13
ATOM     13  N   UNL     1       1.311   8.310  19.866  0.00  0.00    +0.000 N 
ATOM     14  C   UNL     1       0.733   8.304  21.233  0.00  0.00    +0.000 C 
ATOM     15  C   UNL     1       1.074   9.604  21.986  0.00  0.00    +0.000 C 
ATOM     16  N   UNL     1       0.681  10.790  21.200  0.00  0.00    +0.000 N 
ATOM     17  C   UNL     1       1.182  10.812  19.814  0.00  0.00    +0.000 C 
ATOM     18  C   UNL     1       0.854   9.486  19.084  0.00  0.00    +0.000 C 
BRANCH  16  19
ATOM     19  C   UNL     1      -0.271  11.692  21.628  0.00  0.00    +0.000 A 
ATOM     20  C   UNL     1      -1.053  11.434  22.765  0.00  0.00    +0.000 A 
ATOM     21  C   UNL     1      -2.044  12.323  23.196  0.00  0.00    +0.000 A 
ATOM     22  C   UNL     1      -2.273  13.504  22.498  0.00  0.00    +0.000 A 
ATOM     23  C   UNL     1      -1.508  13.788  21.372  0.00  0.00    +0.000 A 
ATOM     24  C   UNL     1      -0.522  12.890  20.948  0.00  0.00    +0.000 A 
ENDBRANCH  16  19
ENDBRANCH   3  13
BRANCH   8  25
ATOM     25  O   UNL     1       5.392   3.344  18.516  0.00  0.00    +0.000 OA
ATOM     26  H   UNL     1       6.128   2.889  18.048  0.00  0.00    +0.000 HD
ENDBRANCH   8  25
TORSDOF 3
ENDMDL
MODEL 6
REMARK VINA RESULT:      -7.3      3.589      8.853
REMARK  Name = 
REMARK  3 active torsions:
REMARK  status: ('A' for Active; 'I' for Inactive)
REMARK    1  A    between atoms: C_3  and  N_4
REMARK    2  A    between atoms: N_7  and  C_8
REMARK    3  A    between atoms: C_20  and  O_21
REMARK                            x       y       z     vdW  Elec       q    Type
REMARK                         _______ _______ _______ _____ _____    ______ ____
ROOT
ATOM      1  O   UNL     1      -1.152  11.781  19.570  0.00  0.00    +0.000 OA
ATOM      2  C   UNL     1      -0.058  12.272  19.302  0.00  0.00    +0.000 C 
ATOM      3  C   UNL     1       1.136  11.430  18.881  0.00  0.00    +0.000 C 
ATOM      4  C   UNL     1       2.238  12.079  18.480  0.00  0.00    +0.000 C 
ATOM      5  C   UNL     1       2.376  13.537  18.432  0.00  0.00    +0.000 C 
ATOM      6  O   UNL     1       3.413  14.058  18.029  0.00  0.00    +0.000 OA
ATOM      7  C   UNL     1       1.255  14.359  18.892  0.00  0.00    +0.000 A 
ATOM      8  C   UNL     1       1.347  15.757  18.886  0.00  0.00    +0.000 A 
ATOM      9  C   UNL     1       0.286  16.537  19.339  0.00  0.00    +0.000 A 
ATOM     10  C   UNL     1      -0.875  15.922  19.807  0.00  0.00    +0.000 A 
ATOM     11  C   UNL     1      -0.976  14.530  19.807  0.00  0.00    +0.000 A 
ATOM     12  C   UNL     1       0.090  13.744  19.340  0.00  0.00    +0.000 A 
ENDROOT
BRANCH   3  13
ATOM     13  N   UNL     1       1.048  10.031  18.903  0.00  0.00    +0.000 N 
ATOM     14  C   UNL     1       1.415   9.148  17.767  0.00  0.00    +0.000 C 
ATOM     15  C   UNL     1       2.545   8.179  18.160  0.00  0.00    +0.000 C 
ATOM     16  N   UNL     1       2.200   7.429  19.384  0.00  0.00    +0.000 N 
ATOM     17  C   UNL     1       1.771   8.260  20.523  0.00  0.00    +0.000 C 
ATOM     18  C   UNL     1       0.654   9.247  20.100  0.00  0.00    +0.000 C 
BRANCH  16  19
ATOM     19  C   UNL     1       2.050   6.058  19.406  0.00  0.00    +0.000 A 
ATOM     20  C   UNL     1       2.222   5.291  18.243  0.00  0.00    +0.000 A 
ATOM     21  C   UNL     1       2.045   3.904  18.240  0.00  0.00    +0.000 A 
ATOM     22  C   UNL     1       1.695   3.244  19.414  0.00  0.00    +0.000 A 
ATOM     23  C   UNL     1       1.525   3.977  20.583  0.00  0.00    +0.000 A 
ATOM     24  C   UNL     1       1.701   5.366  20.572  0.00  0.00    +0.000 A 
ENDBRANCH  16  19
ENDBRANCH   3  13
BRANCH   8  25
ATOM     25  O   UNL     1       2.452  16.431  18.444  0.00  0.00    +0.000 OA
ATOM     26  H   UNL     1       3.232  15.836  18.512  0.00  0.00    +0.000 HD
ENDBRANCH   8  25
TORSDOF 3
ENDMDL
MODEL 7
REMARK VINA RESULT:      -7.2      1.211      1.652
REMARK  Name = 
REMARK  3 active torsions:
REMARK  status: ('A' for Active; 'I' for Inactive)
REMARK    1  A    between atoms: C_3  and  N_4
REMARK    2  A    between atoms: N_7  and  C_8
REMARK    3  A    between atoms: C_20  and  O_21
REMARK                            x       y       z     vdW  Elec       q    Type
REMARK                         _______ _______ _______ _____ _____    ______ ____
ROOT
ATOM      1  O   UNL     1       2.138   8.933  18.015  0.00  0.00    +0.000 OA
ATOM      2  C   UNL     1       2.296   7.956  18.743  0.00  0.00    +0.000 C 
ATOM      3  C   UNL     1       1.503   7.751  20.023  0.00  0.00    +0.000 C 
ATOM      4  C   UNL     1       1.658   6.586  20.667  0.00  0.00    +0.000 C 
ATOM      5  C   UNL     1       2.546   5.505  20.231  0.00  0.00    +0.000 C 
ATOM      6  O   UNL     1       2.616   4.454  20.864  0.00  0.00    +0.000 OA
ATOM      7  C   UNL     1       3.362   5.714  19.033  0.00  0.00    +0.000 A 
ATOM      8  C   UNL     1       4.242   4.718  18.589  0.00  0.00    +0.000 A 
ATOM      9  C   UNL     1       5.030   4.924  17.458  0.00  0.00    +0.000 A 
ATOM     10  C   UNL     1       4.944   6.132  16.766  0.00  0.00    +0.000 A 
ATOM     11  C   UNL     1       4.062   7.124  17.198  0.00  0.00    +0.000 A 
ATOM     12  C   UNL     1       3.260   6.912  18.332  0.00  0.00    +0.000 A 
ENDROOT
BRANCH   3  13
ATOM     13  N   UNL     1       0.634   8.755  20.476  0.00  0.00    +0.000 N 
ATOM     14  C   UNL     1      -0.293   8.607  21.626  0.00  0.00    +0.000 C 
ATOM     15  C   UNL     1       0.016   9.641  22.725  0.00  0.00    +0.000 C 
ATOM     16  N   UNL     1       0.037  11.011  22.173  0.00  0.00    +0.000 N 
ATOM     17  C   UNL     1       0.898  11.193  20.991  0.00  0.00    +0.000 C 
ATOM     18  C   UNL     1       0.591  10.126  19.911  0.00  0.00    +0.000 C 
BRANCH  16  19
ATOM     19  C   UNL     1      -0.852  11.991  22.565  0.00  0.00    +0.000 A 
ATOM     20  C   UNL     1      -0.507  13.349  22.499  0.00  0.00    +0.000 A 
ATOM     21  C   UNL     1      -1.383  14.355  22.921  0.00  0.00    +0.000 A 
ATOM     22  C   UNL     1      -2.639  14.022  23.418  0.00  0.00    +0.000 A 
ATOM     23  C   UNL     1      -3.010  12.684  23.488  0.00  0.00    +0.000 A 
ATOM     24  C   UNL     1      -2.123  11.686  23.067  0.00  0.00    +0.000 A 
ENDBRANCH  16  19
ENDBRANCH   3  13
BRANCH   8  25
ATOM     25  O   UNL     1       4.382   3.510  19.215  0.00  0.00    +0.000 OA
ATOM     26  H   UNL     1       4.454   2.808  18.530  0.00  0.00    +0.000 HD
ENDBRANCH   8  25
TORSDOF 3
ENDMDL
MODEL 8
REMARK VINA RESULT:      -7.2      1.779      2.645
REMARK  Name = 
REMARK  3 active torsions:
REMARK  status: ('A' for Active; 'I' for Inactive)
REMARK    1  A    between atoms: C_3  and  N_4
REMARK    2  A    between atoms: N_7  and  C_8
REMARK    3  A    between atoms: C_20  and  O_21
REMARK                            x       y       z     vdW  Elec       q    Type
REMARK                         _______ _______ _______ _____ _____    ______ ____
ROOT
ATOM      1  O   UNL     1       1.259   6.362  21.024  0.00  0.00    +0.000 OA
ATOM      2  C   UNL     1       1.907   6.185  19.996  0.00  0.00    +0.000 C 
ATOM      3  C   UNL     1       2.298   7.323  19.068  0.00  0.00    +0.000 C 
ATOM      4  C   UNL     1       3.121   7.036  18.050  0.00  0.00    +0.000 C 
ATOM      5  C   UNL     1       3.657   5.703  17.763  0.00  0.00    +0.000 C 
ATOM      6  O   UNL     1       4.427   5.523  16.823  0.00  0.00    +0.000 OA
ATOM      7  C   UNL     1       3.240   4.585  18.613  0.00  0.00    +0.000 A 
ATOM      8  C   UNL     1       3.709   3.289  18.365  0.00  0.00    +0.000 A 
ATOM      9  C   UNL     1       3.299   2.224  19.165  0.00  0.00    +0.000 A 
ATOM     10  C   UNL     1       2.411   2.451  20.217  0.00  0.00    +0.000 A 
ATOM     11  C   UNL     1       1.949   3.742  20.474  0.00  0.00    +0.000 A 
ATOM     12  C   UNL     1       2.371   4.817  19.675  0.00  0.00    +0.000 A 
ENDROOT
BRANCH   3  13
ATOM     13  N   UNL     1       1.815   8.618  19.307  0.00  0.00    +0.000 N 
ATOM     14  C   UNL     1       1.585   9.637  18.252  0.00  0.00    +0.000 C 
ATOM     15  C   UNL     1       0.108  10.072  18.213  0.00  0.00    +0.000 C 
ATOM     16  N   UNL     1      -0.351  10.509  19.546  0.00  0.00    +0.000 N 
ATOM     17  C   UNL     1      -0.090   9.555  20.639  0.00  0.00    +0.000 C 
ATOM     18  C   UNL     1       1.393   9.109  20.642  0.00  0.00    +0.000 C 
BRANCH  16  19
ATOM     19  C   UNL     1      -0.771  11.796  19.809  0.00  0.00    +0.000 A 
ATOM     20  C   UNL     1      -0.217  12.892  19.130  0.00  0.00    +0.000 A 
ATOM     21  C   UNL     1      -0.608  14.207  19.406  0.00  0.00    +0.000 A 
ATOM     22  C   UNL     1      -1.577  14.457  20.372  0.00  0.00    +0.000 A 
ATOM     23  C   UNL     1      -2.149  13.390  21.055  0.00  0.00    +0.000 A 
ATOM     24  C   UNL     1      -1.747  12.079  20.774  0.00  0.00    +0.000 A 
ENDBRANCH  16  19
ENDBRANCH   3  13
BRANCH   8  25
ATOM     25  O   UNL     1       4.578   2.989  17.353  0.00  0.00    +0.000 OA
ATOM     26  H   UNL     1       5.105   2.200  17.615  0.00  0.00    +0.000 HD
ENDBRANCH   8  25
TORSDOF 3
ENDMDL
MODEL 9
REMARK VINA RESULT:      -7.1      3.673      9.349
REMARK  Name = 
REMARK  3 active torsions:
REMARK  status: ('A' for Active; 'I' for Inactive)
REMARK    1  A    between atoms: C_3  and  N_4
REMARK    2  A    between atoms: N_7  and  C_8
REMARK    3  A    between atoms: C_20  and  O_21
REMARK                            x       y       z     vdW  Elec       q    Type
REMARK                         _______ _______ _______ _____ _____    ______ ____
ROOT
ATOM      1  O   UNL     1       0.674  13.087  21.882  0.00  0.00    +0.000 OA
ATOM      2  C   UNL     1      -0.439  13.026  22.397  0.00  0.00    +0.000 C 
ATOM      3  C   UNL     1      -1.245  11.738  22.454  0.00  0.00    +0.000 C 
ATOM      4  C   UNL     1      -2.384  11.753  23.159  0.00  0.00    +0.000 C 
ATOM      5  C   UNL     1      -2.913  12.924  23.865  0.00  0.00    +0.000 C 
ATOM      6  O   UNL     1      -3.955  12.852  24.511  0.00  0.00    +0.000 OA
ATOM      7  C   UNL     1      -2.178  14.187  23.767  0.00  0.00    +0.000 A 
ATOM      8  C   UNL     1      -2.655  15.339  24.406  0.00  0.00    +0.000 A 
ATOM      9  C   UNL     1      -1.963  16.544  24.299  0.00  0.00    +0.000 A 
ATOM     10  C   UNL     1      -0.791  16.604  23.546  0.00  0.00    +0.000 A 
ATOM     11  C   UNL     1      -0.306  15.457  22.915  0.00  0.00    +0.000 A 
ATOM     12  C   UNL     1      -0.997  14.240  23.032  0.00  0.00    +0.000 A 
ENDROOT
BRANCH   3  13
ATOM     13  N   UNL     1      -0.775  10.590  21.801  0.00  0.00    +0.000 N 
ATOM     14  C   UNL     1      -0.665  10.448  20.327  0.00  0.00    +0.000 C 
ATOM     15  C   UNL     1       0.792  10.182  19.903  0.00  0.00    +0.000 C 
ATOM     16  N   UNL     1       1.356   9.031  20.637  0.00  0.00    +0.000 N 
ATOM     17  C   UNL     1       1.216   9.098  22.103  0.00  0.00    +0.000 C 
ATOM     18  C   UNL     1      -0.250   9.395  22.507  0.00  0.00    +0.000 C 
BRANCH  16  19
ATOM     19  C   UNL     1       1.765   7.871  20.012  0.00  0.00    +0.000 A 
ATOM     20  C   UNL     1       1.692   6.632  20.667  0.00  0.00    +0.000 A 
ATOM     21  C   UNL     1       2.131   5.449  20.061  0.00  0.00    +0.000 A 
ATOM     22  C   UNL     1       2.651   5.479  18.771  0.00  0.00    +0.000 A 
ATOM     23  C   UNL     1       2.729   6.692  18.096  0.00  0.00    +0.000 A 
ATOM     24  C   UNL     1       2.291   7.869  18.714  0.00  0.00    +0.000 A 
ENDBRANCH  16  19
ENDBRANCH   3  13
BRANCH   8  25
ATOM     25  O   UNL     1      -3.796  15.358  25.159  0.00  0.00    +0.000 OA
ATOM     26  H   UNL     1      -3.910  16.261  25.535  0.00  0.00    +0.000 HD
ENDBRANCH   8  25
TORSDOF 3
ENDMDL
