MODEL 1
REMARK VINA RESULT:      -8.0      0.000      0.000
REMARK  Name = 
REMARK  9 active torsions:
REMARK  status: ('A' for Active; 'I' for Inactive)
REMARK    1  A    between atoms: C_2  and  O_3
REMARK    2  A    between atoms: C_2  and  C_4
REMARK    3  A    between atoms: N_8  and  C_9
REMARK    4  A    between atoms: C_9  and  C_10
REMARK    5  A    between atoms: C_10  and  C_11
REMARK    6  A    between atoms: C_11  and  C_12
REMARK    7  A    between atoms: C_13  and  C_14
REMARK    8  A    between atoms: C_18  and  N_19
REMARK    9  A    between atoms: N_20  and  C_21
REMARK                            x       y       z     vdW  Elec       q    Type
REMARK                         _______ _______ _______ _____ _____    ______ ____
ROOT
ATOM      1  C   UNL     1       8.475   8.942  18.368  0.00  0.00    +0.000 C 
ATOM      2  C   UNL     1       7.888   8.011  17.888  0.00  0.00    +0.000 C 
ENDROOT
BRANCH   2   3
ATOM      3  C   UNL     1       7.203   6.892  17.318  0.00  0.00    +0.000 A 
ATOM      4  C   UNL     1       7.570   6.437  16.051  0.00  0.00    +0.000 A 
ATOM      5  C   UNL     1       6.903   5.355  15.482  0.00  0.00    +0.000 A 
ATOM      6  C   UNL     1       5.876   4.722  16.188  0.00  0.00    +0.000 A 
ATOM      7  C   UNL     1       5.504   5.155  17.468  0.00  0.00    +0.000 A 
ATOM      8  C   UNL     1       6.181   6.250  18.026  0.00  0.00    +0.000 A 
BRANCH   7   9
ATOM      9  N   UNL     1       4.538   4.400  18.166  0.00  0.00    +0.000 NA
ATOM     10  N   UNL     1       3.502   5.047  18.427  0.00  0.00    +0.000 NA
BRANCH  10  11
ATOM     11  C   UNL     1       2.601   4.292  19.215  0.00  0.00    +0.000 A 
ATOM     12  C   UNL     1       1.660   3.485  18.563  0.00  0.00    +0.000 A 
ATOM     13  C   UNL     1       0.739   2.722  19.287  0.00  0.00    +0.000 A 
ATOM     14  C   UNL     1       0.752   2.749  20.680  0.00  0.00    +0.000 A 
ATOM     15  C   UNL     1       1.694   3.531  21.348  0.00  0.00    +0.000 A 
ATOM     16  C   UNL     1       2.614   4.291  20.620  0.00  0.00    +0.000 A 
ENDBRANCH  10  11
ENDBRANCH   7   9
ENDBRANCH   2   3
BRANCH   1  17
ATOM     17  C   UNL     1       9.172  10.100  18.936  0.00  0.00    +0.000 C 
BRANCH  17  18
ATOM     18  C   UNL     1       9.390  11.237  17.938  0.00  0.00    +0.000 C 
BRANCH  18  19
ATOM     19  C   UNL     1      10.861  11.659  17.773  0.00  0.00    +0.000 C 
BRANCH  19  24
ATOM     20  C   UNL     1      10.001  15.341  18.139  0.00  0.00    +0.000 C 
ATOM     21  C   UNL     1      10.674  15.641  19.479  0.00  0.00    +0.000 C 
ATOM     22  C   UNL     1      11.919  14.789  19.686  0.00  0.00    +0.000 C 
ATOM     23  C   UNL     1      11.655  13.308  19.406  0.00  0.00    +0.000 C 
ATOM     24  N   UNL     1      11.085  13.102  18.056  0.00  0.00    +0.000 NA
ATOM     25  C   UNL     1       9.796  13.833  17.942  0.00  0.00    +0.000 C 
BRANCH  20  27
ATOM     26  O   UNL     1      11.166  17.138  17.022  0.00  0.00    +0.000 OA
ATOM     27  C   UNL     1      10.766  15.982  16.991  0.00  0.00    +0.000 C 
BRANCH  27  28
ATOM     28  O   UNL     1      11.028  15.162  15.951  0.00  0.00    +0.000 OA
ATOM     29  H   UNL     1      11.394  14.291  16.246  0.00  0.00    +0.000 HD
ENDBRANCH  27  28
ENDBRANCH  20  27
ENDBRANCH  19  24
ENDBRANCH  18  19
ENDBRANCH  17  18
ENDBRANCH   1  17
TORSDOF 9
ENDMDL
MODEL 2
REMARK VINA RESULT:      -7.9      1.301      1.492
REMARK  Name = 
REMARK  9 active torsions:
REMARK  status: ('A' for Active; 'I' for Inactive)
REMARK    1  A    between atoms: C_2  and  O_3
REMARK    2  A    between atoms: C_2  and  C_4
REMARK    3  A    between atoms: N_8  and  C_9
REMARK    4  A    between atoms: C_9  and  C_10
REMARK    5  A    between atoms: C_10  and  C_11
REMARK    6  A    between atoms: C_11  and  C_12
REMARK    7  A    between atoms: C_13  and  C_14
REMARK    8  A    between atoms: C_18  and  N_19
REMARK    9  A    between atoms: N_20  and  C_21
REMARK                            x       y       z     vdW  Elec       q    Type
REMARK                         _______ _______ _______ _____ _____    ______ ____
ROOT
ATOM      1  C   UNL     1       8.232   9.178  17.884  0.00  0.00    +0.000 C 
ATOM      2  C   UNL     1       7.746   8.108  17.643  0.00  0.00    +0.000 C 
ENDROOT
BRANCH   2   3
ATOM      3  C   UNL     1       7.174   6.832  17.341  0.00  0.00    +0.000 A 
ATOM      4  C   UNL     1       7.532   6.185  16.156  0.00  0.00    +0.000 A 
ATOM      5  C   UNL     1       6.975   4.947  15.846  0.00  0.00    +0.000 A 
ATOM      6  C   UNL     1       6.067   4.353  16.727  0.00  0.00    +0.000 A 
ATOM      7  C   UNL     1       5.708   4.979  17.928  0.00  0.00    +0.000 A 
ATOM      8  C   UNL     1       6.273   6.229  18.226  0.00  0.00    +0.000 A 
BRANCH   7   9
ATOM      9  N   UNL     1       4.876   4.271  18.821  0.00  0.00    +0.000 NA
ATOM     10  N   UNL     1       3.659   4.465  18.620  0.00  0.00    +0.000 NA
BRANCH  10  11
ATOM     11  C   UNL     1       2.860   3.823  19.595  0.00  0.00    +0.000 A 
ATOM     12  C   UNL     1       1.467   3.919  19.484  0.00  0.00    +0.000 A 
ATOM     13  C   UNL     1       0.625   3.311  20.420  0.00  0.00    +0.000 A 
ATOM     14  C   UNL     1       1.168   2.589  21.480  0.00  0.00    +0.000 A 
ATOM     15  C   UNL     1       2.551   2.465  21.598  0.00  0.00    +0.000 A 
ATOM     16  C   UNL     1       3.389   3.072  20.658  0.00  0.00    +0.000 A 
ENDBRANCH  10  11
ENDBRANCH   7   9
ENDBRANCH   2   3
BRANCH   1  17
ATOM     17  C   UNL     1       8.800  10.492  18.201  0.00  0.00    +0.000 C 
BRANCH  17  18
ATOM     18  C   UNL     1       9.497  10.549  19.560  0.00  0.00    +0.000 C 
BRANCH  18  19
ATOM     19  C   UNL     1      10.750  11.442  19.591  0.00  0.00    +0.000 C 
BRANCH  19  24
ATOM     20  C   UNL     1      10.212  15.086  18.664  0.00  0.00    +0.000 C 
ATOM     21  C   UNL     1      11.379  15.292  17.697  0.00  0.00    +0.000 C 
ATOM     22  C   UNL     1      11.712  14.014  16.939  0.00  0.00    +0.000 C 
ATOM     23  C   UNL     1      11.843  12.810  17.873  0.00  0.00    +0.000 C 
ATOM     24  N   UNL     1      10.634  12.634  18.709  0.00  0.00    +0.000 NA
ATOM     25  C   UNL     1      10.425  13.847  19.543  0.00  0.00    +0.000 C 
BRANCH  20  27
ATOM     26  O   UNL     1       8.155  16.028  17.816  0.00  0.00    +0.000 OA
ATOM     27  C   UNL     1       8.887  15.052  17.917  0.00  0.00    +0.000 C 
BRANCH  27  28
ATOM     28  O   UNL     1       8.599  13.878  17.317  0.00  0.00    +0.000 OA
ATOM     29  H   UNL     1       9.271  13.180  17.522  0.00  0.00    +0.000 HD
ENDBRANCH  27  28
ENDBRANCH  20  27
ENDBRANCH  19  24
ENDBRANCH  18  19
ENDBRANCH  17  18
ENDBRANCH   1  17
TORSDOF 9
ENDMDL
MODEL 3
REMARK VINA RESULT:      -7.7      6.055     10.224
REMARK  Name = 
REMARK  9 active torsions:
REMARK  status: ('A' for Active; 'I' for Inactive)
REMARK    1  A    between atoms: C_2  and  O_3
REMARK    2  A    between atoms: C_2  and  C_4
REMARK    3  A    between atoms: N_8  and  C_9
REMARK    4  A    between atoms: C_9  and  C_10
REMARK    5  A    between atoms: C_10  and  C_11
REMARK    6  A    between atoms: C_11  and  C_12
REMARK    7  A    between atoms: C_13  and  C_14
REMARK    8  A    between atoms: C_18  and  N_19
REMARK    9  A    between atoms: N_20  and  C_21
REMARK                            x       y       z     vdW  Elec       q    Type
REMARK                         _______ _______ _______ _____ _____    ______ ____
ROOT
ATOM      1  C   UNL     1       1.694   6.460  20.633  0.00  0.00    +0.000 C 
ATOM      2  C   UNL     1       1.288   7.564  20.869  0.00  0.00    +0.000 C 
ENDROOT
BRANCH   2   3
ATOM      3  C   UNL     1       0.790   8.878  21.140  0.00  0.00    +0.000 A 
ATOM      4  C   UNL     1       0.047   9.102  22.300  0.00  0.00    +0.000 A 
ATOM      5  C   UNL     1      -0.451  10.374  22.570  0.00  0.00    +0.000 A 
ATOM      6  C   UNL     1      -0.195  11.423  21.683  0.00  0.00    +0.000 A 
ATOM      7  C   UNL     1       0.562  11.221  20.522  0.00  0.00    +0.000 A 
ATOM      8  C   UNL     1       1.053   9.933  20.259  0.00  0.00    +0.000 A 
BRANCH   7   9
ATOM      9  N   UNL     1       0.876  12.347  19.732  0.00  0.00    +0.000 NA
ATOM     10  N   UNL     1       1.974  12.864  20.026  0.00  0.00    +0.000 NA
BRANCH  10  11
ATOM     11  C   UNL     1       2.208  14.048  19.286  0.00  0.00    +0.000 A 
ATOM     12  C   UNL     1       1.362  15.144  19.497  0.00  0.00    +0.000 A 
ATOM     13  C   UNL     1       1.538  16.338  18.791  0.00  0.00    +0.000 A 
ATOM     14  C   UNL     1       2.573  16.454  17.866  0.00  0.00    +0.000 A 
ATOM     15  C   UNL     1       3.438  15.381  17.655  0.00  0.00    +0.000 A 
ATOM     16  C   UNL     1       3.259  14.190  18.365  0.00  0.00    +0.000 A 
ENDBRANCH  10  11
ENDBRANCH   7   9
ENDBRANCH   2   3
BRANCH   1  17
ATOM     17  C   UNL     1       2.222   5.121  20.352  0.00  0.00    +0.000 C 
BRANCH  17  18
ATOM     18  C   UNL     1       3.097   5.056  19.100  0.00  0.00    +0.000 C 
BRANCH  18  19
ATOM     19  C   UNL     1       4.362   4.194  19.258  0.00  0.00    +0.000 C 
BRANCH  19  24
ATOM     20  C   UNL     1       6.201   6.126  16.553  0.00  0.00    +0.000 C 
ATOM     21  C   UNL     1       7.267   6.823  17.399  0.00  0.00    +0.000 C 
ATOM     22  C   UNL     1       7.673   5.977  18.599  0.00  0.00    +0.000 C 
ATOM     23  C   UNL     1       6.460   5.460  19.374  0.00  0.00    +0.000 C 
ATOM     24  N   UNL     1       5.524   4.725  18.495  0.00  0.00    +0.000 NA
ATOM     25  C   UNL     1       5.036   5.628  17.419  0.00  0.00    +0.000 C 
BRANCH  20  27
ATOM     26  O   UNL     1       7.668   5.232  14.855  0.00  0.00    +0.000 OA
ATOM     27  C   UNL     1       6.814   5.021  15.706  0.00  0.00    +0.000 C 
BRANCH  27  28
ATOM     28  O   UNL     1       6.392   3.774  16.003  0.00  0.00    +0.000 OA
ATOM     29  H   UNL     1       6.383   3.605  16.978  0.00  0.00    +0.000 HD
ENDBRANCH  27  28
ENDBRANCH  20  27
ENDBRANCH  19  24
ENDBRANCH  18  19
ENDBRANCH  17  18
ENDBRANCH   1  17
TORSDOF 9
ENDMDL
MODEL 4
REMARK VINA RESULT:      -7.7      6.686      9.790
REMARK  Name = 
REMARK  9 active torsions:
REMARK  status: ('A' for Active; 'I' for Inactive)
REMARK    1  A    between atoms: C_2  and  O_3
REMARK    2  A    between atoms: C_2  and  C_4
REMARK    3  A    between atoms: N_8  and  C_9
REMARK    4  A    between atoms: C_9  and  C_10
REMARK    5  A    between atoms: C_10  and  C_11
REMARK    6  A    between atoms: C_11  and  C_12
REMARK    7  A    between atoms: C_13  and  C_14
REMARK    8  A    between atoms: C_18  and  N_19
REMARK    9  A    between atoms: N_20  and  C_21
REMARK                            x       y       z     vdW  Elec       q    Type
REMARK                         _______ _______ _______ _____ _____    ______ ____
ROOT
ATOM      1  C   UNL     1       2.279   5.563  20.187  0.00  0.00    +0.000 C 
ATOM      2  C   UNL     1       2.012   6.720  20.011  0.00  0.00    +0.000 C 
ENDROOT
BRANCH   2   3
ATOM      3  C   UNL     1       1.692   8.096  19.784  0.00  0.00    +0.000 A 
ATOM      4  C   UNL     1       1.864   8.637  18.509  0.00  0.00    +0.000 A 
ATOM      5  C   UNL     1       1.565   9.977  18.278  0.00  0.00    +0.000 A 
ATOM      6  C   UNL     1       1.084  10.772  19.322  0.00  0.00    +0.000 A 
ATOM      7  C   UNL     1       0.890  10.243  20.605  0.00  0.00    +0.000 A 
ATOM      8  C   UNL     1       1.201   8.892  20.825  0.00  0.00    +0.000 A 
BRANCH   7   9
ATOM      9  N   UNL     1       0.297  11.072  21.580  0.00  0.00    +0.000 NA
ATOM     10  N   UNL     1      -0.887  11.370  21.319  0.00  0.00    +0.000 NA
BRANCH  10  11
ATOM     11  C   UNL     1      -1.416  12.282  22.262  0.00  0.00    +0.000 A 
ATOM     12  C   UNL     1      -0.677  13.432  22.564  0.00  0.00    +0.000 A 
ATOM     13  C   UNL     1      -1.144  14.368  23.493  0.00  0.00    +0.000 A 
ATOM     14  C   UNL     1      -2.366  14.167  24.130  0.00  0.00    +0.000 A 
ATOM     15  C   UNL     1      -3.127  13.037  23.829  0.00  0.00    +0.000 A 
ATOM     16  C   UNL     1      -2.657  12.106  22.898  0.00  0.00    +0.000 A 
ENDBRANCH  10  11
ENDBRANCH   7   9
ENDBRANCH   2   3
BRANCH   1  17
ATOM     17  C   UNL     1       2.621   4.159  20.432  0.00  0.00    +0.000 C 
BRANCH  17  18
ATOM     18  C   UNL     1       3.224   3.452  19.217  0.00  0.00    +0.000 C 
BRANCH  18  19
ATOM     19  C   UNL     1       4.737   3.190  19.325  0.00  0.00    +0.000 C 
BRANCH  19  24
ATOM     20  C   UNL     1       5.518   5.480  16.398  0.00  0.00    +0.000 C 
ATOM     21  C   UNL     1       6.205   6.631  17.133  0.00  0.00    +0.000 C 
ATOM     22  C   UNL     1       6.959   6.142  18.364  0.00  0.00    +0.000 C 
ATOM     23  C   UNL     1       6.098   5.229  19.239  0.00  0.00    +0.000 C 
ATOM     24  N   UNL     1       5.545   4.095  18.465  0.00  0.00    +0.000 NA
ATOM     25  C   UNL     1       4.696   4.612  17.359  0.00  0.00    +0.000 C 
BRANCH  20  27
ATOM     26  O   UNL     1       7.468   5.179  15.003  0.00  0.00    +0.000 OA
ATOM     27  C   UNL     1       6.525   4.670  15.595  0.00  0.00    +0.000 C 
BRANCH  27  28
ATOM     28  O   UNL     1       6.342   3.333  15.631  0.00  0.00    +0.000 OA
ATOM     29  H   UNL     1       6.973   2.854  15.038  0.00  0.00    +0.000 HD
ENDBRANCH  27  28
ENDBRANCH  20  27
ENDBRANCH  19  24
ENDBRANCH  18  19
ENDBRANCH  17  18
ENDBRANCH   1  17
TORSDOF 9
ENDMDL
MODEL 5
REMARK VINA RESULT:      -7.6      6.502      9.692
REMARK  Name = 
REMARK  9 active torsions:
REMARK  status: ('A' for Active; 'I' for Inactive)
REMARK    1  A    between atoms: C_2  and  O_3
REMARK    2  A    between atoms: C_2  and  C_4
REMARK    3  A    between atoms: N_8  and  C_9
REMARK    4  A    between atoms: C_9  and  C_10
REMARK    5  A    between atoms: C_10  and  C_11
REMARK    6  A    between atoms: C_11  and  C_12
REMARK    7  A    between atoms: C_13  and  C_14
REMARK    8  A    between atoms: C_18  and  N_19
REMARK    9  A    between atoms: N_20  and  C_21
REMARK                            x       y       z     vdW  Elec       q    Type
REMARK                         _______ _______ _______ _____ _____    ______ ____
ROOT
ATOM      1  C   UNL     1       2.067   5.452  20.459  0.00  0.00    +0.000 C 
ATOM      2  C   UNL     1       1.939   6.569  20.039  0.00  0.00    +0.000 C 
ENDROOT
BRANCH   2   3
ATOM      3  C   UNL     1       1.773   7.895  19.528  0.00  0.00    +0.000 A 
ATOM      4  C   UNL     1       2.251   8.202  18.253  0.00  0.00    +0.000 A 
ATOM      5  C   UNL     1       2.105   9.491  17.749  0.00  0.00    +0.000 A 
ATOM      6  C   UNL     1       1.471  10.471  18.518  0.00  0.00    +0.000 A 
ATOM      7  C   UNL     1       0.971  10.178  19.795  0.00  0.00    +0.000 A 
ATOM      8  C   UNL     1       1.130   8.875  20.292  0.00  0.00    +0.000 A 
BRANCH   7   9
ATOM      9  N   UNL     1       0.244  11.183  20.467  0.00  0.00    +0.000 NA
ATOM     10  N   UNL     1      -0.774  10.750  21.046  0.00  0.00    +0.000 NA
BRANCH  10  11
ATOM     11  C   UNL     1      -1.532  11.798  21.622  0.00  0.00    +0.000 A 
ATOM     12  C   UNL     1      -2.022  12.805  20.782  0.00  0.00    +0.000 A 
ATOM     13  C   UNL     1      -2.771  13.870  21.293  0.00  0.00    +0.000 A 
ATOM     14  C   UNL     1      -3.047  13.937  22.656  0.00  0.00    +0.000 A 
ATOM     15  C   UNL     1      -2.585  12.933  23.507  0.00  0.00    +0.000 A 
ATOM     16  C   UNL     1      -1.838  11.869  22.991  0.00  0.00    +0.000 A 
ENDBRANCH  10  11
ENDBRANCH   7   9
ENDBRANCH   2   3
BRANCH   1  17
ATOM     17  C   UNL     1       2.256   4.095  20.980  0.00  0.00    +0.000 C 
BRANCH  17  18
ATOM     18  C   UNL     1       3.345   3.304  20.256  0.00  0.00    +0.000 C 
BRANCH  18  19
ATOM     19  C   UNL     1       3.375   3.518  18.732  0.00  0.00    +0.000 C 
BRANCH  19  24
ATOM     20  C   UNL     1       5.646   5.628  16.537  0.00  0.00    +0.000 C 
ATOM     21  C   UNL     1       6.450   6.362  17.611  0.00  0.00    +0.000 C 
ATOM     22  C   UNL     1       6.630   5.508  18.860  0.00  0.00    +0.000 C 
ATOM     23  C   UNL     1       5.309   4.901  19.335  0.00  0.00    +0.000 C 
ATOM     24  N   UNL     1       4.642   4.136  18.258  0.00  0.00    +0.000 NA
ATOM     25  C   UNL     1       4.352   5.039  17.112  0.00  0.00    +0.000 C 
BRANCH  20  27
ATOM     26  O   UNL     1       7.596   4.839  15.348  0.00  0.00    +0.000 OA
ATOM     27  C   UNL     1       6.502   4.584  15.836  0.00  0.00    +0.000 C 
BRANCH  27  28
ATOM     28  O   UNL     1       5.996   3.332  15.841  0.00  0.00    +0.000 OA
ATOM     29  H   UNL     1       5.102   3.294  16.264  0.00  0.00    +0.000 HD
ENDBRANCH  27  28
ENDBRANCH  20  27
ENDBRANCH  19  24
ENDBRANCH  18  19
ENDBRANCH  17  18
ENDBRANCH   1  17
TORSDOF 9
ENDMDL
MODEL 6
REMARK VINA RESULT:      -7.6      5.241     10.786
REMARK  Name = 
REMARK  9 active torsions:
REMARK  status: ('A' for Active; 'I' for Inactive)
REMARK    1  A    between atoms: C_2  and  O_3
REMARK    2  A    between atoms: C_2  and  C_4
REMARK    3  A    between atoms: N_8  and  C_9
REMARK    4  A    between atoms: C_9  and  C_10
REMARK    5  A    between atoms: C_10  and  C_11
REMARK    6  A    between atoms: C_11  and  C_12
REMARK    7  A    between atoms: C_13  and  C_14
REMARK    8  A    between atoms: C_18  and  N_19
REMARK    9  A    between atoms: N_20  and  C_21
REMARK                            x       y       z     vdW  Elec       q    Type
REMARK                         _______ _______ _______ _____ _____    ______ ____
ROOT
ATOM      1  C   UNL     1       7.872   8.376  17.810  0.00  0.00    +0.000 C 
ATOM      2  C   UNL     1       8.529   9.285  18.236  0.00  0.00    +0.000 C 
ENDROOT
BRANCH   2   3
ATOM      3  C   UNL     1       9.317  10.373  18.728  0.00  0.00    +0.000 A 
ATOM      4  C   UNL     1      10.236  10.992  17.878  0.00  0.00    +0.000 A 
ATOM      5  C   UNL     1      11.015  12.046  18.348  0.00  0.00    +0.000 A 
ATOM      6  C   UNL     1      10.867  12.487  19.666  0.00  0.00    +0.000 A 
ATOM      7  C   UNL     1       9.939  11.888  20.529  0.00  0.00    +0.000 A 
ATOM      8  C   UNL     1       9.164  10.824  20.044  0.00  0.00    +0.000 A 
BRANCH   7   9
ATOM      9  N   UNL     1       9.763  12.457  21.808  0.00  0.00    +0.000 NA
ATOM     10  N   UNL     1       8.672  12.156  22.335  0.00  0.00    +0.000 NA
BRANCH  10  11
ATOM     11  C   UNL     1       8.486  12.824  23.568  0.00  0.00    +0.000 A 
ATOM     12  C   UNL     1       8.167  12.061  24.698  0.00  0.00    +0.000 A 
ATOM     13  C   UNL     1       7.965  12.665  25.943  0.00  0.00    +0.000 A 
ATOM     14  C   UNL     1       8.088  14.046  26.076  0.00  0.00    +0.000 A 
ATOM     15  C   UNL     1       8.424  14.822  24.967  0.00  0.00    +0.000 A 
ATOM     16  C   UNL     1       8.627  14.214  23.725  0.00  0.00    +0.000 A 
ENDBRANCH  10  11
ENDBRANCH   7   9
ENDBRANCH   2   3
BRANCH   1  17
ATOM     17  C   UNL     1       7.073   7.249  17.319  0.00  0.00    +0.000 C 
BRANCH  17  18
ATOM     18  C   UNL     1       7.460   5.906  17.938  0.00  0.00    +0.000 C 
BRANCH  18  19
ATOM     19  C   UNL     1       6.709   5.569  19.239  0.00  0.00    +0.000 C 
BRANCH  19  24
ATOM     20  C   UNL     1       2.992   4.789  19.147  0.00  0.00    +0.000 C 
ATOM     21  C   UNL     1       2.887   4.150  17.761  0.00  0.00    +0.000 C 
ATOM     22  C   UNL     1       4.164   3.410  17.384  0.00  0.00    +0.000 C 
ATOM     23  C   UNL     1       5.412   4.264  17.616  0.00  0.00    +0.000 C 
ATOM     24  N   UNL     1       5.477   4.768  19.006  0.00  0.00    +0.000 NA
ATOM     25  C   UNL     1       4.282   5.607  19.289  0.00  0.00    +0.000 C 
BRANCH  20  27
ATOM     26  O   UNL     1       3.286   2.607  20.141  0.00  0.00    +0.000 OA
ATOM     27  C   UNL     1       2.840   3.742  20.240  0.00  0.00    +0.000 C 
BRANCH  27  28
ATOM     28  O   UNL     1       2.227   4.174  21.363  0.00  0.00    +0.000 OA
ATOM     29  H   UNL     1       2.080   5.153  21.354  0.00  0.00    +0.000 HD
ENDBRANCH  27  28
ENDBRANCH  20  27
ENDBRANCH  19  24
ENDBRANCH  18  19
ENDBRANCH  17  18
ENDBRANCH   1  17
TORSDOF 9
ENDMDL
MODEL 7
REMARK VINA RESULT:      -7.5      5.120     10.959
REMARK  Name = 
REMARK  9 active torsions:
REMARK  status: ('A' for Active; 'I' for Inactive)
REMARK    1  A    between atoms: C_2  and  O_3
REMARK    2  A    between atoms: C_2  and  C_4
REMARK    3  A    between atoms: N_8  and  C_9
REMARK    4  A    between atoms: C_9  and  C_10
REMARK    5  A    between atoms: C_10  and  C_11
REMARK    6  A    between atoms: C_11  and  C_12
REMARK    7  A    between atoms: C_13  and  C_14
REMARK    8  A    between atoms: C_18  and  N_19
REMARK    9  A    between atoms: N_20  and  C_21
REMARK                            x       y       z     vdW  Elec       q    Type
REMARK                         _______ _______ _______ _____ _____    ______ ____
ROOT
ATOM      1  C   UNL     1       7.853   8.108  17.716  0.00  0.00    +0.000 C 
ATOM      2  C   UNL     1       8.428   9.067  18.151  0.00  0.00    +0.000 C 
ENDROOT
BRANCH   2   3
ATOM      3  C   UNL     1       9.103  10.211  18.684  0.00  0.00    +0.000 A 
ATOM      4  C   UNL     1       9.855  11.021  17.831  0.00  0.00    +0.000 A 
ATOM      5  C   UNL     1      10.524  12.131  18.339  0.00  0.00    +0.000 A 
ATOM      6  C   UNL     1      10.431  12.436  19.700  0.00  0.00    +0.000 A 
ATOM      7  C   UNL     1       9.668  11.644  20.569  0.00  0.00    +0.000 A 
ATOM      8  C   UNL     1       9.003  10.525  20.044  0.00  0.00    +0.000 A 
BRANCH   7   9
ATOM      9  N   UNL     1       9.527  12.074  21.905  0.00  0.00    +0.000 NA
ATOM     10  N   UNL     1       8.716  13.015  22.037  0.00  0.00    +0.000 NA
BRANCH  10  11
ATOM     11  C   UNL     1       8.677  13.487  23.370  0.00  0.00    +0.000 A 
ATOM     12  C   UNL     1       8.975  14.834  23.609  0.00  0.00    +0.000 A 
ATOM     13  C   UNL     1       8.959  15.358  24.906  0.00  0.00    +0.000 A 
ATOM     14  C   UNL     1       8.637  14.538  25.984  0.00  0.00    +0.000 A 
ATOM     15  C   UNL     1       8.318  13.198  25.766  0.00  0.00    +0.000 A 
ATOM     16  C   UNL     1       8.333  12.680  24.468  0.00  0.00    +0.000 A 
ENDBRANCH  10  11
ENDBRANCH   7   9
ENDBRANCH   2   3
BRANCH   1  17
ATOM     17  C   UNL     1       7.162   6.945  17.152  0.00  0.00    +0.000 C 
BRANCH  17  18
ATOM     18  C   UNL     1       7.287   5.682  18.005  0.00  0.00    +0.000 C 
BRANCH  18  19
ATOM     19  C   UNL     1       6.264   5.590  19.151  0.00  0.00    +0.000 C 
BRANCH  19  24
ATOM     20  C   UNL     1       3.070   3.534  19.132  0.00  0.00    +0.000 C 
ATOM     21  C   UNL     1       2.036   4.646  18.959  0.00  0.00    +0.000 C 
ATOM     22  C   UNL     1       2.589   5.805  18.139  0.00  0.00    +0.000 C 
ATOM     23  C   UNL     1       3.960   6.261  18.641  0.00  0.00    +0.000 C 
ATOM     24  N   UNL     1       4.922   5.137  18.695  0.00  0.00    +0.000 NA
ATOM     25  C   UNL     1       4.414   4.090  19.620  0.00  0.00    +0.000 C 
BRANCH  20  27
ATOM     26  O   UNL     1       2.281   2.547  17.073  0.00  0.00    +0.000 OA
ATOM     27  C   UNL     1       3.205   2.713  17.859  0.00  0.00    +0.000 C 
BRANCH  27  28
ATOM     28  O   UNL     1       4.441   2.225  17.621  0.00  0.00    +0.000 OA
ATOM     29  H   UNL     1       5.023   2.889  17.173  0.00  0.00    +0.000 HD
ENDBRANCH  27  28
ENDBRANCH  20  27
ENDBRANCH  19  24
ENDBRANCH  18  19
ENDBRANCH  17  18
ENDBRANCH   1  17
TORSDOF 9
ENDMDL
MODEL 8
REMARK VINA RESULT:      -7.5      8.328     11.805
REMARK  Name = 
REMARK  9 active torsions:
REMARK  status: ('A' for Active; 'I' for Inactive)
REMARK    1  A    between atoms: C_2  and  O_3
REMARK    2  A    between atoms: C_2  and  C_4
REMARK    3  A    between atoms: N_8  and  C_9
REMARK    4  A    between atoms: C_9  and  C_10
REMARK    5  A    between atoms: C_10  and  C_11
REMARK    6  A    between atoms: C_11  and  C_12
REMARK    7  A    between atoms: C_13  and  C_14
REMARK    8  A    between atoms: C_18  and  N_19
REMARK    9  A    between atoms: N_20  and  C_21
REMARK                            x       y       z     vdW  Elec       q    Type
REMARK                         _______ _______ _______ _____ _____    ______ ____
ROOT
ATOM      1  C   UNL     1       1.690   8.853  18.195  0.00  0.00    +0.000 C 
ATOM      2  C   UNL     1       0.667   9.476  18.264  0.00  0.00    +0.000 C 
ENDROOT
BRANCH   2   3
ATOM      3  C   UNL     1      -0.549  10.227  18.331  0.00  0.00    +0.000 A 
ATOM      4  C   UNL     1      -1.490  10.100  17.307  0.00  0.00    +0.000 A 
ATOM      5  C   UNL     1      -2.672  10.833  17.357  0.00  0.00    +0.000 A 
ATOM      6  C   UNL     1      -2.917  11.686  18.437  0.00  0.00    +0.000 A 
ATOM      7  C   UNL     1      -1.992  11.815  19.482  0.00  0.00    +0.000 A 
ATOM      8  C   UNL     1      -0.802  11.074  19.416  0.00  0.00    +0.000 A 
BRANCH   7   9
ATOM      9  N   UNL     1      -2.355  12.605  20.593  0.00  0.00    +0.000 NA
ATOM     10  N   UNL     1      -1.934  12.152  21.678  0.00  0.00    +0.000 NA
BRANCH  10  11
ATOM     11  C   UNL     1      -2.401  12.912  22.776  0.00  0.00    +0.000 A 
ATOM     12  C   UNL     1      -1.835  14.172  23.005  0.00  0.00    +0.000 A 
ATOM     13  C   UNL     1      -2.250  14.966  24.078  0.00  0.00    +0.000 A 
ATOM     14  C   UNL     1      -3.248  14.511  24.936  0.00  0.00    +0.000 A 
ATOM     15  C   UNL     1      -3.838  13.268  24.715  0.00  0.00    +0.000 A 
ATOM     16  C   UNL     1      -3.422  12.478  23.639  0.00  0.00    +0.000 A 
ENDBRANCH  10  11
ENDBRANCH   7   9
ENDBRANCH   2   3
BRANCH   1  17
ATOM     17  C   UNL     1       2.939   8.087  18.145  0.00  0.00    +0.000 C 
BRANCH  17  18
ATOM     18  C   UNL     1       2.785   6.700  17.522  0.00  0.00    +0.000 C 
BRANCH  18  19
ATOM     19  C   UNL     1       3.905   5.712  17.893  0.00  0.00    +0.000 C 
BRANCH  19  24
ATOM     20  C   UNL     1       1.425   3.559  19.803  0.00  0.00    +0.000 C 
ATOM     21  C   UNL     1       1.782   2.181  19.246  0.00  0.00    +0.000 C 
ATOM     22  C   UNL     1       3.260   2.083  18.891  0.00  0.00    +0.000 C 
ATOM     23  C   UNL     1       3.727   3.270  18.046  0.00  0.00    +0.000 C 
ATOM     24  N   UNL     1       3.419   4.561  18.701  0.00  0.00    +0.000 NA
ATOM     25  C   UNL     1       1.951   4.682  18.899  0.00  0.00    +0.000 C 
BRANCH  20  27
ATOM     26  O   UNL     1       1.782   2.807  22.071  0.00  0.00    +0.000 OA
ATOM     27  C   UNL     1       1.894   3.701  21.243  0.00  0.00    +0.000 C 
BRANCH  27  28
ATOM     28  O   UNL     1       2.504   4.870  21.533  0.00  0.00    +0.000 OA
ATOM     29  H   UNL     1       3.408   4.735  21.914  0.00  0.00    +0.000 HD
ENDBRANCH  27  28
ENDBRANCH  20  27
ENDBRANCH  19  24
ENDBRANCH  18  19
ENDBRANCH  17  18
ENDBRANCH   1  17
TORSDOF 9
ENDMDL
MODEL 9
REMARK VINA RESULT:      -7.5      8.524     12.031
REMARK  Name = 
REMARK  9 active torsions:
REMARK  status: ('A' for Active; 'I' for Inactive)
REMARK    1  A    between atoms: C_2  and  O_3
REMARK    2  A    between atoms: C_2  and  C_4
REMARK    3  A    between atoms: N_8  and  C_9
REMARK    4  A    between atoms: C_9  and  C_10
REMARK    5  A    between atoms: C_10  and  C_11
REMARK    6  A    between atoms: C_11  and  C_12
REMARK    7  A    between atoms: C_13  and  C_14
REMARK    8  A    between atoms: C_18  and  N_19
REMARK    9  A    between atoms: N_20  and  C_21
REMARK                            x       y       z     vdW  Elec       q    Type
REMARK                         _______ _______ _______ _____ _____    ______ ____
ROOT
ATOM      1  C   UNL     1       1.900   8.897  17.880  0.00  0.00    +0.000 C 
ATOM      2  C   UNL     1       0.914   9.521  18.161  0.00  0.00    +0.000 C 
ENDROOT
BRANCH   2   3
ATOM      3  C   UNL     1      -0.253  10.269  18.512  0.00  0.00    +0.000 A 
ATOM      4  C   UNL     1      -1.378  10.209  17.687  0.00  0.00    +0.000 A 
ATOM      5  C   UNL     1      -2.517  10.940  18.012  0.00  0.00    +0.000 A 
ATOM      6  C   UNL     1      -2.533  11.724  19.169  0.00  0.00    +0.000 A 
ATOM      7  C   UNL     1      -1.420  11.785  20.018  0.00  0.00    +0.000 A 
ATOM      8  C   UNL     1      -0.276  11.047  19.675  0.00  0.00    +0.000 A 
BRANCH   7   9
ATOM      9  N   UNL     1      -1.546  12.505  21.225  0.00  0.00    +0.000 NA
ATOM     10  N   UNL     1      -2.725  12.816  21.492  0.00  0.00    +0.000 NA
BRANCH  10  11
ATOM     11  C   UNL     1      -2.802  13.623  22.652  0.00  0.00    +0.000 A 
ATOM     12  C   UNL     1      -4.061  14.072  23.069  0.00  0.00    +0.000 A 
ATOM     13  C   UNL     1      -4.200  14.877  24.204  0.00  0.00    +0.000 A 
ATOM     14  C   UNL     1      -3.077  15.239  24.944  0.00  0.00    +0.000 A 
ATOM     15  C   UNL     1      -1.817  14.786  24.556  0.00  0.00    +0.000 A 
ATOM     16  C   UNL     1      -1.682  13.980  23.422  0.00  0.00    +0.000 A 
ENDBRANCH  10  11
ENDBRANCH   7   9
ENDBRANCH   2   3
BRANCH   1  17
ATOM     17  C   UNL     1       3.086   8.115  17.515  0.00  0.00    +0.000 C 
BRANCH  17  18
ATOM     18  C   UNL     1       3.311   6.890  18.401  0.00  0.00    +0.000 C 
BRANCH  18  19
ATOM     19  C   UNL     1       3.217   5.546  17.656  0.00  0.00    +0.000 C 
BRANCH  19  24
ATOM     20  C   UNL     1       1.188   3.278  19.930  0.00  0.00    +0.000 C 
ATOM     21  C   UNL     1       1.614   1.911  19.394  0.00  0.00    +0.000 C 
ATOM     22  C   UNL     1       3.045   1.931  18.874  0.00  0.00    +0.000 C 
ATOM     23  C   UNL     1       3.297   3.110  17.931  0.00  0.00    +0.000 C 
ATOM     24  N   UNL     1       2.939   4.399  18.563  0.00  0.00    +0.000 NA
ATOM     25  C   UNL     1       1.497   4.395  18.925  0.00  0.00    +0.000 C 
BRANCH  20  27
ATOM     26  O   UNL     1       1.774   2.717  22.206  0.00  0.00    +0.000 OA
ATOM     27  C   UNL     1       1.799   3.539  21.299  0.00  0.00    +0.000 C 
BRANCH  27  28
ATOM     28  O   UNL     1       2.430   4.725  21.427  0.00  0.00    +0.000 OA
ATOM     29  H   UNL     1       1.862   5.404  21.871  0.00  0.00    +0.000 HD
ENDBRANCH  27  28
ENDBRANCH  20  27
ENDBRANCH  19  24
ENDBRANCH  18  19
ENDBRANCH  17  18
ENDBRANCH   1  17
TORSDOF 9
ENDMDL
