MODEL 1
REMARK VINA RESULT:      -6.3      0.000      0.000
REMARK  Name = 
REMARK  9 active torsions:
REMARK  status: ('A' for Active; 'I' for Inactive)
REMARK    1  A    between atoms: C_1  and  N_2
REMARK    2  A    between atoms: N_2  and  O_3
REMARK    3  A    between atoms: C_4  and  C_6
REMARK    4  A    between atoms: C_6  and  S_7
REMARK    5  A    between atoms: S_7  and  C_8
REMARK    6  A    between atoms: C_8  and  C_9
REMARK    7  A    between atoms: C_8  and  P_15
REMARK    8  A    between atoms: P_15  and  O_17
REMARK    9  A    between atoms: P_15  and  O_18
REMARK                            x       y       z     vdW  Elec       q    Type
REMARK                         _______ _______ _______ _____ _____    ______ ____
ROOT
ATOM      1  C   UNL     1       4.493   4.931  18.080  0.00  0.00    +0.000 C 
ENDROOT
BRANCH   1   2
ATOM      2  C   UNL     1       3.649   6.193  18.416  0.00  0.00    +0.000 A 
ATOM      3  C   UNL     1       3.547   7.284  17.530  0.00  0.00    +0.000 A 
ATOM      4  C   UNL     1       2.698   8.366  17.782  0.00  0.00    +0.000 A 
ATOM      5  C   UNL     1       1.935   8.380  18.941  0.00  0.00    +0.000 A 
ATOM      6  C   UNL     1       2.031   7.327  19.845  0.00  0.00    +0.000 A 
ATOM      7  C   UNL     1       2.894   6.247  19.606  0.00  0.00    +0.000 A 
ENDBRANCH   1   2
BRANCH   1   8
ATOM      8  P   UNL     1       3.727   3.430  18.795  0.00  0.00    +0.000 P 
ATOM      9  O   UNL     1       3.505   2.803  17.421  0.00  0.00    +0.000 OA
BRANCH   8  10
ATOM     10  O   UNL     1       5.141   2.887  19.435  0.00  0.00    +0.000 OA
ATOM     11  H   UNL     1       5.143   2.826  20.416  0.00  0.00    +0.000 HD
ENDBRANCH   8  10
BRANCH   8  12
ATOM     12  O   UNL     1       3.004   2.013  19.471  0.00  0.00    +0.000 OA
ATOM     13  H   UNL     1       2.187   1.895  18.947  0.00  0.00    +0.000 HD
ENDBRANCH   8  12
ENDBRANCH   1   8
BRANCH   1  14
ATOM     14  S   UNL     1       6.208   5.236  18.900  0.00  0.00    +0.000 S 
BRANCH  14  15
ATOM     15  C   UNL     1       7.462   4.699  17.641  0.00  0.00    +0.000 C 
BRANCH  15  18
ATOM     16  C   UNL     1       6.181   4.362  14.021  0.00  0.00    +0.000 C 
ATOM     17  N   UNL     1       6.694   4.064  15.344  0.00  0.00    +0.000 N 
ATOM     18  C   UNL     1       6.939   5.095  16.241  0.00  0.00    +0.000 C 
ATOM     19  O   UNL     1       6.857   6.285  15.908  0.00  0.00    +0.000 OA
BRANCH  17  20
ATOM     20  O   UNL     1       6.052   2.932  15.905  0.00  0.00    +0.000 OA
ATOM     21  H   UNL     1       6.631   2.201  15.598  0.00  0.00    +0.000 HD
ENDBRANCH  17  20
ENDBRANCH  15  18
ENDBRANCH  14  15
ENDBRANCH   1  14
TORSDOF 8
ENDMDL
MODEL 2
REMARK VINA RESULT:      -6.2      1.201      1.512
REMARK  Name = 
REMARK  9 active torsions:
REMARK  status: ('A' for Active; 'I' for Inactive)
REMARK    1  A    between atoms: C_1  and  N_2
REMARK    2  A    between atoms: N_2  and  O_3
REMARK    3  A    between atoms: C_4  and  C_6
REMARK    4  A    between atoms: C_6  and  S_7
REMARK    5  A    between atoms: S_7  and  C_8
REMARK    6  A    between atoms: C_8  and  C_9
REMARK    7  A    between atoms: C_8  and  P_15
REMARK    8  A    between atoms: P_15  and  O_17
REMARK    9  A    between atoms: P_15  and  O_18
REMARK                            x       y       z     vdW  Elec       q    Type
REMARK                         _______ _______ _______ _____ _____    ______ ____
ROOT
ATOM      1  C   UNL     1       3.737   4.638  18.031  0.00  0.00    +0.000 C 
ENDROOT
BRANCH   1   2
ATOM      2  C   UNL     1       3.074   5.909  18.632  0.00  0.00    +0.000 A 
ATOM      3  C   UNL     1       2.972   7.115  17.909  0.00  0.00    +0.000 A 
ATOM      4  C   UNL     1       2.274   8.220  18.407  0.00  0.00    +0.000 A 
ATOM      5  C   UNL     1       1.668   8.141  19.653  0.00  0.00    +0.000 A 
ATOM      6  C   UNL     1       1.771   6.972  20.399  0.00  0.00    +0.000 A 
ATOM      7  C   UNL     1       2.484   5.865  19.913  0.00  0.00    +0.000 A 
ENDBRANCH   1   2
BRANCH   1   8
ATOM      8  P   UNL     1       2.677   3.169  18.292  0.00  0.00    +0.000 P 
ATOM      9  O   UNL     1       1.810   3.492  17.077  0.00  0.00    +0.000 OA
BRANCH   8  10
ATOM     10  O   UNL     1       3.861   2.110  17.867  0.00  0.00    +0.000 OA
ATOM     11  H   UNL     1       3.649   1.169  18.058  0.00  0.00    +0.000 HD
ENDBRANCH   8  10
BRANCH   8  12
ATOM     12  O   UNL     1       1.676   1.781  18.538  0.00  0.00    +0.000 OA
ATOM     13  H   UNL     1       1.211   1.675  17.685  0.00  0.00    +0.000 HD
ENDBRANCH   8  12
ENDBRANCH   1   8
BRANCH   1  14
ATOM     14  S   UNL     1       5.389   4.425  18.997  0.00  0.00    +0.000 S 
BRANCH  14  15
ATOM     15  C   UNL     1       6.581   5.608  18.208  0.00  0.00    +0.000 C 
BRANCH  15  18
ATOM     16  C   UNL     1       6.754   4.602  14.490  0.00  0.00    +0.000 C 
ATOM     17  N   UNL     1       6.320   5.153  15.759  0.00  0.00    +0.000 N 
ATOM     18  C   UNL     1       7.095   4.971  16.896  0.00  0.00    +0.000 C 
ATOM     19  O   UNL     1       8.093   4.237  16.896  0.00  0.00    +0.000 OA
BRANCH  17  20
ATOM     20  O   UNL     1       5.797   6.461  15.603  0.00  0.00    +0.000 OA
ATOM     21  H   UNL     1       4.953   6.399  16.102  0.00  0.00    +0.000 HD
ENDBRANCH  17  20
ENDBRANCH  15  18
ENDBRANCH  14  15
ENDBRANCH   1  14
TORSDOF 8
ENDMDL
MODEL 3
REMARK VINA RESULT:      -6.2      1.322      1.985
REMARK  Name = 
REMARK  9 active torsions:
REMARK  status: ('A' for Active; 'I' for Inactive)
REMARK    1  A    between atoms: C_1  and  N_2
REMARK    2  A    between atoms: N_2  and  O_3
REMARK    3  A    between atoms: C_4  and  C_6
REMARK    4  A    between atoms: C_6  and  S_7
REMARK    5  A    between atoms: S_7  and  C_8
REMARK    6  A    between atoms: C_8  and  C_9
REMARK    7  A    between atoms: C_8  and  P_15
REMARK    8  A    between atoms: P_15  and  O_17
REMARK    9  A    between atoms: P_15  and  O_18
REMARK                            x       y       z     vdW  Elec       q    Type
REMARK                         _______ _______ _______ _____ _____    ______ ____
ROOT
ATOM      1  C   UNL     1       3.476   4.574  18.079  0.00  0.00    +0.000 C 
ENDROOT
BRANCH   1   2
ATOM      2  C   UNL     1       2.787   5.820  18.701  0.00  0.00    +0.000 A 
ATOM      3  C   UNL     1       2.247   5.806  20.003  0.00  0.00    +0.000 A 
ATOM      4  C   UNL     1       1.731   6.960  20.603  0.00  0.00    +0.000 A 
ATOM      5  C   UNL     1       1.737   8.156  19.901  0.00  0.00    +0.000 A 
ATOM      6  C   UNL     1       2.243   8.196  18.606  0.00  0.00    +0.000 A 
ATOM      7  C   UNL     1       2.747   7.039  17.992  0.00  0.00    +0.000 A 
ENDBRANCH   1   2
BRANCH   1   8
ATOM      8  P   UNL     1       2.480   3.067  18.375  0.00  0.00    +0.000 P 
ATOM      9  O   UNL     1       1.432   3.471  17.340  0.00  0.00    +0.000 OA
BRANCH   8  10
ATOM     10  O   UNL     1       3.592   2.071  17.685  0.00  0.00    +0.000 OA
ATOM     11  H   UNL     1       3.352   1.118  17.712  0.00  0.00    +0.000 HD
ENDBRANCH   8  10
BRANCH   8  12
ATOM     12  O   UNL     1       1.540   1.643  18.655  0.00  0.00    +0.000 OA
ATOM     13  H   UNL     1       2.189   0.916  18.577  0.00  0.00    +0.000 HD
ENDBRANCH   8  12
ENDBRANCH   1   8
BRANCH   1  14
ATOM     14  S   UNL     1       5.166   4.423  18.988  0.00  0.00    +0.000 S 
BRANCH  14  15
ATOM     15  C   UNL     1       6.270   5.688  18.197  0.00  0.00    +0.000 C 
BRANCH  15  18
ATOM     16  C   UNL     1       6.774   4.580  14.539  0.00  0.00    +0.000 C 
ATOM     17  N   UNL     1       6.214   5.139  15.755  0.00  0.00    +0.000 N 
ATOM     18  C   UNL     1       6.918   5.049  16.948  0.00  0.00    +0.000 C 
ATOM     19  O   UNL     1       7.962   4.388  17.043  0.00  0.00    +0.000 OA
BRANCH  17  20
ATOM     20  O   UNL     1       5.614   6.401  15.516  0.00  0.00    +0.000 OA
ATOM     21  H   UNL     1       4.676   6.222  15.743  0.00  0.00    +0.000 HD
ENDBRANCH  17  20
ENDBRANCH  15  18
ENDBRANCH  14  15
ENDBRANCH   1  14
TORSDOF 8
ENDMDL
MODEL 4
REMARK VINA RESULT:      -6.1      2.653      3.298
REMARK  Name = 
REMARK  9 active torsions:
REMARK  status: ('A' for Active; 'I' for Inactive)
REMARK    1  A    between atoms: C_1  and  N_2
REMARK    2  A    between atoms: N_2  and  O_3
REMARK    3  A    between atoms: C_4  and  C_6
REMARK    4  A    between atoms: C_6  and  S_7
REMARK    5  A    between atoms: S_7  and  C_8
REMARK    6  A    between atoms: C_8  and  C_9
REMARK    7  A    between atoms: C_8  and  P_15
REMARK    8  A    between atoms: P_15  and  O_17
REMARK    9  A    between atoms: P_15  and  O_18
REMARK                            x       y       z     vdW  Elec       q    Type
REMARK                         _______ _______ _______ _____ _____    ______ ____
ROOT
ATOM      1  C   UNL     1       5.486   4.461  18.207  0.00  0.00    +0.000 C 
ENDROOT
BRANCH   1   2
ATOM      2  C   UNL     1       4.253   4.794  19.093  0.00  0.00    +0.000 A 
ATOM      3  C   UNL     1       3.635   6.061  19.073  0.00  0.00    +0.000 A 
ATOM      4  C   UNL     1       2.459   6.322  19.783  0.00  0.00    +0.000 A 
ATOM      5  C   UNL     1       1.880   5.315  20.542  0.00  0.00    +0.000 A 
ATOM      6  C   UNL     1       2.480   4.061  20.599  0.00  0.00    +0.000 A 
ATOM      7  C   UNL     1       3.669   3.797  19.902  0.00  0.00    +0.000 A 
ENDBRANCH   1   2
BRANCH   1   8
ATOM      8  P   UNL     1       6.877   5.591  18.581  0.00  0.00    +0.000 P 
ATOM      9  O   UNL     1       6.955   5.127  20.034  0.00  0.00    +0.000 OA
BRANCH   8  10
ATOM     10  O   UNL     1       7.948   4.743  17.666  0.00  0.00    +0.000 OA
ATOM     11  H   UNL     1       8.889   4.986  17.817  0.00  0.00    +0.000 HD
ENDBRANCH   8  10
BRANCH   8  12
ATOM     12  O   UNL     1       8.191   6.658  18.934  0.00  0.00    +0.000 OA
ATOM     13  H   UNL     1       8.694   6.694  18.097  0.00  0.00    +0.000 HD
ENDBRANCH   8  12
ENDBRANCH   1   8
BRANCH   1  14
ATOM     14  S   UNL     1       4.897   4.737  16.395  0.00  0.00    +0.000 S 
BRANCH  14  15
ATOM     15  C   UNL     1       5.865   3.532  15.369  0.00  0.00    +0.000 C 
BRANCH  15  18
ATOM     16  C   UNL     1       7.369   4.637  11.996  0.00  0.00    +0.000 C 
ATOM     17  N   UNL     1       6.632   3.917  13.017  0.00  0.00    +0.000 N 
ATOM     18  C   UNL     1       6.695   4.333  14.340  0.00  0.00    +0.000 C 
ATOM     19  O   UNL     1       7.467   5.230  14.708  0.00  0.00    +0.000 OA
BRANCH  17  20
ATOM     20  O   UNL     1       5.335   3.565  12.569  0.00  0.00    +0.000 OA
ATOM     21  H   UNL     1       5.418   3.692  11.598  0.00  0.00    +0.000 HD
ENDBRANCH  17  20
ENDBRANCH  15  18
ENDBRANCH  14  15
ENDBRANCH   1  14
TORSDOF 8
ENDMDL
MODEL 5
REMARK VINA RESULT:      -6.1      2.647      4.499
REMARK  Name = 
REMARK  9 active torsions:
REMARK  status: ('A' for Active; 'I' for Inactive)
REMARK    1  A    between atoms: C_1  and  N_2
REMARK    2  A    between atoms: N_2  and  O_3
REMARK    3  A    between atoms: C_4  and  C_6
REMARK    4  A    between atoms: C_6  and  S_7
REMARK    5  A    between atoms: S_7  and  C_8
REMARK    6  A    between atoms: C_8  and  C_9
REMARK    7  A    between atoms: C_8  and  P_15
REMARK    8  A    between atoms: P_15  and  O_17
REMARK    9  A    between atoms: P_15  and  O_18
REMARK                            x       y       z     vdW  Elec       q    Type
REMARK                         _______ _______ _______ _____ _____    ______ ____
ROOT
ATOM      1  C   UNL     1       4.728   4.587  18.204  0.00  0.00    +0.000 C 
ENDROOT
BRANCH   1   2
ATOM      2  C   UNL     1       3.897   5.881  18.430  0.00  0.00    +0.000 A 
ATOM      3  C   UNL     1       3.869   6.928  17.487  0.00  0.00    +0.000 A 
ATOM      4  C   UNL     1       3.032   8.039  17.639  0.00  0.00    +0.000 A 
ATOM      5  C   UNL     1       2.209   8.127  18.752  0.00  0.00    +0.000 A 
ATOM      6  C   UNL     1       2.232   7.119  19.711  0.00  0.00    +0.000 A 
ATOM      7  C   UNL     1       3.081   6.011  19.573  0.00  0.00    +0.000 A 
ENDBRANCH   1   2
BRANCH   1   8
ATOM      8  P   UNL     1       6.256   4.954  17.265  0.00  0.00    +0.000 P 
ATOM      9  O   UNL     1       7.153   4.594  18.447  0.00  0.00    +0.000 OA
BRANCH   8  10
ATOM     10  O   UNL     1       6.084   3.650  16.277  0.00  0.00    +0.000 OA
ATOM     11  H   UNL     1       6.115   3.864  15.317  0.00  0.00    +0.000 HD
ENDBRANCH   8  10
BRANCH   8  12
ATOM     12  O   UNL     1       7.698   5.300  16.377  0.00  0.00    +0.000 OA
ATOM     13  H   UNL     1       7.525   4.920  15.493  0.00  0.00    +0.000 HD
ENDBRANCH   8  12
ENDBRANCH   1   8
BRANCH   1  14
ATOM     14  S   UNL     1       3.591   3.430  17.167  0.00  0.00    +0.000 S 
BRANCH  14  15
ATOM     15  C   UNL     1       3.426   1.873  18.163  0.00  0.00    +0.000 C 
BRANCH  15  18
ATOM     16  C   UNL     1       1.173   3.130  21.028  0.00  0.00    +0.000 C 
ATOM     17  N   UNL     1       1.679   2.768  19.718  0.00  0.00    +0.000 N 
ATOM     18  C   UNL     1       2.964   2.259  19.587  0.00  0.00    +0.000 C 
ATOM     19  O   UNL     1       3.752   2.221  20.542  0.00  0.00    +0.000 OA
BRANCH  17  20
ATOM     20  O   UNL     1       0.696   2.095  18.950  0.00  0.00    +0.000 OA
ATOM     21  H   UNL     1       0.441   1.361  19.551  0.00  0.00    +0.000 HD
ENDBRANCH  17  20
ENDBRANCH  15  18
ENDBRANCH  14  15
ENDBRANCH   1  14
TORSDOF 8
ENDMDL
MODEL 6
REMARK VINA RESULT:      -6.1      3.168      5.810
REMARK  Name = 
REMARK  9 active torsions:
REMARK  status: ('A' for Active; 'I' for Inactive)
REMARK    1  A    between atoms: C_1  and  N_2
REMARK    2  A    between atoms: N_2  and  O_3
REMARK    3  A    between atoms: C_4  and  C_6
REMARK    4  A    between atoms: C_6  and  S_7
REMARK    5  A    between atoms: S_7  and  C_8
REMARK    6  A    between atoms: C_8  and  C_9
REMARK    7  A    between atoms: C_8  and  P_15
REMARK    8  A    between atoms: P_15  and  O_17
REMARK    9  A    between atoms: P_15  and  O_18
REMARK                            x       y       z     vdW  Elec       q    Type
REMARK                         _______ _______ _______ _____ _____    ______ ____
ROOT
ATOM      1  C   UNL     1       4.590   5.112  17.184  0.00  0.00    +0.000 C 
ENDROOT
BRANCH   1   2
ATOM      2  C   UNL     1       5.392   4.920  15.866  0.00  0.00    +0.000 A 
ATOM      3  C   UNL     1       6.705   5.407  15.709  0.00  0.00    +0.000 A 
ATOM      4  C   UNL     1       7.465   5.134  14.567  0.00  0.00    +0.000 A 
ATOM      5  C   UNL     1       6.915   4.370  13.547  0.00  0.00    +0.000 A 
ATOM      6  C   UNL     1       5.613   3.894  13.665  0.00  0.00    +0.000 A 
ATOM      7  C   UNL     1       4.840   4.179  14.801  0.00  0.00    +0.000 A 
ENDBRANCH   1   2
BRANCH   1   8
ATOM      8  P   UNL     1       5.719   5.196  18.622  0.00  0.00    +0.000 P 
ATOM      9  O   UNL     1       4.596   5.611  19.570  0.00  0.00    +0.000 OA
BRANCH   8  10
ATOM     10  O   UNL     1       5.929   3.566  18.684  0.00  0.00    +0.000 OA
ATOM     11  H   UNL     1       5.194   3.049  18.284  0.00  0.00    +0.000 HD
ENDBRANCH   8  10
BRANCH   8  12
ATOM     12  O   UNL     1       6.786   5.275  19.981  0.00  0.00    +0.000 OA
ATOM     13  H   UNL     1       7.661   5.453  19.581  0.00  0.00    +0.000 HD
ENDBRANCH   8  12
ENDBRANCH   1   8
BRANCH   1  14
ATOM     14  S   UNL     1       3.472   3.552  17.329  0.00  0.00    +0.000 S 
BRANCH  14  15
ATOM     15  C   UNL     1       1.808   4.182  17.857  0.00  0.00    +0.000 C 
BRANCH  15  18
ATOM     16  C   UNL     1       1.361   2.789  21.424  0.00  0.00    +0.000 C 
ATOM     17  N   UNL     1       1.808   3.567  20.285  0.00  0.00    +0.000 N 
ATOM     18  C   UNL     1       1.305   3.296  19.020  0.00  0.00    +0.000 C 
ATOM     19  O   UNL     1       0.575   2.318  18.802  0.00  0.00    +0.000 OA
BRANCH  17  20
ATOM     20  O   UNL     1       1.898   4.946  20.602  0.00  0.00    +0.000 OA
ATOM     21  H   UNL     1       2.630   4.953  21.256  0.00  0.00    +0.000 HD
ENDBRANCH  17  20
ENDBRANCH  15  18
ENDBRANCH  14  15
ENDBRANCH   1  14
TORSDOF 8
ENDMDL
MODEL 7
REMARK VINA RESULT:      -6.0      2.559      4.555
REMARK  Name = 
REMARK  9 active torsions:
REMARK  status: ('A' for Active; 'I' for Inactive)
REMARK    1  A    between atoms: C_1  and  N_2
REMARK    2  A    between atoms: N_2  and  O_3
REMARK    3  A    between atoms: C_4  and  C_6
REMARK    4  A    between atoms: C_6  and  S_7
REMARK    5  A    between atoms: S_7  and  C_8
REMARK    6  A    between atoms: C_8  and  C_9
REMARK    7  A    between atoms: C_8  and  P_15
REMARK    8  A    between atoms: P_15  and  O_17
REMARK    9  A    between atoms: P_15  and  O_18
REMARK                            x       y       z     vdW  Elec       q    Type
REMARK                         _______ _______ _______ _____ _____    ______ ____
ROOT
ATOM      1  C   UNL     1       4.818   4.917  18.141  0.00  0.00    +0.000 C 
ENDROOT
BRANCH   1   2
ATOM      2  C   UNL     1       3.779   6.038  18.420  0.00  0.00    +0.000 A 
ATOM      3  C   UNL     1       3.005   6.067  19.598  0.00  0.00    +0.000 A 
ATOM      4  C   UNL     1       2.156   7.136  19.901  0.00  0.00    +0.000 A 
ATOM      5  C   UNL     1       2.056   8.201  19.017  0.00  0.00    +0.000 A 
ATOM      6  C   UNL     1       2.791   8.190  17.835  0.00  0.00    +0.000 A 
ATOM      7  C   UNL     1       3.632   7.113  17.518  0.00  0.00    +0.000 A 
ENDBRANCH   1   2
BRANCH   1   8
ATOM      8  P   UNL     1       6.247   5.576  17.207  0.00  0.00    +0.000 P 
ATOM      9  O   UNL     1       6.994   5.960  18.482  0.00  0.00    +0.000 OA
BRANCH   8  10
ATOM     10  O   UNL     1       6.735   4.090  16.700  0.00  0.00    +0.000 OA
ATOM     11  H   UNL     1       7.665   4.057  16.381  0.00  0.00    +0.000 HD
ENDBRANCH   8  10
BRANCH   8  12
ATOM     12  O   UNL     1       7.598   6.199  16.324  0.00  0.00    +0.000 OA
ATOM     13  H   UNL     1       7.263   6.275  15.409  0.00  0.00    +0.000 HD
ENDBRANCH   8  12
ENDBRANCH   1   8
BRANCH   1  14
ATOM     14  S   UNL     1       3.886   3.618  17.067  0.00  0.00    +0.000 S 
BRANCH  14  15
ATOM     15  C   UNL     1       3.885   2.056  18.068  0.00  0.00    +0.000 C 
BRANCH  15  18
ATOM     16  C   UNL     1       1.198   2.922  20.694  0.00  0.00    +0.000 C 
ATOM     17  N   UNL     1       1.877   2.648  19.441  0.00  0.00    +0.000 N 
ATOM     18  C   UNL     1       3.235   2.361  19.437  0.00  0.00    +0.000 C 
ATOM     19  O   UNL     1       3.926   2.456  20.460  0.00  0.00    +0.000 OA
BRANCH  17  20
ATOM     20  O   UNL     1       1.095   1.820  18.599  0.00  0.00    +0.000 OA
ATOM     21  H   UNL     1       1.532   0.948  18.714  0.00  0.00    +0.000 HD
ENDBRANCH  17  20
ENDBRANCH  15  18
ENDBRANCH  14  15
ENDBRANCH   1  14
TORSDOF 8
ENDMDL
MODEL 8
REMARK VINA RESULT:      -6.0      2.774      4.759
REMARK  Name = 
REMARK  9 active torsions:
REMARK  status: ('A' for Active; 'I' for Inactive)
REMARK    1  A    between atoms: C_1  and  N_2
REMARK    2  A    between atoms: N_2  and  O_3
REMARK    3  A    between atoms: C_4  and  C_6
REMARK    4  A    between atoms: C_6  and  S_7
REMARK    5  A    between atoms: S_7  and  C_8
REMARK    6  A    between atoms: C_8  and  C_9
REMARK    7  A    between atoms: C_8  and  P_15
REMARK    8  A    between atoms: P_15  and  O_17
REMARK    9  A    between atoms: P_15  and  O_18
REMARK                            x       y       z     vdW  Elec       q    Type
REMARK                         _______ _______ _______ _____ _____    ______ ____
ROOT
ATOM      1  C   UNL     1       4.602   4.401  18.219  0.00  0.00    +0.000 C 
ENDROOT
BRANCH   1   2
ATOM      2  C   UNL     1       3.706   5.654  18.433  0.00  0.00    +0.000 A 
ATOM      3  C   UNL     1       2.909   5.819  19.584  0.00  0.00    +0.000 A 
ATOM      4  C   UNL     1       2.194   6.996  19.827  0.00  0.00    +0.000 A 
ATOM      5  C   UNL     1       2.257   8.035  18.910  0.00  0.00    +0.000 A 
ATOM      6  C   UNL     1       3.017   7.892  17.753  0.00  0.00    +0.000 A 
ATOM      7  C   UNL     1       3.723   6.708  17.495  0.00  0.00    +0.000 A 
ENDBRANCH   1   2
BRANCH   1   8
ATOM      8  P   UNL     1       6.146   4.850  17.346  0.00  0.00    +0.000 P 
ATOM      9  O   UNL     1       7.017   4.462  18.538  0.00  0.00    +0.000 OA
BRANCH   8  10
ATOM     10  O   UNL     1       6.041   3.589  16.296  0.00  0.00    +0.000 OA
ATOM     11  H   UNL     1       5.730   2.749  16.703  0.00  0.00    +0.000 HD
ENDBRANCH   8  10
BRANCH   8  12
ATOM     12  O   UNL     1       7.605   5.274  16.520  0.00  0.00    +0.000 OA
ATOM     13  H   UNL     1       7.879   6.110  16.945  0.00  0.00    +0.000 HD
ENDBRANCH   8  12
ENDBRANCH   1   8
BRANCH   1  14
ATOM     14  S   UNL     1       3.558   3.213  17.121  0.00  0.00    +0.000 S 
BRANCH  14  15
ATOM     15  C   UNL     1       3.044   1.826  18.241  0.00  0.00    +0.000 C 
BRANCH  15  18
ATOM     16  C   UNL     1       1.307   2.766  21.552  0.00  0.00    +0.000 C 
ATOM     17  N   UNL     1       2.254   2.258  20.578  0.00  0.00    +0.000 N 
ATOM     18  C   UNL     1       1.978   2.368  19.221  0.00  0.00    +0.000 C 
ATOM     19  O   UNL     1       0.883   2.772  18.808  0.00  0.00    +0.000 OA
BRANCH  17  20
ATOM     20  O   UNL     1       3.587   2.574  20.937  0.00  0.00    +0.000 OA
ATOM     21  H   UNL     1       4.005   1.685  20.957  0.00  0.00    +0.000 HD
ENDBRANCH  17  20
ENDBRANCH  15  18
ENDBRANCH  14  15
ENDBRANCH   1  14
TORSDOF 8
ENDMDL
MODEL 9
REMARK VINA RESULT:      -5.9      2.860      6.067
REMARK  Name = 
REMARK  9 active torsions:
REMARK  status: ('A' for Active; 'I' for Inactive)
REMARK    1  A    between atoms: C_1  and  N_2
REMARK    2  A    between atoms: N_2  and  O_3
REMARK    3  A    between atoms: C_4  and  C_6
REMARK    4  A    between atoms: C_6  and  S_7
REMARK    5  A    between atoms: S_7  and  C_8
REMARK    6  A    between atoms: C_8  and  C_9
REMARK    7  A    between atoms: C_8  and  P_15
REMARK    8  A    between atoms: P_15  and  O_17
REMARK    9  A    between atoms: P_15  and  O_18
REMARK                            x       y       z     vdW  Elec       q    Type
REMARK                         _______ _______ _______ _____ _____    ______ ____
ROOT
ATOM      1  C   UNL     1       5.887   5.218  16.265  0.00  0.00    +0.000 C 
ENDROOT
BRANCH   1   2
ATOM      2  C   UNL     1       6.272   4.742  14.836  0.00  0.00    +0.000 A 
ATOM      3  C   UNL     1       5.487   3.820  14.116  0.00  0.00    +0.000 A 
ATOM      4  C   UNL     1       5.772   3.481  12.789  0.00  0.00    +0.000 A 
ATOM      5  C   UNL     1       6.865   4.058  12.157  0.00  0.00    +0.000 A 
ATOM      6  C   UNL     1       7.671   4.955  12.850  0.00  0.00    +0.000 A 
ATOM      7  C   UNL     1       7.400   5.286  14.186  0.00  0.00    +0.000 A 
ENDBRANCH   1   2
BRANCH   1   8
ATOM      8  P   UNL     1       7.215   4.820  17.460  0.00  0.00    +0.000 P 
ATOM      9  O   UNL     1       7.312   6.266  17.942  0.00  0.00    +0.000 OA
BRANCH   8  10
ATOM     10  O   UNL     1       6.214   3.968  18.448  0.00  0.00    +0.000 OA
ATOM     11  H   UNL     1       6.523   3.056  18.646  0.00  0.00    +0.000 HD
ENDBRANCH   8  10
BRANCH   8  12
ATOM     12  O   UNL     1       8.470   4.444  18.589  0.00  0.00    +0.000 OA
ATOM     13  H   UNL     1       8.318   5.072  19.324  0.00  0.00    +0.000 HD
ENDBRANCH   8  12
ENDBRANCH   1   8
BRANCH   1  14
ATOM     14  S   UNL     1       4.295   4.233  16.715  0.00  0.00    +0.000 S 
BRANCH  14  15
ATOM     15  C   UNL     1       3.226   5.421  17.658  0.00  0.00    +0.000 C 
BRANCH  15  18
ATOM     16  C   UNL     1       1.074   3.685  20.344  0.00  0.00    +0.000 C 
ATOM     17  N   UNL     1       2.136   4.408  19.672  0.00  0.00    +0.000 N 
ATOM     18  C   UNL     1       2.070   4.623  18.302  0.00  0.00    +0.000 C 
ATOM     19  O   UNL     1       1.190   4.105  17.601  0.00  0.00    +0.000 OA
BRANCH  17  20
ATOM     20  O   UNL     1       2.557   5.531  20.427  0.00  0.00    +0.000 OA
ATOM     21  H   UNL     1       2.664   6.213  19.728  0.00  0.00    +0.000 HD
ENDBRANCH  17  20
ENDBRANCH  15  18
ENDBRANCH  14  15
ENDBRANCH   1  14
TORSDOF 8
ENDMDL
