MODEL 1
REMARK VINA RESULT:      -7.5      0.000      0.000
REMARK  Name = 
REMARK  13 active torsions:
REMARK  status: ('A' for Active; 'I' for Inactive)
REMARK    1  A    between atoms: C_1  and  C_2
REMARK    2  A    between atoms: C_2  and  C_3
REMARK    3  A    between atoms: C_2  and  C_4
REMARK    4  A    between atoms: C_2  and  N_5
REMARK    5  A    between atoms: C_6  and  C_8
REMARK    6  A    between atoms: C_8  and  N_9
REMARK    7  A    between atoms: N_9  and  C_10
REMARK    8  A    between atoms: C_10  and  C_11
REMARK    9  A    between atoms: C_11  and  N_12
REMARK   10  A    between atoms: C_18  and  C_20
REMARK   11  A    between atoms: C_20  and  N_21
REMARK   12  A    between atoms: N_21  and  S_22
REMARK   13  A    between atoms: S_22  and  C_25
REMARK                            x       y       z     vdW  Elec       q    Type
REMARK                         _______ _______ _______ _____ _____    ______ ____
ROOT
ATOM      1  N   UNL     1       2.432   7.320  18.484  0.00  0.00    +0.000 N 
ATOM      2  C   UNL     1       1.989   8.647  18.428  0.00  0.00    +0.000 C 
ATOM      3  O   UNL     1       2.097   9.318  17.400  0.00  0.00    +0.000 OA
ENDROOT
BRANCH   1   4
ATOM      4  C   UNL     1       3.142   6.805  17.293  0.00  0.00    +0.000 C 
BRANCH   4   6
ATOM      5  N   UNL     1       5.536   6.335  18.099  0.00  0.00    +0.000 N 
ATOM      6  C   UNL     1       4.691   6.738  17.085  0.00  0.00    +0.000 C 
ATOM      7  O   UNL     1       5.111   6.913  15.934  0.00  0.00    +0.000 OA
ATOM      8  H   UNL     1       5.104   5.967  18.946  0.00  0.00    +0.000 HD
BRANCH   5  10
ATOM      9  C   UNL     1       7.653   7.482  17.424  0.00  0.00    +0.000 C 
ATOM     10  C   UNL     1       7.015   6.161  17.903  0.00  0.00    +0.000 C 
ATOM     11  C   UNL     1       7.363   5.065  16.869  0.00  0.00    +0.000 C 
ATOM     12  C   UNL     1       7.706   5.782  19.236  0.00  0.00    +0.000 C 
ENDBRANCH   5  10
ENDBRANCH   4   6
ENDBRANCH   1   4
BRANCH   1  13
ATOM     13  C   UNL     1       2.330   6.502  19.744  0.00  0.00    +0.000 C 
BRANCH  13  14
ATOM     14  C   UNL     1       2.965   5.093  19.775  0.00  0.00    +0.000 C 
BRANCH  14  15
ATOM     15  N   UNL     1       2.052   3.921  19.871  0.00  0.00    +0.000 NA
ATOM     16  C   UNL     1       2.675   2.641  20.284  0.00  0.00    +0.000 C 
ATOM     17  C   UNL     1       3.653   2.075  19.246  0.00  0.00    +0.000 C 
ATOM     18  O   UNL     1       3.013   1.872  17.979  0.00  0.00    +0.000 OA
ATOM     19  C   UNL     1       2.407   3.082  17.504  0.00  0.00    +0.000 C 
ATOM     20  C   UNL     1       1.425   3.669  18.541  0.00  0.00    +0.000 C 
ENDBRANCH  14  15
ENDBRANCH  13  14
ENDBRANCH   1  13
BRANCH   2  21
ATOM     21  C   UNL     1       1.358   9.215  19.700  0.00  0.00    +0.000 C 
BRANCH  21  22
ATOM     22  N   UNL     1       0.016   9.770  19.533  0.00  0.00    +0.000 NA
ATOM     23  H   UNL     1      -0.720   9.352  20.108  0.00  0.00    +0.000 HD
BRANCH  22  24
ATOM     24  S   UNL     1      -0.063  11.451  19.563  0.00  0.00    +0.000 S 
ATOM     25  O   UNL     1       1.265  11.912  19.932  0.00  0.00    +0.000 OA
ATOM     26  O   UNL     1      -0.713  11.892  18.356  0.00  0.00    +0.000 OA
BRANCH  24  27
ATOM     27  C   UNL     1      -1.136  11.776  20.938  0.00  0.00    +0.000 A 
ATOM     28  C   UNL     1      -2.267  12.573  20.751  0.00  0.00    +0.000 A 
ATOM     29  C   UNL     1      -3.142  12.780  21.821  0.00  0.00    +0.000 A 
ATOM     30  C   UNL     1      -2.881  12.189  23.058  0.00  0.00    +0.000 A 
ATOM     31 CL   UNL     1      -3.974  12.430  24.366  0.00  0.00    +0.000 Cl
ATOM     32  C   UNL     1      -1.746  11.399  23.243  0.00  0.00    +0.000 A 
ATOM     33  C   UNL     1      -0.866  11.191  22.179  0.00  0.00    +0.000 A 
ENDBRANCH  24  27
ENDBRANCH  22  24
ENDBRANCH  21  22
ENDBRANCH   2  21
TORSDOF 10
ENDMDL
MODEL 2
REMARK VINA RESULT:      -7.4      1.819      2.140
REMARK  Name = 
REMARK  13 active torsions:
REMARK  status: ('A' for Active; 'I' for Inactive)
REMARK    1  A    between atoms: C_1  and  C_2
REMARK    2  A    between atoms: C_2  and  C_3
REMARK    3  A    between atoms: C_2  and  C_4
REMARK    4  A    between atoms: C_2  and  N_5
REMARK    5  A    between atoms: C_6  and  C_8
REMARK    6  A    between atoms: C_8  and  N_9
REMARK    7  A    between atoms: N_9  and  C_10
REMARK    8  A    between atoms: C_10  and  C_11
REMARK    9  A    between atoms: C_11  and  N_12
REMARK   10  A    between atoms: C_18  and  C_20
REMARK   11  A    between atoms: C_20  and  N_21
REMARK   12  A    between atoms: N_21  and  S_22
REMARK   13  A    between atoms: S_22  and  C_25
REMARK                            x       y       z     vdW  Elec       q    Type
REMARK                         _______ _______ _______ _____ _____    ______ ____
ROOT
ATOM      1  N   UNL     1       2.530   6.733  19.200  0.00  0.00    +0.000 N 
ATOM      2  C   UNL     1       1.999   7.972  19.580  0.00  0.00    +0.000 C 
ATOM      3  O   UNL     1       1.920   8.909  18.783  0.00  0.00    +0.000 OA
ENDROOT
BRANCH   1   4
ATOM      4  C   UNL     1       3.101   6.644  17.837  0.00  0.00    +0.000 C 
BRANCH   4   6
ATOM      5  N   UNL     1       5.565   6.167  18.385  0.00  0.00    +0.000 N 
ATOM      6  C   UNL     1       4.617   6.565  17.464  0.00  0.00    +0.000 C 
ATOM      7  O   UNL     1       4.911   6.727  16.273  0.00  0.00    +0.000 OA
ATOM      8  H   UNL     1       5.226   5.810  19.277  0.00  0.00    +0.000 HD
BRANCH   5  10
ATOM      9  C   UNL     1       7.593   7.284  17.441  0.00  0.00    +0.000 C 
ATOM     10  C   UNL     1       7.014   5.982  18.032  0.00  0.00    +0.000 C 
ATOM     11  C   UNL     1       7.245   4.852  17.002  0.00  0.00    +0.000 C 
ATOM     12  C   UNL     1       7.849   5.645  19.291  0.00  0.00    +0.000 C 
ENDBRANCH   5  10
ENDBRANCH   4   6
ENDBRANCH   1   4
BRANCH   1  13
ATOM     13  C   UNL     1       2.655   5.591  20.173  0.00  0.00    +0.000 C 
BRANCH  13  14
ATOM     14  C   UNL     1       1.774   4.337  19.974  0.00  0.00    +0.000 C 
BRANCH  14  15
ATOM     15  N   UNL     1       2.382   3.008  20.259  0.00  0.00    +0.000 NA
ATOM     16  C   UNL     1       3.846   2.903  20.052  0.00  0.00    +0.000 C 
ATOM     17  C   UNL     1       4.265   3.026  18.581  0.00  0.00    +0.000 C 
ATOM     18  O   UNL     1       3.626   2.031  17.769  0.00  0.00    +0.000 OA
ATOM     19  C   UNL     1       2.200   2.092  17.902  0.00  0.00    +0.000 C 
ATOM     20  C   UNL     1       1.762   1.977  19.378  0.00  0.00    +0.000 C 
ENDBRANCH  14  15
ENDBRANCH  13  14
ENDBRANCH   1  13
BRANCH   2  21
ATOM     21  C   UNL     1       1.513   8.097  21.024  0.00  0.00    +0.000 C 
BRANCH  21  22
ATOM     22  N   UNL     1       1.139   9.448  21.439  0.00  0.00    +0.000 NA
ATOM     23  H   UNL     1       0.955  10.117  20.688  0.00  0.00    +0.000 HD
BRANCH  22  24
ATOM     24  S   UNL     1      -0.051   9.518  22.628  0.00  0.00    +0.000 S 
ATOM     25  O   UNL     1      -0.998   8.462  22.315  0.00  0.00    +0.000 OA
ATOM     26  O   UNL     1       0.600   9.602  23.910  0.00  0.00    +0.000 OA
BRANCH  24  27
ATOM     27  C   UNL     1      -0.855  11.065  22.297  0.00  0.00    +0.000 A 
ATOM     28  C   UNL     1      -1.831  11.532  23.178  0.00  0.00    +0.000 A 
ATOM     29  C   UNL     1      -2.422  12.777  22.947  0.00  0.00    +0.000 A 
ATOM     30  C   UNL     1      -2.030  13.540  21.846  0.00  0.00    +0.000 A 
ATOM     31 CL   UNL     1      -2.745  15.082  21.578  0.00  0.00    +0.000 Cl
ATOM     32  C   UNL     1      -1.058  13.066  20.963  0.00  0.00    +0.000 A 
ATOM     33  C   UNL     1      -0.467  11.821  21.187  0.00  0.00    +0.000 A 
ENDBRANCH  24  27
ENDBRANCH  22  24
ENDBRANCH  21  22
ENDBRANCH   2  21
TORSDOF 10
ENDMDL
MODEL 3
REMARK VINA RESULT:      -7.4      5.856      7.731
REMARK  Name = 
REMARK  13 active torsions:
REMARK  status: ('A' for Active; 'I' for Inactive)
REMARK    1  A    between atoms: C_1  and  C_2
REMARK    2  A    between atoms: C_2  and  C_3
REMARK    3  A    between atoms: C_2  and  C_4
REMARK    4  A    between atoms: C_2  and  N_5
REMARK    5  A    between atoms: C_6  and  C_8
REMARK    6  A    between atoms: C_8  and  N_9
REMARK    7  A    between atoms: N_9  and  C_10
REMARK    8  A    between atoms: C_10  and  C_11
REMARK    9  A    between atoms: C_11  and  N_12
REMARK   10  A    between atoms: C_18  and  C_20
REMARK   11  A    between atoms: C_20  and  N_21
REMARK   12  A    between atoms: N_21  and  S_22
REMARK   13  A    between atoms: S_22  and  C_25
REMARK                            x       y       z     vdW  Elec       q    Type
REMARK                         _______ _______ _______ _____ _____    ______ ____
ROOT
ATOM      1  N   UNL     1       6.044   4.678  17.313  0.00  0.00    +0.000 N 
ATOM      2  C   UNL     1       7.311   4.808  17.895  0.00  0.00    +0.000 C 
ATOM      3  O   UNL     1       8.291   4.217  17.439  0.00  0.00    +0.000 OA
ENDROOT
BRANCH   1   4
ATOM      4  C   UNL     1       5.917   3.705  16.206  0.00  0.00    +0.000 C 
BRANCH   4   6
ATOM      5  N   UNL     1       6.049   2.982  13.744  0.00  0.00    +0.000 N 
ATOM      6  C   UNL     1       6.123   3.992  14.682  0.00  0.00    +0.000 C 
ATOM      7  O   UNL     1       6.203   5.178  14.340  0.00  0.00    +0.000 OA
ATOM      8  H   UNL     1       5.735   2.068  14.068  0.00  0.00    +0.000 HD
BRANCH   5  10
ATOM      9  C   UNL     1       6.586   1.960  11.527  0.00  0.00    +0.000 C 
ATOM     10  C   UNL     1       6.140   3.238  12.266  0.00  0.00    +0.000 C 
ATOM     11  C   UNL     1       7.137   4.365  11.909  0.00  0.00    +0.000 C 
ATOM     12  C   UNL     1       4.758   3.635  11.691  0.00  0.00    +0.000 C 
ENDBRANCH   5  10
ENDBRANCH   4   6
ENDBRANCH   1   4
BRANCH   1  13
ATOM     13  C   UNL     1       4.836   5.375  17.880  0.00  0.00    +0.000 C 
BRANCH  13  14
ATOM     14  C   UNL     1       3.986   4.651  18.950  0.00  0.00    +0.000 C 
BRANCH  14  15
ATOM     15  N   UNL     1       2.510   4.618  18.761  0.00  0.00    +0.000 NA
ATOM     16  C   UNL     1       1.720   4.085  19.896  0.00  0.00    +0.000 C 
ATOM     17  C   UNL     1       1.944   2.587  20.146  0.00  0.00    +0.000 C 
ATOM     18  O   UNL     1       1.635   1.810  18.981  0.00  0.00    +0.000 OA
ATOM     19  C   UNL     1       2.387   2.257  17.845  0.00  0.00    +0.000 C 
ATOM     20  C   UNL     1       2.178   3.764  17.585  0.00  0.00    +0.000 C 
ENDBRANCH  14  15
ENDBRANCH  13  14
ENDBRANCH   1  13
BRANCH   2  21
ATOM     21  C   UNL     1       7.417   5.727  19.112  0.00  0.00    +0.000 C 
BRANCH  21  22
ATOM     22  N   UNL     1       8.262   6.906  18.929  0.00  0.00    +0.000 NA
ATOM     23  H   UNL     1       9.265   6.732  18.826  0.00  0.00    +0.000 HD
BRANCH  22  24
ATOM     24  S   UNL     1       7.708   8.002  17.778  0.00  0.00    +0.000 S 
ATOM     25  O   UNL     1       8.338   7.626  16.525  0.00  0.00    +0.000 OA
ATOM     26  O   UNL     1       6.278   8.108  17.910  0.00  0.00    +0.000 OA
BRANCH  24  27
ATOM     27  C   UNL     1       8.441   9.533  18.299  0.00  0.00    +0.000 A 
ATOM     28  C   UNL     1       9.166   9.574  19.491  0.00  0.00    +0.000 A 
ATOM     29  C   UNL     1       9.792  10.765  19.870  0.00  0.00    +0.000 A 
ATOM     30  C   UNL     1       9.689  11.894  19.057  0.00  0.00    +0.000 A 
ATOM     31 CL   UNL     1      10.479  13.352  19.519  0.00  0.00    +0.000 Cl
ATOM     32  C   UNL     1       8.957  11.851  17.870  0.00  0.00    +0.000 A 
ATOM     33  C   UNL     1       8.327  10.664  17.487  0.00  0.00    +0.000 A 
ENDBRANCH  24  27
ENDBRANCH  22  24
ENDBRANCH  21  22
ENDBRANCH   2  21
TORSDOF 10
ENDMDL
MODEL 4
REMARK VINA RESULT:      -7.3      2.781      3.301
REMARK  Name = 
REMARK  13 active torsions:
REMARK  status: ('A' for Active; 'I' for Inactive)
REMARK    1  A    between atoms: C_1  and  C_2
REMARK    2  A    between atoms: C_2  and  C_3
REMARK    3  A    between atoms: C_2  and  C_4
REMARK    4  A    between atoms: C_2  and  N_5
REMARK    5  A    between atoms: C_6  and  C_8
REMARK    6  A    between atoms: C_8  and  N_9
REMARK    7  A    between atoms: N_9  and  C_10
REMARK    8  A    between atoms: C_10  and  C_11
REMARK    9  A    between atoms: C_11  and  N_12
REMARK   10  A    between atoms: C_18  and  C_20
REMARK   11  A    between atoms: C_20  and  N_21
REMARK   12  A    between atoms: N_21  and  S_22
REMARK   13  A    between atoms: S_22  and  C_25
REMARK                            x       y       z     vdW  Elec       q    Type
REMARK                         _______ _______ _______ _____ _____    ______ ____
ROOT
ATOM      1  N   UNL     1       2.464   7.003  18.683  0.00  0.00    +0.000 N 
ATOM      2  C   UNL     1       2.041   8.327  18.516  0.00  0.00    +0.000 C 
ATOM      3  O   UNL     1       2.180   8.916  17.442  0.00  0.00    +0.000 OA
ENDROOT
BRANCH   1   4
ATOM      4  C   UNL     1       3.193   6.390  17.551  0.00  0.00    +0.000 C 
BRANCH   4   6
ATOM      5  N   UNL     1       5.617   5.984  18.297  0.00  0.00    +0.000 N 
ATOM      6  C   UNL     1       4.739   6.403  17.318  0.00  0.00    +0.000 C 
ATOM      7  O   UNL     1       5.133   6.658  16.173  0.00  0.00    +0.000 OA
ATOM      8  H   UNL     1       5.216   5.553  19.129  0.00  0.00    +0.000 HD
BRANCH   5  10
ATOM      9  C   UNL     1       7.628   7.178  17.413  0.00  0.00    +0.000 C 
ATOM     10  C   UNL     1       7.100   5.887  18.072  0.00  0.00    +0.000 C 
ATOM     11  C   UNL     1       7.496   4.697  17.167  0.00  0.00    +0.000 C 
ATOM     12  C   UNL     1       7.851   5.724  19.415  0.00  0.00    +0.000 C 
ENDBRANCH   5  10
ENDBRANCH   4   6
ENDBRANCH   1   4
BRANCH   1  13
ATOM     13  C   UNL     1       2.324   6.286  19.999  0.00  0.00    +0.000 C 
BRANCH  13  14
ATOM     14  C   UNL     1       1.632   4.903  20.028  0.00  0.00    +0.000 C 
BRANCH  14  15
ATOM     15  N   UNL     1       2.400   3.752  20.576  0.00  0.00    +0.000 NA
ATOM     16  C   UNL     1       3.694   3.459  19.914  0.00  0.00    +0.000 C 
ATOM     17  C   UNL     1       3.541   2.956  18.472  0.00  0.00    +0.000 C 
ATOM     18  O   UNL     1       2.729   1.776  18.411  0.00  0.00    +0.000 OA
ATOM     19  C   UNL     1       1.447   1.997  19.014  0.00  0.00    +0.000 C 
ATOM     20  C   UNL     1       1.583   2.510  20.464  0.00  0.00    +0.000 C 
ENDBRANCH  14  15
ENDBRANCH  13  14
ENDBRANCH   1  13
BRANCH   2  21
ATOM     21  C   UNL     1       1.391   8.998  19.726  0.00  0.00    +0.000 C 
BRANCH  21  22
ATOM     22  N   UNL     1       0.463  10.084  19.411  0.00  0.00    +0.000 NA
ATOM     23  H   UNL     1      -0.466   9.805  19.088  0.00  0.00    +0.000 HD
BRANCH  22  24
ATOM     24  S   UNL     1       0.369  11.294  20.578  0.00  0.00    +0.000 S 
ATOM     25  O   UNL     1      -1.031  11.671  20.658  0.00  0.00    +0.000 OA
ATOM     26  O   UNL     1       1.109  10.861  21.735  0.00  0.00    +0.000 OA
BRANCH  24  27
ATOM     27  C   UNL     1       1.237  12.645  19.821  0.00  0.00    +0.000 A 
ATOM     28  C   UNL     1       1.331  13.863  20.497  0.00  0.00    +0.000 A 
ATOM     29  C   UNL     1       2.064  14.907  19.926  0.00  0.00    +0.000 A 
ATOM     30  C   UNL     1       2.694  14.723  18.695  0.00  0.00    +0.000 A 
ATOM     31 CL   UNL     1       3.613  16.006  18.007  0.00  0.00    +0.000 Cl
ATOM     32  C   UNL     1       2.592  13.506  18.019  0.00  0.00    +0.000 A 
ATOM     33  C   UNL     1       1.858  12.460  18.583  0.00  0.00    +0.000 A 
ENDBRANCH  24  27
ENDBRANCH  22  24
ENDBRANCH  21  22
ENDBRANCH   2  21
TORSDOF 10
ENDMDL
MODEL 5
REMARK VINA RESULT:      -7.3      1.147      1.698
REMARK  Name = 
REMARK  13 active torsions:
REMARK  status: ('A' for Active; 'I' for Inactive)
REMARK    1  A    between atoms: C_1  and  C_2
REMARK    2  A    between atoms: C_2  and  C_3
REMARK    3  A    between atoms: C_2  and  C_4
REMARK    4  A    between atoms: C_2  and  N_5
REMARK    5  A    between atoms: C_6  and  C_8
REMARK    6  A    between atoms: C_8  and  N_9
REMARK    7  A    between atoms: N_9  and  C_10
REMARK    8  A    between atoms: C_10  and  C_11
REMARK    9  A    between atoms: C_11  and  N_12
REMARK   10  A    between atoms: C_18  and  C_20
REMARK   11  A    between atoms: C_20  and  N_21
REMARK   12  A    between atoms: N_21  and  S_22
REMARK   13  A    between atoms: S_22  and  C_25
REMARK                            x       y       z     vdW  Elec       q    Type
REMARK                         _______ _______ _______ _____ _____    ______ ____
ROOT
ATOM      1  N   UNL     1       2.391   6.312  19.158  0.00  0.00    +0.000 N 
ATOM      2  C   UNL     1       2.103   7.679  19.260  0.00  0.00    +0.000 C 
ATOM      3  O   UNL     1       2.322   8.454  18.327  0.00  0.00    +0.000 OA
ENDROOT
BRANCH   1   4
ATOM      4  C   UNL     1       3.080   5.868  17.926  0.00  0.00    +0.000 C 
BRANCH   4   6
ATOM      5  N   UNL     1       5.570   5.789  18.554  0.00  0.00    +0.000 N 
ATOM      6  C   UNL     1       4.601   6.024  17.599  0.00  0.00    +0.000 C 
ATOM      7  O   UNL     1       4.905   6.216  16.415  0.00  0.00    +0.000 OA
ATOM      8  H   UNL     1       5.262   5.394  19.441  0.00  0.00    +0.000 HD
BRANCH   5  10
ATOM      9  C   UNL     1       7.422   4.677  17.297  0.00  0.00    +0.000 C 
ATOM     10  C   UNL     1       7.040   5.830  18.247  0.00  0.00    +0.000 C 
ATOM     11  C   UNL     1       7.924   5.715  19.511  0.00  0.00    +0.000 C 
ATOM     12  C   UNL     1       7.417   7.150  17.532  0.00  0.00    +0.000 C 
ENDBRANCH   5  10
ENDBRANCH   4   6
ENDBRANCH   1   4
BRANCH   1  13
ATOM     13  C   UNL     1       2.152   5.363  20.302  0.00  0.00    +0.000 C 
BRANCH  13  14
ATOM     14  C   UNL     1       1.090   4.251  20.143  0.00  0.00    +0.000 C 
BRANCH  14  15
ATOM     15  N   UNL     1       1.483   2.859  20.496  0.00  0.00    +0.000 NA
ATOM     16  C   UNL     1       2.883   2.672  20.947  0.00  0.00    +0.000 C 
ATOM     17  C   UNL     1       3.918   2.921  19.842  0.00  0.00    +0.000 C 
ATOM     18  O   UNL     1       3.694   2.067  18.712  0.00  0.00    +0.000 OA
ATOM     19  C   UNL     1       2.361   2.216  18.206  0.00  0.00    +0.000 C 
ATOM     20  C   UNL     1       1.307   1.976  19.308  0.00  0.00    +0.000 C 
ENDBRANCH  14  15
ENDBRANCH  13  14
ENDBRANCH   1  13
BRANCH   2  21
ATOM     21  C   UNL     1       1.496   8.156  20.580  0.00  0.00    +0.000 C 
BRANCH  21  22
ATOM     22  N   UNL     1       0.391   9.104  20.449  0.00  0.00    +0.000 NA
ATOM     23  H   UNL     1      -0.498   8.823  20.869  0.00  0.00    +0.000 HD
BRANCH  22  24
ATOM     24  S   UNL     1       0.776  10.696  20.837  0.00  0.00    +0.000 S 
ATOM     25  O   UNL     1       1.636  10.631  22.005  0.00  0.00    +0.000 OA
ATOM     26  O   UNL     1       1.182  11.367  19.629  0.00  0.00    +0.000 OA
BRANCH  24  27
ATOM     27  C   UNL     1      -0.781  11.366  21.363  0.00  0.00    +0.000 A 
ATOM     28  C   UNL     1      -1.139  11.289  22.710  0.00  0.00    +0.000 A 
ATOM     29  C   UNL     1      -2.339  11.868  23.133  0.00  0.00    +0.000 A 
ATOM     30  C   UNL     1      -3.161  12.518  22.211  0.00  0.00    +0.000 A 
ATOM     31 CL   UNL     1      -4.626  13.248  22.741  0.00  0.00    +0.000 Cl
ATOM     32  C   UNL     1      -2.802  12.587  20.864  0.00  0.00    +0.000 A 
ATOM     33  C   UNL     1      -1.606  12.007  20.435  0.00  0.00    +0.000 A 
ENDBRANCH  24  27
ENDBRANCH  22  24
ENDBRANCH  21  22
ENDBRANCH   2  21
TORSDOF 10
ENDMDL
MODEL 6
REMARK VINA RESULT:      -7.2      1.699      2.077
REMARK  Name = 
REMARK  13 active torsions:
REMARK  status: ('A' for Active; 'I' for Inactive)
REMARK    1  A    between atoms: C_1  and  C_2
REMARK    2  A    between atoms: C_2  and  C_3
REMARK    3  A    between atoms: C_2  and  C_4
REMARK    4  A    between atoms: C_2  and  N_5
REMARK    5  A    between atoms: C_6  and  C_8
REMARK    6  A    between atoms: C_8  and  N_9
REMARK    7  A    between atoms: N_9  and  C_10
REMARK    8  A    between atoms: C_10  and  C_11
REMARK    9  A    between atoms: C_11  and  N_12
REMARK   10  A    between atoms: C_18  and  C_20
REMARK   11  A    between atoms: C_20  and  N_21
REMARK   12  A    between atoms: N_21  and  S_22
REMARK   13  A    between atoms: S_22  and  C_25
REMARK                            x       y       z     vdW  Elec       q    Type
REMARK                         _______ _______ _______ _____ _____    ______ ____
ROOT
ATOM      1  N   UNL     1       2.405   6.890  18.678  0.00  0.00    +0.000 N 
ATOM      2  C   UNL     1       2.236   8.224  18.286  0.00  0.00    +0.000 C 
ATOM      3  O   UNL     1       2.605   8.621  17.179  0.00  0.00    +0.000 OA
ENDROOT
BRANCH   1   4
ATOM      4  C   UNL     1       3.156   6.015  17.751  0.00  0.00    +0.000 C 
BRANCH   4   6
ATOM      5  N   UNL     1       5.628   5.908  18.439  0.00  0.00    +0.000 N 
ATOM      6  C   UNL     1       4.688   6.075  17.443  0.00  0.00    +0.000 C 
ATOM      7  O   UNL     1       5.020   6.127  16.253  0.00  0.00    +0.000 OA
ATOM      8  H   UNL     1       5.289   5.623  19.357  0.00  0.00    +0.000 HD
BRANCH   5  10
ATOM      9  C   UNL     1       7.571   7.168  17.496  0.00  0.00    +0.000 C 
ATOM     10  C   UNL     1       7.105   5.858  18.163  0.00  0.00    +0.000 C 
ATOM     11  C   UNL     1       7.506   4.686  17.237  0.00  0.00    +0.000 C 
ATOM     12  C   UNL     1       7.906   5.710  19.479  0.00  0.00    +0.000 C 
ENDBRANCH   5  10
ENDBRANCH   4   6
ENDBRANCH   1   4
BRANCH   1  13
ATOM     13  C   UNL     1       1.983   6.404  20.039  0.00  0.00    +0.000 C 
BRANCH  13  14
ATOM     14  C   UNL     1       2.696   5.175  20.650  0.00  0.00    +0.000 C 
BRANCH  14  15
ATOM     15  N   UNL     1       1.852   4.043  21.118  0.00  0.00    +0.000 NA
ATOM     16  C   UNL     1       2.549   2.750  21.318  0.00  0.00    +0.000 C 
ATOM     17  C   UNL     1       3.056   2.122  20.013  0.00  0.00    +0.000 C 
ATOM     18  O   UNL     1       1.986   1.914  19.080  0.00  0.00    +0.000 OA
ATOM     19  C   UNL     1       1.282   3.135  18.820  0.00  0.00    +0.000 C 
ATOM     20  C   UNL     1       0.771   3.784  20.125  0.00  0.00    +0.000 C 
ENDBRANCH  14  15
ENDBRANCH  13  14
ENDBRANCH   1  13
BRANCH   2  21
ATOM     21  C   UNL     1       1.562   9.155  19.293  0.00  0.00    +0.000 C 
BRANCH  21  22
ATOM     22  N   UNL     1       0.408   9.894  18.782  0.00  0.00    +0.000 NA
ATOM     23  H   UNL     1      -0.453   9.357  18.657  0.00  0.00    +0.000 HD
BRANCH  22  24
ATOM     24  S   UNL     1       0.110  11.361  19.552  0.00  0.00    +0.000 S 
ATOM     25  O   UNL     1       0.351  11.132  20.966  0.00  0.00    +0.000 OA
ATOM     26  O   UNL     1       0.791  12.398  18.822  0.00  0.00    +0.000 OA
BRANCH  24  27
ATOM     27  C   UNL     1      -1.640  11.573  19.342  0.00  0.00    +0.000 A 
ATOM     28  C   UNL     1      -2.341  12.395  20.227  0.00  0.00    +0.000 A 
ATOM     29  C   UNL     1      -3.708  12.607  20.025  0.00  0.00    +0.000 A 
ATOM     30  C   UNL     1      -4.354  12.002  18.947  0.00  0.00    +0.000 A 
ATOM     31 CL   UNL     1      -6.033  12.284  18.691  0.00  0.00    +0.000 Cl
ATOM     32  C   UNL     1      -3.651  11.175  18.069  0.00  0.00    +0.000 A 
ATOM     33  C   UNL     1      -2.286  10.957  18.267  0.00  0.00    +0.000 A 
ENDBRANCH  24  27
ENDBRANCH  22  24
ENDBRANCH  21  22
ENDBRANCH   2  21
TORSDOF 10
ENDMDL
MODEL 7
REMARK VINA RESULT:      -7.2      2.510      3.118
REMARK  Name = 
REMARK  13 active torsions:
REMARK  status: ('A' for Active; 'I' for Inactive)
REMARK    1  A    between atoms: C_1  and  C_2
REMARK    2  A    between atoms: C_2  and  C_3
REMARK    3  A    between atoms: C_2  and  C_4
REMARK    4  A    between atoms: C_2  and  N_5
REMARK    5  A    between atoms: C_6  and  C_8
REMARK    6  A    between atoms: C_8  and  N_9
REMARK    7  A    between atoms: N_9  and  C_10
REMARK    8  A    between atoms: C_10  and  C_11
REMARK    9  A    between atoms: C_11  and  N_12
REMARK   10  A    between atoms: C_18  and  C_20
REMARK   11  A    between atoms: C_20  and  N_21
REMARK   12  A    between atoms: N_21  and  S_22
REMARK   13  A    between atoms: S_22  and  C_25
REMARK                            x       y       z     vdW  Elec       q    Type
REMARK                         _______ _______ _______ _____ _____    ______ ____
ROOT
ATOM      1  N   UNL     1       2.229   6.449  19.613  0.00  0.00    +0.000 N 
ATOM      2  C   UNL     1       2.034   7.826  19.778  0.00  0.00    +0.000 C 
ATOM      3  O   UNL     1       2.352   8.630  18.899  0.00  0.00    +0.000 OA
ENDROOT
BRANCH   1   4
ATOM      4  C   UNL     1       2.944   6.020  18.390  0.00  0.00    +0.000 C 
BRANCH   4   6
ATOM      5  N   UNL     1       5.082   5.729  16.997  0.00  0.00    +0.000 N 
ATOM      6  C   UNL     1       4.484   5.795  18.239  0.00  0.00    +0.000 C 
ATOM      7  O   UNL     1       5.161   5.832  19.273  0.00  0.00    +0.000 OA
ATOM      8  H   UNL     1       4.503   5.954  16.189  0.00  0.00    +0.000 HD
BRANCH   5  10
ATOM      9  C   UNL     1       7.135   4.492  17.706  0.00  0.00    +0.000 C 
ATOM     10  C   UNL     1       6.570   5.617  16.816  0.00  0.00    +0.000 C 
ATOM     11  C   UNL     1       7.321   6.923  17.168  0.00  0.00    +0.000 C 
ATOM     12  C   UNL     1       6.920   5.257  15.352  0.00  0.00    +0.000 C 
ENDBRANCH   5  10
ENDBRANCH   4   6
ENDBRANCH   1   4
BRANCH   1  13
ATOM     13  C   UNL     1       1.869   5.462  20.692  0.00  0.00    +0.000 C 
BRANCH  13  14
ATOM     14  C   UNL     1       0.918   4.293  20.349  0.00  0.00    +0.000 C 
BRANCH  14  15
ATOM     15  N   UNL     1       1.295   2.930  20.814  0.00  0.00    +0.000 NA
ATOM     16  C   UNL     1       2.693   2.765  21.281  0.00  0.00    +0.000 C 
ATOM     17  C   UNL     1       3.732   2.912  20.161  0.00  0.00    +0.000 C 
ATOM     18  O   UNL     1       3.499   1.972  19.103  0.00  0.00    +0.000 OA
ATOM     19  C   UNL     1       2.168   2.094  18.585  0.00  0.00    +0.000 C 
ATOM     20  C   UNL     1       1.110   1.955  19.701  0.00  0.00    +0.000 C 
ENDBRANCH  14  15
ENDBRANCH  13  14
ENDBRANCH   1  13
BRANCH   2  21
ATOM     21  C   UNL     1       1.399   8.277  21.093  0.00  0.00    +0.000 C 
BRANCH  21  22
ATOM     22  N   UNL     1       0.022   8.756  20.987  0.00  0.00    +0.000 NA
ATOM     23  H   UNL     1      -0.652   8.338  21.632  0.00  0.00    +0.000 HD
BRANCH  22  24
ATOM     24  S   UNL     1      -0.142  10.430  20.927  0.00  0.00    +0.000 S 
ATOM     25  O   UNL     1      -0.977  10.796  22.058  0.00  0.00    +0.000 OA
ATOM     26  O   UNL     1       1.165  11.002  20.729  0.00  0.00    +0.000 OA
BRANCH  24  27
ATOM     27  C   UNL     1      -1.103  10.685  19.457  0.00  0.00    +0.000 A 
ATOM     28  C   UNL     1      -0.839   9.913  18.324  0.00  0.00    +0.000 A 
ATOM     29  C   UNL     1      -1.635  10.074  17.187  0.00  0.00    +0.000 A 
ATOM     30  C   UNL     1      -2.682  10.997  17.195  0.00  0.00    +0.000 A 
ATOM     31 CL   UNL     1      -3.672  11.176  15.799  0.00  0.00    +0.000 Cl
ATOM     32  C   UNL     1      -2.938  11.772  18.327  0.00  0.00    +0.000 A 
ATOM     33  C   UNL     1      -2.144  11.617  19.466  0.00  0.00    +0.000 A 
ENDBRANCH  24  27
ENDBRANCH  22  24
ENDBRANCH  21  22
ENDBRANCH   2  21
TORSDOF 10
ENDMDL
MODEL 8
REMARK VINA RESULT:      -7.2      2.435      4.473
REMARK  Name = 
REMARK  13 active torsions:
REMARK  status: ('A' for Active; 'I' for Inactive)
REMARK    1  A    between atoms: C_1  and  C_2
REMARK    2  A    between atoms: C_2  and  C_3
REMARK    3  A    between atoms: C_2  and  C_4
REMARK    4  A    between atoms: C_2  and  N_5
REMARK    5  A    between atoms: C_6  and  C_8
REMARK    6  A    between atoms: C_8  and  N_9
REMARK    7  A    between atoms: N_9  and  C_10
REMARK    8  A    between atoms: C_10  and  C_11
REMARK    9  A    between atoms: C_11  and  N_12
REMARK   10  A    between atoms: C_18  and  C_20
REMARK   11  A    between atoms: C_20  and  N_21
REMARK   12  A    between atoms: N_21  and  S_22
REMARK   13  A    between atoms: S_22  and  C_25
REMARK                            x       y       z     vdW  Elec       q    Type
REMARK                         _______ _______ _______ _____ _____    ______ ____
ROOT
ATOM      1  N   UNL     1       2.669   7.576  18.838  0.00  0.00    +0.000 N 
ATOM      2  C   UNL     1       1.760   8.586  19.179  0.00  0.00    +0.000 C 
ATOM      3  O   UNL     1       1.240   8.633  20.296  0.00  0.00    +0.000 OA
ENDROOT
BRANCH   1   4
ATOM      4  C   UNL     1       2.880   6.506  19.838  0.00  0.00    +0.000 C 
BRANCH   4   6
ATOM      5  N   UNL     1       2.722   4.004  19.279  0.00  0.00    +0.000 N 
ATOM      6  C   UNL     1       2.167   5.115  19.881  0.00  0.00    +0.000 C 
ATOM      7  O   UNL     1       1.168   5.018  20.604  0.00  0.00    +0.000 OA
ATOM      8  H   UNL     1       3.669   4.097  18.912  0.00  0.00    +0.000 HD
BRANCH   5  10
ATOM      9  C   UNL     1       3.031   1.588  18.715  0.00  0.00    +0.000 C 
ATOM     10  C   UNL     1       2.118   2.633  19.388  0.00  0.00    +0.000 C 
ATOM     11  C   UNL     1       0.721   2.535  18.732  0.00  0.00    +0.000 C 
ATOM     12  C   UNL     1       1.968   2.214  20.872  0.00  0.00    +0.000 C 
ENDBRANCH   5  10
ENDBRANCH   4   6
ENDBRANCH   1   4
BRANCH   1  13
ATOM     13  C   UNL     1       3.286   7.495  17.468  0.00  0.00    +0.000 C 
BRANCH  13  14
ATOM     14  C   UNL     1       4.706   6.899  17.320  0.00  0.00    +0.000 C 
BRANCH  14  15
ATOM     15  N   UNL     1       4.849   5.419  17.399  0.00  0.00    +0.000 NA
ATOM     16  C   UNL     1       5.917   4.915  18.295  0.00  0.00    +0.000 C 
ATOM     17  C   UNL     1       7.333   5.249  17.806  0.00  0.00    +0.000 C 
ATOM     18  O   UNL     1       7.570   4.729  16.492  0.00  0.00    +0.000 OA
ATOM     19  C   UNL     1       6.585   5.199  15.563  0.00  0.00    +0.000 C 
ATOM     20  C   UNL     1       5.153   4.876  16.044  0.00  0.00    +0.000 C 
ENDBRANCH  14  15
ENDBRANCH  13  14
ENDBRANCH   1  13
BRANCH   2  21
ATOM     21  C   UNL     1       1.455   9.628  18.102  0.00  0.00    +0.000 C 
BRANCH  21  22
ATOM     22  N   UNL     1       0.046   9.993  17.971  0.00  0.00    +0.000 NA
ATOM     23  H   UNL     1      -0.632   9.245  18.141  0.00  0.00    +0.000 HD
BRANCH  22  24
ATOM     24  S   UNL     1      -0.394  11.411  18.764  0.00  0.00    +0.000 S 
ATOM     25  O   UNL     1      -0.191  11.163  20.180  0.00  0.00    +0.000 OA
ATOM     26  O   UNL     1       0.232  12.517  18.086  0.00  0.00    +0.000 OA
BRANCH  24  27
ATOM     27  C   UNL     1      -2.146  11.494  18.489  0.00  0.00    +0.000 A 
ATOM     28  C   UNL     1      -2.695  10.859  17.374  0.00  0.00    +0.000 A 
ATOM     29  C   UNL     1      -4.081  10.876  17.191  0.00  0.00    +0.000 A 
ATOM     30  C   UNL     1      -4.897  11.521  18.120  0.00  0.00    +0.000 A 
ATOM     31 CL   UNL     1      -6.605  11.521  17.900  0.00  0.00    +0.000 Cl
ATOM     32  C   UNL     1      -4.344  12.161  19.230  0.00  0.00    +0.000 A 
ATOM     33  C   UNL     1      -2.960  12.150  19.417  0.00  0.00    +0.000 A 
ENDBRANCH  24  27
ENDBRANCH  22  24
ENDBRANCH  21  22
ENDBRANCH   2  21
TORSDOF 10
ENDMDL
MODEL 9
REMARK VINA RESULT:      -7.1      2.416      2.915
REMARK  Name = 
REMARK  13 active torsions:
REMARK  status: ('A' for Active; 'I' for Inactive)
REMARK    1  A    between atoms: C_1  and  C_2
REMARK    2  A    between atoms: C_2  and  C_3
REMARK    3  A    between atoms: C_2  and  C_4
REMARK    4  A    between atoms: C_2  and  N_5
REMARK    5  A    between atoms: C_6  and  C_8
REMARK    6  A    between atoms: C_8  and  N_9
REMARK    7  A    between atoms: N_9  and  C_10
REMARK    8  A    between atoms: C_10  and  C_11
REMARK    9  A    between atoms: C_11  and  N_12
REMARK   10  A    between atoms: C_18  and  C_20
REMARK   11  A    between atoms: C_20  and  N_21
REMARK   12  A    between atoms: N_21  and  S_22
REMARK   13  A    between atoms: S_22  and  C_25
REMARK                            x       y       z     vdW  Elec       q    Type
REMARK                         _______ _______ _______ _____ _____    ______ ____
ROOT
ATOM      1  N   UNL     1       2.127   6.655  19.165  0.00  0.00    +0.000 N 
ATOM      2  C   UNL     1       2.117   8.054  19.204  0.00  0.00    +0.000 C 
ATOM      3  O   UNL     1       2.446   8.727  18.224  0.00  0.00    +0.000 OA
ENDROOT
BRANCH   1   4
ATOM      4  C   UNL     1       2.666   6.026  17.939  0.00  0.00    +0.000 C 
BRANCH   4   6
ATOM      5  N   UNL     1       5.143   6.669  17.717  0.00  0.00    +0.000 N 
ATOM      6  C   UNL     1       4.165   5.698  17.638  0.00  0.00    +0.000 C 
ATOM      7  O   UNL     1       4.459   4.507  17.479  0.00  0.00    +0.000 OA
ATOM      8  H   UNL     1       4.870   7.576  18.095  0.00  0.00    +0.000 HD
BRANCH   5  10
ATOM      9  C   UNL     1       6.839   5.628  16.203  0.00  0.00    +0.000 C 
ATOM     10  C   UNL     1       6.604   6.368  17.536  0.00  0.00    +0.000 C 
ATOM     11  C   UNL     1       7.186   5.494  18.671  0.00  0.00    +0.000 C 
ATOM     12  C   UNL     1       7.433   7.674  17.480  0.00  0.00    +0.000 C 
ENDBRANCH   5  10
ENDBRANCH   4   6
ENDBRANCH   1   4
BRANCH   1  13
ATOM     13  C   UNL     1       1.754   5.826  20.365  0.00  0.00    +0.000 C 
BRANCH  13  14
ATOM     14  C   UNL     1       2.748   4.757  20.876  0.00  0.00    +0.000 C 
BRANCH  14  15
ATOM     15  N   UNL     1       2.212   3.408  21.203  0.00  0.00    +0.000 NA
ATOM     16  C   UNL     1       3.185   2.290  21.154  0.00  0.00    +0.000 C 
ATOM     17  C   UNL     1       3.697   1.989  19.739  0.00  0.00    +0.000 C 
ATOM     18  O   UNL     1       2.618   1.682  18.845  0.00  0.00    +0.000 OA
ATOM     19  C   UNL     1       1.648   2.737  18.823  0.00  0.00    +0.000 C 
ATOM     20  C   UNL     1       1.127   3.058  20.241  0.00  0.00    +0.000 C 
ENDBRANCH  14  15
ENDBRANCH  13  14
ENDBRANCH   1  13
BRANCH   2  21
ATOM     21  C   UNL     1       1.668   8.702  20.513  0.00  0.00    +0.000 C 
BRANCH  21  22
ATOM     22  N   UNL     1       0.259   9.089  20.565  0.00  0.00    +0.000 NA
ATOM     23  H   UNL     1      -0.283   8.715  21.347  0.00  0.00    +0.000 HD
BRANCH  22  24
ATOM     24  S   UNL     1      -0.031  10.733  20.347  0.00  0.00    +0.000 S 
ATOM     25  O   UNL     1      -0.692  11.191  21.557  0.00  0.00    +0.000 OA
ATOM     26  O   UNL     1       1.181  11.343  19.865  0.00  0.00    +0.000 OA
BRANCH  24  27
ATOM     27  C   UNL     1      -1.237  10.757  19.045  0.00  0.00    +0.000 A 
ATOM     28  C   UNL     1      -2.332  11.616  19.142  0.00  0.00    +0.000 A 
ATOM     29  C   UNL     1      -3.250  11.675  18.089  0.00  0.00    +0.000 A 
ATOM     30  C   UNL     1      -3.061  10.883  16.957  0.00  0.00    +0.000 A 
ATOM     31 CL   UNL     1      -4.183  10.976  15.654  0.00  0.00    +0.000 Cl
ATOM     32  C   UNL     1      -1.968  10.020  16.866  0.00  0.00    +0.000 A 
ATOM     33  C   UNL     1      -1.050   9.954  17.917  0.00  0.00    +0.000 A 
ENDBRANCH  24  27
ENDBRANCH  22  24
ENDBRANCH  21  22
ENDBRANCH   2  21
TORSDOF 10
ENDMDL
