MODEL 1
REMARK VINA RESULT:      -8.0      0.000      0.000
REMARK  Name = 
REMARK  5 active torsions:
REMARK  status: ('A' for Active; 'I' for Inactive)
REMARK    1  A    between atoms: C_2  and  C_3
REMARK    2  A    between atoms: C_2  and  C_14
REMARK    3  A    between atoms: C_4  and  C_5
REMARK    4  A    between atoms: C_14  and  C_15
REMARK    5  A    between atoms: C_15  and  O_16
REMARK                            x       y       z     vdW  Elec       q    Type
REMARK                         _______ _______ _______ _____ _____    ______ ____
ROOT
ATOM      1  C   UNL     1       3.979   4.892  19.203  0.00  0.00    +0.000 C 
ENDROOT
BRANCH   1   2
ATOM      2  C   UNL     1       2.507   5.290  19.264  0.00  0.00    +0.000 C 
ATOM      3  C   UNL     1       2.058   5.245  20.766  0.00  0.00    +0.000 C 
ATOM      4  O   UNL     1       2.015   4.246  21.467  0.00  0.00    +0.000 OA
ATOM      5  N   UNL     1       1.678   6.526  21.140  0.00  0.00    +0.000 N 
ATOM      6  C   UNL     1       1.768   7.404  20.070  0.00  0.00    +0.000 A 
ATOM      7  C   UNL     1       1.475   8.754  20.075  0.00  0.00    +0.000 A 
ATOM      8  C   UNL     1       1.660   9.456  18.883  0.00  0.00    +0.000 A 
ATOM      9  C   UNL     1       2.098   8.794  17.724  0.00  0.00    +0.000 A 
ATOM     10  C   UNL     1       2.361   7.422  17.742  0.00  0.00    +0.000 A 
ATOM     11  C   UNL     1       2.217   6.733  18.932  0.00  0.00    +0.000 A 
ATOM     12  H   UNL     1       1.338   6.761  22.061  0.00  0.00    +0.000 HD
BRANCH   2  13
ATOM     13  O   UNL     1       1.706   4.402  18.495  0.00  0.00    +0.000 OA
ATOM     14  H   UNL     1       0.856   4.863  18.350  0.00  0.00    +0.000 HD
ENDBRANCH   2  13
ENDBRANCH   1   2
BRANCH   1  16
ATOM     15  O   UNL     1       4.220   2.524  19.223  0.00  0.00    +0.000 OA
ATOM     16  C   UNL     1       4.240   3.552  18.549  0.00  0.00    +0.000 C 
BRANCH  16  17
ATOM     17  C   UNL     1       4.443   3.517  17.061  0.00  0.00    +0.000 C 
ATOM     18  C   UNL     1       5.417   4.145  16.381  0.00  0.00    +0.000 C 
BRANCH  18  19
ATOM     19  C   UNL     1       6.415   5.035  16.980  0.00  0.00    +0.000 A 
ATOM     20  C   UNL     1       7.214   4.603  18.058  0.00  0.00    +0.000 A 
ATOM     21  C   UNL     1       8.027   5.510  18.749  0.00  0.00    +0.000 A 
ATOM     22  C   UNL     1       8.005   6.826  18.343  0.00  0.00    +0.000 A 
ATOM     23  C   UNL     1       7.264   7.239  17.263  0.00  0.00    +0.000 A 
ATOM     24  C   UNL     1       6.483   6.362  16.541  0.00  0.00    +0.000 A 
ATOM     25  O   UNL     1       7.358   8.578  17.043  0.00  0.00    +0.000 OA
ATOM     26  C   UNL     1       8.160   8.974  18.175  0.00  0.00    +0.000 C 
ATOM     27  O   UNL     1       8.658   7.859  18.943  0.00  0.00    +0.000 OA
ENDBRANCH  18  19
ENDBRANCH  16  17
ENDBRANCH   1  16
TORSDOF 5
ENDMDL
MODEL 2
REMARK VINA RESULT:      -8.0      2.947      6.962
REMARK  Name = 
REMARK  5 active torsions:
REMARK  status: ('A' for Active; 'I' for Inactive)
REMARK    1  A    between atoms: C_2  and  C_3
REMARK    2  A    between atoms: C_2  and  C_14
REMARK    3  A    between atoms: C_4  and  C_5
REMARK    4  A    between atoms: C_14  and  C_15
REMARK    5  A    between atoms: C_15  and  O_16
REMARK                            x       y       z     vdW  Elec       q    Type
REMARK                         _______ _______ _______ _____ _____    ______ ____
ROOT
ATOM      1  C   UNL     1       5.621   6.442  16.017  0.00  0.00    +0.000 C 
ENDROOT
BRANCH   1   2
ATOM      2  C   UNL     1       6.424   5.161  15.808  0.00  0.00    +0.000 C 
ATOM      3  C   UNL     1       5.465   3.946  16.063  0.00  0.00    +0.000 C 
ATOM      4  O   UNL     1       4.935   3.669  17.128  0.00  0.00    +0.000 OA
ATOM      5  N   UNL     1       5.364   3.223  14.884  0.00  0.00    +0.000 N 
ATOM      6  C   UNL     1       6.169   3.769  13.894  0.00  0.00    +0.000 A 
ATOM      7  C   UNL     1       6.315   3.315  12.598  0.00  0.00    +0.000 A 
ATOM      8  C   UNL     1       7.166   4.037  11.758  0.00  0.00    +0.000 A 
ATOM      9  C   UNL     1       7.863   5.158  12.238  0.00  0.00    +0.000 A 
ATOM     10  C   UNL     1       7.714   5.577  13.563  0.00  0.00    +0.000 A 
ATOM     11  C   UNL     1       6.841   4.889  14.383  0.00  0.00    +0.000 A 
ATOM     12  H   UNL     1       4.810   2.384  14.789  0.00  0.00    +0.000 HD
BRANCH   2  13
ATOM     13  O   UNL     1       7.529   5.099  16.701  0.00  0.00    +0.000 OA
ATOM     14  H   UNL     1       8.272   5.538  16.242  0.00  0.00    +0.000 HD
ENDBRANCH   2  13
ENDBRANCH   1   2
BRANCH   1  16
ATOM     15  O   UNL     1       5.730   6.173  18.380  0.00  0.00    +0.000 OA
ATOM     16  C   UNL     1       5.106   6.637  17.427  0.00  0.00    +0.000 C 
BRANCH  16  17
ATOM     17  C   UNL     1       3.871   7.470  17.621  0.00  0.00    +0.000 C 
ATOM     18  C   UNL     1       2.725   7.064  18.194  0.00  0.00    +0.000 C 
BRANCH  18  19
ATOM     19  C   UNL     1       2.464   5.703  18.668  0.00  0.00    +0.000 A 
ATOM     20  C   UNL     1       1.867   4.745  17.823  0.00  0.00    +0.000 A 
ATOM     21  C   UNL     1       1.447   3.510  18.333  0.00  0.00    +0.000 A 
ATOM     22  C   UNL     1       1.629   3.279  19.679  0.00  0.00    +0.000 A 
ATOM     23  C   UNL     1       2.253   4.192  20.493  0.00  0.00    +0.000 A 
ATOM     24  C   UNL     1       2.710   5.399  20.012  0.00  0.00    +0.000 A 
ATOM     25  O   UNL     1       2.310   3.785  21.790  0.00  0.00    +0.000 OA
ATOM     26  C   UNL     1       1.554   2.558  21.713  0.00  0.00    +0.000 C 
ATOM     27  O   UNL     1       1.210   2.180  20.364  0.00  0.00    +0.000 OA
ENDBRANCH  18  19
ENDBRANCH  16  17
ENDBRANCH   1  16
TORSDOF 5
ENDMDL
MODEL 3
REMARK VINA RESULT:      -7.9      2.571      5.762
REMARK  Name = 
REMARK  5 active torsions:
REMARK  status: ('A' for Active; 'I' for Inactive)
REMARK    1  A    between atoms: C_2  and  C_3
REMARK    2  A    between atoms: C_2  and  C_14
REMARK    3  A    between atoms: C_4  and  C_5
REMARK    4  A    between atoms: C_14  and  C_15
REMARK    5  A    between atoms: C_15  and  O_16
REMARK                            x       y       z     vdW  Elec       q    Type
REMARK                         _______ _______ _______ _____ _____    ______ ____
ROOT
ATOM      1  C   UNL     1       5.442   5.801  19.009  0.00  0.00    +0.000 C 
ENDROOT
BRANCH   1   2
ATOM      2  C   UNL     1       6.550   6.042  17.989  0.00  0.00    +0.000 C 
ATOM      3  C   UNL     1       7.728   5.058  18.316  0.00  0.00    +0.000 C 
ATOM      4  O   UNL     1       8.399   5.065  19.335  0.00  0.00    +0.000 OA
ATOM      5  N   UNL     1       7.896   4.213  17.228  0.00  0.00    +0.000 N 
ATOM      6  C   UNL     1       7.019   4.540  16.203  0.00  0.00    +0.000 A 
ATOM      7  C   UNL     1       6.902   3.914  14.978  0.00  0.00    +0.000 A 
ATOM      8  C   UNL     1       5.930   4.397  14.100  0.00  0.00    +0.000 A 
ATOM      9  C   UNL     1       5.132   5.499  14.452  0.00  0.00    +0.000 A 
ATOM     10  C   UNL     1       5.292   6.128  15.689  0.00  0.00    +0.000 A 
ATOM     11  C   UNL     1       6.226   5.625  16.576  0.00  0.00    +0.000 A 
ATOM     12  H   UNL     1       8.600   3.490  17.186  0.00  0.00    +0.000 HD
BRANCH   2  13
ATOM     13  O   UNL     1       7.015   7.385  18.048  0.00  0.00    +0.000 OA
ATOM     14  H   UNL     1       6.597   7.781  18.837  0.00  0.00    +0.000 HD
ENDBRANCH   2  13
ENDBRANCH   1   2
BRANCH   1  16
ATOM     15  O   UNL     1       5.345   3.546  19.768  0.00  0.00    +0.000 OA
ATOM     16  C   UNL     1       4.882   4.394  19.007  0.00  0.00    +0.000 C 
BRANCH  16  17
ATOM     17  C   UNL     1       3.709   4.100  18.116  0.00  0.00    +0.000 C 
ATOM     18  C   UNL     1       2.629   4.882  17.945  0.00  0.00    +0.000 C 
BRANCH  18  19
ATOM     19  C   UNL     1       2.382   6.135  18.663  0.00  0.00    +0.000 A 
ATOM     20  C   UNL     1       2.012   6.128  20.023  0.00  0.00    +0.000 A 
ATOM     21  C   UNL     1       1.594   7.306  20.653  0.00  0.00    +0.000 A 
ATOM     22  C   UNL     1       1.549   8.455  19.894  0.00  0.00    +0.000 A 
ATOM     23  C   UNL     1       1.955   8.473  18.582  0.00  0.00    +0.000 A 
ATOM     24  C   UNL     1       2.406   7.336  17.946  0.00  0.00    +0.000 A 
ATOM     25  O   UNL     1       1.808   9.695  18.004  0.00  0.00    +0.000 OA
ATOM     26  C   UNL     1       1.164  10.416  19.076  0.00  0.00    +0.000 C 
ATOM     27  O   UNL     1       1.092   9.669  20.307  0.00  0.00    +0.000 OA
ENDBRANCH  18  19
ENDBRANCH  16  17
ENDBRANCH   1  16
TORSDOF 5
ENDMDL
MODEL 4
REMARK VINA RESULT:      -7.9      3.237      5.413
REMARK  Name = 
REMARK  5 active torsions:
REMARK  status: ('A' for Active; 'I' for Inactive)
REMARK    1  A    between atoms: C_2  and  C_3
REMARK    2  A    between atoms: C_2  and  C_14
REMARK    3  A    between atoms: C_4  and  C_5
REMARK    4  A    between atoms: C_14  and  C_15
REMARK    5  A    between atoms: C_15  and  O_16
REMARK                            x       y       z     vdW  Elec       q    Type
REMARK                         _______ _______ _______ _____ _____    ______ ____
ROOT
ATOM      1  C   UNL     1       1.529   8.825  21.294  0.00  0.00    +0.000 C 
ENDROOT
BRANCH   1   2
ATOM      2  C   UNL     1       0.061   9.176  21.518  0.00  0.00    +0.000 C 
ATOM      3  C   UNL     1      -0.035  10.024  22.835  0.00  0.00    +0.000 C 
ATOM      4  O   UNL     1       0.242   9.630  23.957  0.00  0.00    +0.000 OA
ATOM      5  N   UNL     1      -0.530  11.277  22.504  0.00  0.00    +0.000 N 
ATOM      6  C   UNL     1      -0.822  11.355  21.150  0.00  0.00    +0.000 A 
ATOM      7  C   UNL     1      -1.326  12.448  20.470  0.00  0.00    +0.000 A 
ATOM      8  C   UNL     1      -1.524  12.312  19.095  0.00  0.00    +0.000 A 
ATOM      9  C   UNL     1      -1.247  11.095  18.449  0.00  0.00    +0.000 A 
ATOM     10  C   UNL     1      -0.764   9.999  19.168  0.00  0.00    +0.000 A 
ATOM     11  C   UNL     1      -0.528  10.145  20.523  0.00  0.00    +0.000 A 
ATOM     12  H   UNL     1      -0.693  12.009  23.180  0.00  0.00    +0.000 HD
BRANCH   2  13
ATOM     13  O   UNL     1      -0.732   8.002  21.643  0.00  0.00    +0.000 OA
ATOM     14  H   UNL     1      -0.816   7.636  20.740  0.00  0.00    +0.000 HD
ENDBRANCH   2  13
ENDBRANCH   1   2
BRANCH   1  16
ATOM     15  O   UNL     1       1.547   6.546  20.604  0.00  0.00    +0.000 OA
ATOM     16  C   UNL     1       1.763   7.716  20.291  0.00  0.00    +0.000 C 
BRANCH  16  17
ATOM     17  C   UNL     1       2.184   8.095  18.899  0.00  0.00    +0.000 C 
ATOM     18  C   UNL     1       2.597   7.250  17.939  0.00  0.00    +0.000 C 
BRANCH  18  19
ATOM     19  C   UNL     1       2.772   5.806  18.116  0.00  0.00    +0.000 A 
ATOM     20  C   UNL     1       1.716   4.912  17.845  0.00  0.00    +0.000 A 
ATOM     21  C   UNL     1       1.822   3.560  18.194  0.00  0.00    +0.000 A 
ATOM     22  C   UNL     1       2.981   3.149  18.814  0.00  0.00    +0.000 A 
ATOM     23  C   UNL     1       4.029   4.009  19.035  0.00  0.00    +0.000 A 
ATOM     24  C   UNL     1       3.968   5.336  18.670  0.00  0.00    +0.000 A 
ATOM     25  O   UNL     1       5.067   3.414  19.682  0.00  0.00    +0.000 OA
ATOM     26  C   UNL     1       4.507   2.110  19.935  0.00  0.00    +0.000 C 
ATOM     27  O   UNL     1       3.229   1.901  19.299  0.00  0.00    +0.000 OA
ENDBRANCH  18  19
ENDBRANCH  16  17
ENDBRANCH   1  16
TORSDOF 5
ENDMDL
MODEL 5
REMARK VINA RESULT:      -7.8      2.685      6.167
REMARK  Name = 
REMARK  5 active torsions:
REMARK  status: ('A' for Active; 'I' for Inactive)
REMARK    1  A    between atoms: C_2  and  C_3
REMARK    2  A    between atoms: C_2  and  C_14
REMARK    3  A    between atoms: C_4  and  C_5
REMARK    4  A    between atoms: C_14  and  C_15
REMARK    5  A    between atoms: C_15  and  O_16
REMARK                            x       y       z     vdW  Elec       q    Type
REMARK                         _______ _______ _______ _____ _____    ______ ____
ROOT
ATOM      1  C   UNL     1       2.882   4.631  19.359  0.00  0.00    +0.000 C 
ENDROOT
BRANCH   1   2
ATOM      2  C   UNL     1       4.070   3.701  19.132  0.00  0.00    +0.000 C 
ATOM      3  C   UNL     1       3.771   2.840  17.855  0.00  0.00    +0.000 C 
ATOM      4  O   UNL     1       2.866   2.029  17.739  0.00  0.00    +0.000 OA
ATOM      5  N   UNL     1       4.737   3.133  16.904  0.00  0.00    +0.000 N 
ATOM      6  C   UNL     1       5.667   4.035  17.400  0.00  0.00    +0.000 A 
ATOM      7  C   UNL     1       6.761   4.552  16.733  0.00  0.00    +0.000 A 
ATOM      8  C   UNL     1       7.556   5.471  17.421  0.00  0.00    +0.000 A 
ATOM      9  C   UNL     1       7.260   5.820  18.749  0.00  0.00    +0.000 A 
ATOM     10  C   UNL     1       6.162   5.260  19.406  0.00  0.00    +0.000 A 
ATOM     11  C   UNL     1       5.350   4.382  18.713  0.00  0.00    +0.000 A 
ATOM     12  H   UNL     1       4.772   2.701  15.992  0.00  0.00    +0.000 HD
BRANCH   2  13
ATOM     13  O   UNL     1       4.271   2.847  20.252  0.00  0.00    +0.000 OA
ATOM     14  H   UNL     1       4.209   1.934  19.909  0.00  0.00    +0.000 HD
ENDBRANCH   2  13
ENDBRANCH   1   2
BRANCH   1  16
ATOM     15  O   UNL     1       1.337   5.110  17.612  0.00  0.00    +0.000 OA
ATOM     16  C   UNL     1       2.423   5.376  18.124  0.00  0.00    +0.000 C 
BRANCH  16  17
ATOM     17  C   UNL     1       3.292   6.486  17.602  0.00  0.00    +0.000 C 
ATOM     18  C   UNL     1       3.129   7.798  17.842  0.00  0.00    +0.000 C 
BRANCH  18  19
ATOM     19  C   UNL     1       2.021   8.376  18.607  0.00  0.00    +0.000 A 
ATOM     20  C   UNL     1       1.128   9.289  18.009  0.00  0.00    +0.000 A 
ATOM     21  C   UNL     1       0.192   9.981  18.786  0.00  0.00    +0.000 A 
ATOM     22  C   UNL     1       0.187   9.745  20.143  0.00  0.00    +0.000 A 
ATOM     23  C   UNL     1       1.024   8.820  20.720  0.00  0.00    +0.000 A 
ATOM     24  C   UNL     1       1.930   8.097  19.975  0.00  0.00    +0.000 A 
ATOM     25  O   UNL     1       0.882   8.756  22.071  0.00  0.00    +0.000 OA
ATOM     26  C   UNL     1      -0.066   9.822  22.286  0.00  0.00    +0.000 C 
ATOM     27  O   UNL     1      -0.587  10.382  21.063  0.00  0.00    +0.000 OA
ENDBRANCH  18  19
ENDBRANCH  16  17
ENDBRANCH   1  16
TORSDOF 5
ENDMDL
MODEL 6
REMARK VINA RESULT:      -7.8      3.204      6.433
REMARK  Name = 
REMARK  5 active torsions:
REMARK  status: ('A' for Active; 'I' for Inactive)
REMARK    1  A    between atoms: C_2  and  C_3
REMARK    2  A    between atoms: C_2  and  C_14
REMARK    3  A    between atoms: C_4  and  C_5
REMARK    4  A    between atoms: C_14  and  C_15
REMARK    5  A    between atoms: C_15  and  O_16
REMARK                            x       y       z     vdW  Elec       q    Type
REMARK                         _______ _______ _______ _____ _____    ______ ____
ROOT
ATOM      1  C   UNL     1       5.846   3.909  16.784  0.00  0.00    +0.000 C 
ENDROOT
BRANCH   1   2
ATOM      2  C   UNL     1       5.846   4.969  15.687  0.00  0.00    +0.000 C 
ATOM      3  C   UNL     1       7.203   5.751  15.774  0.00  0.00    +0.000 C 
ATOM      4  O   UNL     1       7.567   6.444  16.711  0.00  0.00    +0.000 OA
ATOM      5  N   UNL     1       7.891   5.552  14.586  0.00  0.00    +0.000 N 
ATOM      6  C   UNL     1       7.147   4.782  13.703  0.00  0.00    +0.000 A 
ATOM      7  C   UNL     1       7.516   4.383  12.433  0.00  0.00    +0.000 A 
ATOM      8  C   UNL     1       6.615   3.587  11.723  0.00  0.00    +0.000 A 
ATOM      9  C   UNL     1       5.372   3.242  12.280  0.00  0.00    +0.000 A 
ATOM     10  C   UNL     1       5.016   3.683  13.557  0.00  0.00    +0.000 A 
ATOM     11  C   UNL     1       5.924   4.437  14.277  0.00  0.00    +0.000 A 
ATOM     12  H   UNL     1       8.793   5.959  14.388  0.00  0.00    +0.000 HD
BRANCH   2  13
ATOM     13  O   UNL     1       4.759   5.872  15.850  0.00  0.00    +0.000 OA
ATOM     14  H   UNL     1       5.151   6.717  16.145  0.00  0.00    +0.000 HD
ENDBRANCH   2  13
ENDBRANCH   1   2
BRANCH   1  16
ATOM     15  O   UNL     1       5.320   5.012  18.827  0.00  0.00    +0.000 OA
ATOM     16  C   UNL     1       4.947   4.223  17.961  0.00  0.00    +0.000 C 
BRANCH  16  17
ATOM     17  C   UNL     1       3.576   3.607  17.990  0.00  0.00    +0.000 C 
ATOM     18  C   UNL     1       2.433   4.236  18.312  0.00  0.00    +0.000 C 
BRANCH  18  19
ATOM     19  C   UNL     1       2.343   5.628  18.761  0.00  0.00    +0.000 A 
ATOM     20  C   UNL     1       2.089   5.937  20.113  0.00  0.00    +0.000 A 
ATOM     21  C   UNL     1       1.815   7.253  20.503  0.00  0.00    +0.000 A 
ATOM     22  C   UNL     1       1.794   8.219  19.521  0.00  0.00    +0.000 A 
ATOM     23  C   UNL     1       2.088   7.928  18.211  0.00  0.00    +0.000 A 
ATOM     24  C   UNL     1       2.397   6.648  17.805  0.00  0.00    +0.000 A 
ATOM     25  O   UNL     1       1.986   9.013  17.397  0.00  0.00    +0.000 OA
ATOM     26  C   UNL     1       1.491   9.995  18.330  0.00  0.00    +0.000 C 
ATOM     27  O   UNL     1       1.466   9.529  19.695  0.00  0.00    +0.000 OA
ENDBRANCH  18  19
ENDBRANCH  16  17
ENDBRANCH   1  16
TORSDOF 5
ENDMDL
MODEL 7
REMARK VINA RESULT:      -7.7      1.842      3.209
REMARK  Name = 
REMARK  5 active torsions:
REMARK  status: ('A' for Active; 'I' for Inactive)
REMARK    1  A    between atoms: C_2  and  C_3
REMARK    2  A    between atoms: C_2  and  C_14
REMARK    3  A    between atoms: C_4  and  C_5
REMARK    4  A    between atoms: C_14  and  C_15
REMARK    5  A    between atoms: C_15  and  O_16
REMARK                            x       y       z     vdW  Elec       q    Type
REMARK                         _______ _______ _______ _____ _____    ______ ____
ROOT
ATOM      1  C   UNL     1       1.609   5.569  18.698  0.00  0.00    +0.000 C 
ENDROOT
BRANCH   1   2
ATOM      2  C   UNL     1       2.375   6.761  19.263  0.00  0.00    +0.000 C 
ATOM      3  C   UNL     1       2.950   7.581  18.055  0.00  0.00    +0.000 C 
ATOM      4  O   UNL     1       3.780   7.181  17.254  0.00  0.00    +0.000 OA
ATOM      5  N   UNL     1       2.383   8.847  18.086  0.00  0.00    +0.000 N 
ATOM      6  C   UNL     1       1.547   8.991  19.184  0.00  0.00    +0.000 A 
ATOM      7  C   UNL     1       0.815  10.111  19.530  0.00  0.00    +0.000 A 
ATOM      8  C   UNL     1       0.016  10.027  20.672  0.00  0.00    +0.000 A 
ATOM      9  C   UNL     1      -0.006   8.855  21.445  0.00  0.00    +0.000 A 
ATOM     10  C   UNL     1       0.765   7.748  21.085  0.00  0.00    +0.000 A 
ATOM     11  C   UNL     1       1.525   7.814  19.932  0.00  0.00    +0.000 A 
ATOM     12  H   UNL     1       2.597   9.571  17.416  0.00  0.00    +0.000 HD
BRANCH   2  13
ATOM     13  O   UNL     1       3.439   6.332  20.104  0.00  0.00    +0.000 OA
ATOM     14  H   UNL     1       3.970   7.130  20.296  0.00  0.00    +0.000 HD
ENDBRANCH   2  13
ENDBRANCH   1   2
BRANCH   1  16
ATOM     15  O   UNL     1       1.594   4.315  20.721  0.00  0.00    +0.000 OA
ATOM     16  C   UNL     1       1.749   4.294  19.501  0.00  0.00    +0.000 C 
BRANCH  16  17
ATOM     17  C   UNL     1       2.002   3.013  18.758  0.00  0.00    +0.000 C 
ATOM     18  C   UNL     1       3.115   2.703  18.071  0.00  0.00    +0.000 C 
BRANCH  18  19
ATOM     19  C   UNL     1       4.252   3.605  17.872  0.00  0.00    +0.000 A 
ATOM     20  C   UNL     1       4.737   3.884  16.578  0.00  0.00    +0.000 A 
ATOM     21  C   UNL     1       5.934   4.588  16.403  0.00  0.00    +0.000 A 
ATOM     22  C   UNL     1       6.615   4.982  17.534  0.00  0.00    +0.000 A 
ATOM     23  C   UNL     1       6.120   4.752  18.794  0.00  0.00    +0.000 A 
ATOM     24  C   UNL     1       4.927   4.094  18.997  0.00  0.00    +0.000 A 
ATOM     25  O   UNL     1       6.954   5.195  19.773  0.00  0.00    +0.000 OA
ATOM     26  C   UNL     1       8.078   5.633  18.982  0.00  0.00    +0.000 C 
ATOM     27  O   UNL     1       7.829   5.597  17.562  0.00  0.00    +0.000 OA
ENDBRANCH  18  19
ENDBRANCH  16  17
ENDBRANCH   1  16
TORSDOF 5
ENDMDL
MODEL 8
REMARK VINA RESULT:      -7.7      1.384      2.144
REMARK  Name = 
REMARK  5 active torsions:
REMARK  status: ('A' for Active; 'I' for Inactive)
REMARK    1  A    between atoms: C_2  and  C_3
REMARK    2  A    between atoms: C_2  and  C_14
REMARK    3  A    between atoms: C_4  and  C_5
REMARK    4  A    between atoms: C_14  and  C_15
REMARK    5  A    between atoms: C_15  and  O_16
REMARK                            x       y       z     vdW  Elec       q    Type
REMARK                         _______ _______ _______ _____ _____    ______ ____
ROOT
ATOM      1  C   UNL     1       2.499   2.210  19.361  0.00  0.00    +0.000 C 
ENDROOT
BRANCH   1   2
ATOM      2  C   UNL     1       1.579   3.315  19.872  0.00  0.00    +0.000 C 
ATOM      3  C   UNL     1       1.992   3.639  21.351  0.00  0.00    +0.000 C 
ATOM      4  O   UNL     1       1.915   2.870  22.296  0.00  0.00    +0.000 OA
ATOM      5  N   UNL     1       2.417   4.959  21.399  0.00  0.00    +0.000 N 
ATOM      6  C   UNL     1       2.291   5.568  20.158  0.00  0.00    +0.000 A 
ATOM      7  C   UNL     1       2.620   6.870  19.834  0.00  0.00    +0.000 A 
ATOM      8  C   UNL     1       2.433   7.268  18.510  0.00  0.00    +0.000 A 
ATOM      9  C   UNL     1       1.900   6.377  17.563  0.00  0.00    +0.000 A 
ATOM     10  C   UNL     1       1.552   5.074  17.927  0.00  0.00    +0.000 A 
ATOM     11  C   UNL     1       1.775   4.665  19.229  0.00  0.00    +0.000 A 
ATOM     12  H   UNL     1       2.728   5.415  22.244  0.00  0.00    +0.000 HD
BRANCH   2  13
ATOM     13  O   UNL     1       0.218   2.905  19.832  0.00  0.00    +0.000 OA
ATOM     14  H   UNL     1      -0.250   3.457  20.488  0.00  0.00    +0.000 HD
ENDBRANCH   2  13
ENDBRANCH   1   2
BRANCH   1  16
ATOM     15  O   UNL     1       4.625   3.249  19.620  0.00  0.00    +0.000 OA
ATOM     16  C   UNL     1       3.840   2.695  18.853  0.00  0.00    +0.000 C 
BRANCH  16  17
ATOM     17  C   UNL     1       4.202   2.409  17.422  0.00  0.00    +0.000 C 
ATOM     18  C   UNL     1       4.897   3.219  16.605  0.00  0.00    +0.000 C 
BRANCH  18  19
ATOM     19  C   UNL     1       5.363   4.562  16.958  0.00  0.00    +0.000 A 
ATOM     20  C   UNL     1       4.867   5.699  16.288  0.00  0.00    +0.000 A 
ATOM     21  C   UNL     1       5.449   6.956  16.492  0.00  0.00    +0.000 A 
ATOM     22  C   UNL     1       6.520   7.032  17.356  0.00  0.00    +0.000 A 
ATOM     23  C   UNL     1       6.973   5.933  18.046  0.00  0.00    +0.000 A 
ATOM     24  C   UNL     1       6.397   4.691  17.893  0.00  0.00    +0.000 A 
ATOM     25  O   UNL     1       8.053   6.213  18.825  0.00  0.00    +0.000 OA
ATOM     26  C   UNL     1       8.289   7.589  18.462  0.00  0.00    +0.000 C 
ATOM     27  O   UNL     1       7.262   8.143  17.614  0.00  0.00    +0.000 OA
ENDBRANCH  18  19
ENDBRANCH  16  17
ENDBRANCH   1  16
TORSDOF 5
ENDMDL
MODEL 9
REMARK VINA RESULT:      -7.7      3.329      6.957
REMARK  Name = 
REMARK  5 active torsions:
REMARK  status: ('A' for Active; 'I' for Inactive)
REMARK    1  A    between atoms: C_2  and  C_3
REMARK    2  A    between atoms: C_2  and  C_14
REMARK    3  A    between atoms: C_4  and  C_5
REMARK    4  A    between atoms: C_14  and  C_15
REMARK    5  A    between atoms: C_15  and  O_16
REMARK                            x       y       z     vdW  Elec       q    Type
REMARK                         _______ _______ _______ _____ _____    ______ ____
ROOT
ATOM      1  C   UNL     1       2.226   5.947  18.358  0.00  0.00    +0.000 C 
ENDROOT
BRANCH   1   2
ATOM      2  C   UNL     1       3.548   5.214  18.565  0.00  0.00    +0.000 C 
ATOM      3  C   UNL     1       3.237   3.680  18.669  0.00  0.00    +0.000 C 
ATOM      4  O   UNL     1       2.581   3.144  19.548  0.00  0.00    +0.000 OA
ATOM      5  N   UNL     1       3.873   3.040  17.615  0.00  0.00    +0.000 N 
ATOM      6  C   UNL     1       4.606   3.940  16.855  0.00  0.00    +0.000 A 
ATOM      7  C   UNL     1       5.360   3.660  15.732  0.00  0.00    +0.000 A 
ATOM      8  C   UNL     1       6.001   4.731  15.107  0.00  0.00    +0.000 A 
ATOM      9  C   UNL     1       5.900   6.030  15.630  0.00  0.00    +0.000 A 
ATOM     10  C   UNL     1       5.152   6.278  16.783  0.00  0.00    +0.000 A 
ATOM     11  C   UNL     1       4.483   5.227  17.380  0.00  0.00    +0.000 A 
ATOM     12  H   UNL     1       3.835   2.043  17.462  0.00  0.00    +0.000 HD
BRANCH   2  13
ATOM     13  O   UNL     1       4.196   5.655  19.751  0.00  0.00    +0.000 OA
ATOM     14  H   UNL     1       4.076   4.940  20.407  0.00  0.00    +0.000 HD
ENDBRANCH   2  13
ENDBRANCH   1   2
BRANCH   1  16
ATOM     15  O   UNL     1       1.992   7.612  20.043  0.00  0.00    +0.000 OA
ATOM     16  C   UNL     1       2.215   7.376  18.857  0.00  0.00    +0.000 C 
BRANCH  16  17
ATOM     17  C   UNL     1       2.558   8.469  17.885  0.00  0.00    +0.000 C 
ATOM     18  C   UNL     1       2.006   9.693  17.844  0.00  0.00    +0.000 C 
BRANCH  18  19
ATOM     19  C   UNL     1       0.915  10.147  18.710  0.00  0.00    +0.000 A 
ATOM     20  C   UNL     1      -0.428  10.053  18.291  0.00  0.00    +0.000 A 
ATOM     21  C   UNL     1      -1.450  10.657  19.033  0.00  0.00    +0.000 A 
ATOM     22  C   UNL     1      -1.091  11.349  20.169  0.00  0.00    +0.000 A 
ATOM     23  C   UNL     1       0.211  11.401  20.604  0.00  0.00    +0.000 A 
ATOM     24  C   UNL     1       1.232  10.785  19.915  0.00  0.00    +0.000 A 
ATOM     25  O   UNL     1       0.358  12.153  21.728  0.00  0.00    +0.000 OA
ATOM     26  C   UNL     1      -0.986  12.653  21.886  0.00  0.00    +0.000 C 
ATOM     27  O   UNL     1      -1.929  12.067  20.966  0.00  0.00    +0.000 OA
ENDBRANCH  18  19
ENDBRANCH  16  17
ENDBRANCH   1  16
TORSDOF 5
ENDMDL
