MODEL 1
REMARK VINA RESULT:      -7.1      0.000      0.000
REMARK  Name = 
REMARK  3 active torsions:
REMARK  status: ('A' for Active; 'I' for Inactive)
REMARK    1  A    between atoms: C_2  and  O_3
REMARK    2  A    between atoms: C_2  and  C_4
REMARK    3  A    between atoms: C_4  and  C_5
REMARK                            x       y       z     vdW  Elec       q    Type
REMARK                         _______ _______ _______ _____ _____    ______ ____
ROOT
ATOM      1  C   UNL     1       2.511   6.027  19.809  0.00  0.00    +0.000 C 
ATOM      2  O   UNL     1       1.473   5.782  20.788  0.00  0.00    +0.000 OA
ATOM      3  C   UNL     1       1.791   4.771  21.735  0.00  0.00    +0.000 C 
ATOM      4  C   UNL     1       1.699   3.393  21.191  0.00  0.00    +0.000 C 
ATOM      5  C   UNL     1       1.709   3.021  19.897  0.00  0.00    +0.000 C 
ATOM      6  C   UNL     1       2.417   1.702  19.600  0.00  0.00    +0.000 C 
ATOM      7  N   UNL     1       3.610   2.007  18.783  0.00  0.00    +0.000 NA
ATOM      8  C   UNL     1       4.524   2.880  19.544  0.00  0.00    +0.000 C 
ATOM      9  C   UNL     1       5.162   3.785  18.545  0.00  0.00    +0.000 C 
ATOM     10  C   UNL     1       4.138   3.932  17.411  0.00  0.00    +0.000 C 
ATOM     11  C   UNL     1       5.005   4.321  16.241  0.00  0.00    +0.000 A 
ATOM     12  C   UNL     1       5.905   3.552  15.522  0.00  0.00    +0.000 A 
ATOM     13  C   UNL     1       6.868   4.218  14.760  0.00  0.00    +0.000 A 
ATOM     14  C   UNL     1       6.896   5.623  14.706  0.00  0.00    +0.000 A 
ATOM     15  C   UNL     1       5.958   6.391  15.409  0.00  0.00    +0.000 A 
ATOM     16  C   UNL     1       5.016   5.728  16.173  0.00  0.00    +0.000 A 
ATOM     17  N   UNL     1       4.101   6.352  17.104  0.00  0.00    +0.000 N 
ATOM     18  C   UNL     1       3.230   5.196  17.392  0.00  0.00    +0.000 C 
ATOM     19  C   UNL     1       2.149   5.289  18.500  0.00  0.00    +0.000 C 
ATOM     20  C   UNL     1       1.431   3.887  18.664  0.00  0.00    +0.000 C 
ATOM     21  C   UNL     1       1.754   3.003  17.426  0.00  0.00    +0.000 C 
ATOM     22  C   UNL     1       3.268   2.664  17.482  0.00  0.00    +0.000 C 
ATOM     23  H   UNL     1       3.647   7.127  16.621  0.00  0.00    +0.000 HD
ENDROOT
BRANCH   1  24
ATOM     24  C   UNL     1       2.482   7.556  19.620  0.00  0.00    +0.000 C 
BRANCH  24  26
ATOM     25  O   UNL     1       0.387   8.608  20.225  0.00  0.00    +0.000 OA
ATOM     26  C   UNL     1       1.488   8.204  20.565  0.00  0.00    +0.000 C 
BRANCH  26  27
ATOM     27  O   UNL     1       1.902   8.231  21.854  0.00  0.00    +0.000 OA
ATOM     28  H   UNL     1       2.839   7.939  21.927  0.00  0.00    +0.000 HD
ENDBRANCH  26  27
ENDBRANCH  24  26
ENDBRANCH   1  24
TORSDOF 3
ENDMDL
MODEL 2
REMARK VINA RESULT:      -6.8      9.254     12.108
REMARK  Name = 
REMARK  3 active torsions:
REMARK  status: ('A' for Active; 'I' for Inactive)
REMARK    1  A    between atoms: C_2  and  O_3
REMARK    2  A    between atoms: C_2  and  C_4
REMARK    3  A    between atoms: C_4  and  C_5
REMARK                            x       y       z     vdW  Elec       q    Type
REMARK                         _______ _______ _______ _____ _____    ______ ____
ROOT
ATOM      1  C   UNL     1       9.791  12.028  18.436  0.00  0.00    +0.000 C 
ATOM      2  O   UNL     1      11.149  11.523  18.435  0.00  0.00    +0.000 OA
ATOM      3  C   UNL     1      11.882  11.821  19.615  0.00  0.00    +0.000 C 
ATOM      4  C   UNL     1      12.333  13.233  19.700  0.00  0.00    +0.000 C 
ATOM      5  C   UNL     1      11.851  14.288  19.017  0.00  0.00    +0.000 C 
ATOM      6  C   UNL     1      11.823  15.607  19.784  0.00  0.00    +0.000 C 
ATOM      7  N   UNL     1      10.407  15.987  19.973  0.00  0.00    +0.000 NA
ATOM      8  C   UNL     1       9.718  14.956  20.770  0.00  0.00    +0.000 C 
ATOM      9  C   UNL     1       8.321  14.892  20.249  0.00  0.00    +0.000 C 
ATOM     10  C   UNL     1       8.414  15.310  18.775  0.00  0.00    +0.000 C 
ATOM     11  C   UNL     1       7.014  15.788  18.486  0.00  0.00    +0.000 A 
ATOM     12  C   UNL     1       6.372  16.936  18.921  0.00  0.00    +0.000 A 
ATOM     13  C   UNL     1       4.978  16.966  18.858  0.00  0.00    +0.000 A 
ATOM     14  C   UNL     1       4.257  15.874  18.342  0.00  0.00    +0.000 A 
ATOM     15  C   UNL     1       4.918  14.732  17.871  0.00  0.00    +0.000 A 
ATOM     16  C   UNL     1       6.298  14.701  17.948  0.00  0.00    +0.000 A 
ATOM     17  N   UNL     1       7.127  13.544  17.691  0.00  0.00    +0.000 N 
ATOM     18  C   UNL     1       8.451  14.194  17.690  0.00  0.00    +0.000 C 
ATOM     19  C   UNL     1       9.743  13.339  17.621  0.00  0.00    +0.000 C 
ATOM     20  C   UNL     1      11.012  14.279  17.734  0.00  0.00    +0.000 C 
ATOM     21  C   UNL     1      10.578  15.751  17.484  0.00  0.00    +0.000 C 
ATOM     22  C   UNL     1       9.682  16.178  18.677  0.00  0.00    +0.000 C 
ATOM     23  H   UNL     1       6.838  13.148  16.796  0.00  0.00    +0.000 HD
ENDROOT
BRANCH   1  24
ATOM     24  C   UNL     1       8.985  10.907  17.751  0.00  0.00    +0.000 C 
BRANCH  24  26
ATOM     25  O   UNL     1       8.393   8.628  18.314  0.00  0.00    +0.000 OA
ATOM     26  C   UNL     1       8.807   9.719  18.676  0.00  0.00    +0.000 C 
BRANCH  26  27
ATOM     27  O   UNL     1       9.222   9.950  19.944  0.00  0.00    +0.000 OA
ATOM     28  H   UNL     1       9.812  10.737  19.981  0.00  0.00    +0.000 HD
ENDBRANCH  26  27
ENDBRANCH  24  26
ENDBRANCH   1  24
TORSDOF 3
ENDMDL
MODEL 3
REMARK VINA RESULT:      -6.8      6.965     10.907
REMARK  Name = 
REMARK  3 active torsions:
REMARK  status: ('A' for Active; 'I' for Inactive)
REMARK    1  A    between atoms: C_2  and  O_3
REMARK    2  A    between atoms: C_2  and  C_4
REMARK    3  A    between atoms: C_4  and  C_5
REMARK                            x       y       z     vdW  Elec       q    Type
REMARK                         _______ _______ _______ _____ _____    ______ ____
ROOT
ATOM      1  C   UNL     1      -1.705  10.603  18.519  0.00  0.00    +0.000 C 
ATOM      2  O   UNL     1      -0.647  10.254  17.593  0.00  0.00    +0.000 OA
ATOM      3  C   UNL     1       0.532   9.760  18.214  0.00  0.00    +0.000 C 
ATOM      4  C   UNL     1       1.352  10.813  18.863  0.00  0.00    +0.000 C 
ATOM      5  C   UNL     1       0.959  12.047  19.231  0.00  0.00    +0.000 C 
ATOM      6  C   UNL     1       1.592  12.581  20.514  0.00  0.00    +0.000 C 
ATOM      7  N   UNL     1       0.520  12.712  21.522  0.00  0.00    +0.000 NA
ATOM      8  C   UNL     1      -0.070  11.389  21.796  0.00  0.00    +0.000 C 
ATOM      9  C   UNL     1      -1.518  11.626  22.065  0.00  0.00    +0.000 C 
ATOM     10  C   UNL     1      -1.882  12.885  21.266  0.00  0.00    +0.000 C 
ATOM     11  C   UNL     1      -3.095  13.396  22.001  0.00  0.00    +0.000 A 
ATOM     12  C   UNL     1      -3.178  13.989  23.250  0.00  0.00    +0.000 A 
ATOM     13  C   UNL     1      -4.424  14.010  23.880  0.00  0.00    +0.000 A 
ATOM     14  C   UNL     1      -5.558  13.469  23.248  0.00  0.00    +0.000 A 
ATOM     15  C   UNL     1      -5.470  12.904  21.969  0.00  0.00    +0.000 A 
ATOM     16  C   UNL     1      -4.232  12.873  21.355  0.00  0.00    +0.000 A 
ATOM     17  N   UNL     1      -3.919  12.166  20.133  0.00  0.00    +0.000 N 
ATOM     18  C   UNL     1      -2.571  12.710  19.881  0.00  0.00    +0.000 C 
ATOM     19  C   UNL     1      -1.695  12.132  18.740  0.00  0.00    +0.000 C 
ATOM     20  C   UNL     1      -0.272  12.826  18.755  0.00  0.00    +0.000 C 
ATOM     21  C   UNL     1      -0.343  14.110  19.629  0.00  0.00    +0.000 C 
ATOM     22  C   UNL     1      -0.561  13.658  21.099  0.00  0.00    +0.000 C 
ATOM     23  H   UNL     1      -4.625  12.417  19.439  0.00  0.00    +0.000 HD
ENDROOT
BRANCH   1  24
ATOM     24  C   UNL     1      -2.987  10.145  17.798  0.00  0.00    +0.000 C 
BRANCH  24  26
ATOM     25  O   UNL     1      -4.432  11.832  16.835  0.00  0.00    +0.000 OA
ATOM     26  C   UNL     1      -3.417  11.157  16.754  0.00  0.00    +0.000 C 
BRANCH  26  27
ATOM     27  O   UNL     1      -2.530  11.305  15.743  0.00  0.00    +0.000 OA
ATOM     28  H   UNL     1      -2.835  11.992  15.107  0.00  0.00    +0.000 HD
ENDBRANCH  26  27
ENDBRANCH  24  26
ENDBRANCH   1  24
TORSDOF 3
ENDMDL
MODEL 4
REMARK VINA RESULT:      -6.6      2.469      4.709
REMARK  Name = 
REMARK  3 active torsions:
REMARK  status: ('A' for Active; 'I' for Inactive)
REMARK    1  A    between atoms: C_2  and  O_3
REMARK    2  A    between atoms: C_2  and  C_4
REMARK    3  A    between atoms: C_4  and  C_5
REMARK                            x       y       z     vdW  Elec       q    Type
REMARK                         _______ _______ _______ _____ _____    ______ ____
ROOT
ATOM      1  C   UNL     1       3.560   4.033  17.387  0.00  0.00    +0.000 C 
ATOM      2  O   UNL     1       3.210   4.171  18.786  0.00  0.00    +0.000 OA
ATOM      3  C   UNL     1       3.148   5.516  19.241  0.00  0.00    +0.000 C 
ATOM      4  C   UNL     1       4.479   6.142  19.440  0.00  0.00    +0.000 C 
ATOM      5  C   UNL     1       5.657   5.742  18.926  0.00  0.00    +0.000 C 
ATOM      6  C   UNL     1       6.624   6.863  18.553  0.00  0.00    +0.000 C 
ATOM      7  N   UNL     1       6.788   6.845  17.085  0.00  0.00    +0.000 NA
ATOM      8  C   UNL     1       5.488   7.100  16.437  0.00  0.00    +0.000 C 
ATOM      9  C   UNL     1       5.482   6.291  15.184  0.00  0.00    +0.000 C 
ATOM     10  C   UNL     1       6.388   5.086  15.469  0.00  0.00    +0.000 C 
ATOM     11  C   UNL     1       6.810   4.662  14.086  0.00  0.00    +0.000 A 
ATOM     12  C   UNL     1       7.676   5.286  13.203  0.00  0.00    +0.000 A 
ATOM     13  C   UNL     1       7.601   4.930  11.855  0.00  0.00    +0.000 A 
ATOM     14  C   UNL     1       6.694   3.947  11.421  0.00  0.00    +0.000 A 
ATOM     15  C   UNL     1       5.847   3.296  12.327  0.00  0.00    +0.000 A 
ATOM     16  C   UNL     1       5.914   3.662  13.659  0.00  0.00    +0.000 A 
ATOM     17  N   UNL     1       4.996   3.239  14.693  0.00  0.00    +0.000 N 
ATOM     18  C   UNL     1       5.722   3.738  15.876  0.00  0.00    +0.000 C 
ATOM     19  C   UNL     1       5.062   3.688  17.278  0.00  0.00    +0.000 C 
ATOM     20  C   UNL     1       6.015   4.371  18.342  0.00  0.00    +0.000 C 
ATOM     21  C   UNL     1       7.439   4.513  17.732  0.00  0.00    +0.000 C 
ATOM     22  C   UNL     1       7.347   5.551  16.581  0.00  0.00    +0.000 C 
ATOM     23  H   UNL     1       4.907   2.225  14.634  0.00  0.00    +0.000 HD
ENDROOT
BRANCH   1  24
ATOM     24  C   UNL     1       2.676   2.867  16.904  0.00  0.00    +0.000 C 
BRANCH  24  26
ATOM     25  O   UNL     1       0.787   2.358  18.329  0.00  0.00    +0.000 OA
ATOM     26  C   UNL     1       1.969   2.199  18.067  0.00  0.00    +0.000 C 
BRANCH  26  27
ATOM     27  O   UNL     1       2.753   1.339  18.759  0.00  0.00    +0.000 OA
ATOM     28  H   UNL     1       3.151   0.668  18.159  0.00  0.00    +0.000 HD
ENDBRANCH  26  27
ENDBRANCH  24  26
ENDBRANCH   1  24
TORSDOF 3
ENDMDL
MODEL 5
REMARK VINA RESULT:      -6.5     10.434     13.330
REMARK  Name = 
REMARK  3 active torsions:
REMARK  status: ('A' for Active; 'I' for Inactive)
REMARK    1  A    between atoms: C_2  and  O_3
REMARK    2  A    between atoms: C_2  and  C_4
REMARK    3  A    between atoms: C_4  and  C_5
REMARK                            x       y       z     vdW  Elec       q    Type
REMARK                         _______ _______ _______ _____ _____    ______ ____
ROOT
ATOM      1  C   UNL     1      11.556  14.888  18.496  0.00  0.00    +0.000 C 
ATOM      2  O   UNL     1      12.091  15.714  17.433  0.00  0.00    +0.000 OA
ATOM      3  C   UNL     1      12.253  17.081  17.783  0.00  0.00    +0.000 C 
ATOM      4  C   UNL     1      10.979  17.842  17.828  0.00  0.00    +0.000 C 
ATOM      5  C   UNL     1       9.732  17.345  17.931  0.00  0.00    +0.000 C 
ATOM      6  C   UNL     1       8.759  18.184  18.757  0.00  0.00    +0.000 C 
ATOM      7  N   UNL     1       8.404  17.405  19.961  0.00  0.00    +0.000 NA
ATOM      8  C   UNL     1       9.614  17.150  20.763  0.00  0.00    +0.000 C 
ATOM      9  C   UNL     1       9.431  15.803  21.377  0.00  0.00    +0.000 C 
ATOM     10  C   UNL     1       8.534  15.027  20.403  0.00  0.00    +0.000 C 
ATOM     11  C   UNL     1       7.923  13.976  21.293  0.00  0.00    +0.000 A 
ATOM     12  C   UNL     1       6.967  14.116  22.287  0.00  0.00    +0.000 A 
ATOM     13  C   UNL     1       6.854  13.093  23.230  0.00  0.00    +0.000 A 
ATOM     14  C   UNL     1       7.667  11.948  23.150  0.00  0.00    +0.000 A 
ATOM     15  C   UNL     1       8.605  11.800  22.120  0.00  0.00    +0.000 A 
ATOM     16  C   UNL     1       8.724  12.821  21.196  0.00  0.00    +0.000 A 
ATOM     17  N   UNL     1       9.757  12.927  20.189  0.00  0.00    +0.000 N 
ATOM     18  C   UNL     1       9.207  14.045  19.399  0.00  0.00    +0.000 C 
ATOM     19  C   UNL     1      10.043  14.683  18.260  0.00  0.00    +0.000 C 
ATOM     20  C   UNL     1       9.259  15.915  17.648  0.00  0.00    +0.000 C 
ATOM     21  C   UNL     1       7.773  15.847  18.101  0.00  0.00    +0.000 C 
ATOM     22  C   UNL     1       7.744  16.101  19.633  0.00  0.00    +0.000 C 
ATOM     23  H   UNL     1       9.806  12.033  19.700  0.00  0.00    +0.000 HD
ENDROOT
BRANCH   1  24
ATOM     24  C   UNL     1      12.333  13.565  18.356  0.00  0.00    +0.000 C 
BRANCH  24  26
ATOM     25  O   UNL     1      11.021  11.770  17.397  0.00  0.00    +0.000 OA
ATOM     26  C   UNL     1      11.772  12.719  17.230  0.00  0.00    +0.000 C 
BRANCH  26  27
ATOM     27  O   UNL     1      12.120  13.155  15.997  0.00  0.00    +0.000 OA
ATOM     28  H   UNL     1      11.865  12.500  15.308  0.00  0.00    +0.000 HD
ENDBRANCH  26  27
ENDBRANCH  24  26
ENDBRANCH   1  24
TORSDOF 3
ENDMDL
MODEL 6
REMARK VINA RESULT:      -6.4      8.275     10.091
REMARK  Name = 
REMARK  3 active torsions:
REMARK  status: ('A' for Active; 'I' for Inactive)
REMARK    1  A    between atoms: C_2  and  O_3
REMARK    2  A    between atoms: C_2  and  C_4
REMARK    3  A    between atoms: C_4  and  C_5
REMARK                            x       y       z     vdW  Elec       q    Type
REMARK                         _______ _______ _______ _____ _____    ______ ____
ROOT
ATOM      1  C   UNL     1      -2.403  14.355  20.959  0.00  0.00    +0.000 C 
ATOM      2  O   UNL     1      -1.793  14.930  22.140  0.00  0.00    +0.000 OA
ATOM      3  C   UNL     1      -0.471  15.410  21.939  0.00  0.00    +0.000 C 
ATOM      4  C   UNL     1       0.548  14.335  21.851  0.00  0.00    +0.000 C 
ATOM      5  C   UNL     1       0.342  13.031  21.587  0.00  0.00    +0.000 C 
ATOM      6  C   UNL     1       1.431  12.350  20.761  0.00  0.00    +0.000 C 
ATOM      7  N   UNL     1       0.838  11.974  19.460  0.00  0.00    +0.000 NA
ATOM      8  C   UNL     1       0.387  13.186  18.751  0.00  0.00    +0.000 C 
ATOM      9  C   UNL     1      -0.839  12.795  17.997  0.00  0.00    +0.000 C 
ATOM     10  C   UNL     1      -1.472  11.655  18.807  0.00  0.00    +0.000 C 
ATOM     11  C   UNL     1      -2.297  10.939  17.769  0.00  0.00    +0.000 A 
ATOM     12  C   UNL     1      -1.881  10.149  16.710  0.00  0.00    +0.000 A 
ATOM     13  C   UNL     1      -2.783   9.929  15.667  0.00  0.00    +0.000 A 
ATOM     14  C   UNL     1      -4.079  10.472  15.711  0.00  0.00    +0.000 A 
ATOM     15  C   UNL     1      -4.502  11.241  16.803  0.00  0.00    +0.000 A 
ATOM     16  C   UNL     1      -3.602  11.467  17.827  0.00  0.00    +0.000 A 
ATOM     17  N   UNL     1      -3.797  12.383  18.929  0.00  0.00    +0.000 N 
ATOM     18  C   UNL     1      -2.648  11.995  19.769  0.00  0.00    +0.000 C 
ATOM     19  C   UNL     1      -2.292  12.816  21.035  0.00  0.00    +0.000 C 
ATOM     20  C   UNL     1      -0.968  12.243  21.688  0.00  0.00    +0.000 C 
ATOM     21  C   UNL     1      -0.679  10.834  21.097  0.00  0.00    +0.000 C 
ATOM     22  C   UNL     1      -0.312  11.026  19.601  0.00  0.00    +0.000 C 
ATOM     23  H   UNL     1      -4.714  12.192  19.334  0.00  0.00    +0.000 HD
ENDROOT
BRANCH   1  24
ATOM     24  C   UNL     1      -3.870  14.820  21.042  0.00  0.00    +0.000 C 
BRANCH  24  26
ATOM     25  O   UNL     1      -5.405  13.256  22.071  0.00  0.00    +0.000 OA
ATOM     26  C   UNL     1      -4.588  14.155  22.200  0.00  0.00    +0.000 C 
BRANCH  26  27
ATOM     27  O   UNL     1      -4.188  14.598  23.415  0.00  0.00    +0.000 OA
ATOM     28  H   UNL     1      -4.280  15.576  23.478  0.00  0.00    +0.000 HD
ENDBRANCH  26  27
ENDBRANCH  24  26
ENDBRANCH   1  24
TORSDOF 3
ENDMDL
MODEL 7
REMARK VINA RESULT:      -6.4     10.341     12.755
REMARK  Name = 
REMARK  3 active torsions:
REMARK  status: ('A' for Active; 'I' for Inactive)
REMARK    1  A    between atoms: C_2  and  O_3
REMARK    2  A    between atoms: C_2  and  C_4
REMARK    3  A    between atoms: C_4  and  C_5
REMARK                            x       y       z     vdW  Elec       q    Type
REMARK                         _______ _______ _______ _____ _____    ______ ____
ROOT
ATOM      1  C   UNL     1      11.169  14.402  19.197  0.00  0.00    +0.000 C 
ATOM      2  O   UNL     1      11.688  15.052  18.012  0.00  0.00    +0.000 OA
ATOM      3  C   UNL     1      11.621  16.471  18.049  0.00  0.00    +0.000 C 
ATOM      4  C   UNL     1      10.255  17.011  17.832  0.00  0.00    +0.000 C 
ATOM      5  C   UNL     1       9.086  16.356  17.961  0.00  0.00    +0.000 C 
ATOM      6  C   UNL     1       7.926  17.188  18.504  0.00  0.00    +0.000 C 
ATOM      7  N   UNL     1       7.562  16.642  19.828  0.00  0.00    +0.000 NA
ATOM      8  C   UNL     1       8.709  16.762  20.747  0.00  0.00    +0.000 C 
ATOM      9  C   UNL     1       8.654  15.569  21.640  0.00  0.00    +0.000 C 
ATOM     10  C   UNL     1       7.978  14.468  20.811  0.00  0.00    +0.000 C 
ATOM     11  C   UNL     1       7.432  13.551  21.875  0.00  0.00    +0.000 A 
ATOM     12  C   UNL     1       6.370  13.748  22.743  0.00  0.00    +0.000 A 
ATOM     13  C   UNL     1       6.305  12.949  23.886  0.00  0.00    +0.000 A 
ATOM     14  C   UNL     1       7.274  11.958  24.126  0.00  0.00    +0.000 A 
ATOM     15  C   UNL     1       8.324  11.742  23.224  0.00  0.00    +0.000 A 
ATOM     16  C   UNL     1       8.392  12.545  22.100  0.00  0.00    +0.000 A 
ATOM     17  N   UNL     1       9.497  12.593  21.169  0.00  0.00    +0.000 N 
ATOM     18  C   UNL     1       8.880  13.411  20.108  0.00  0.00    +0.000 C 
ATOM     19  C   UNL     1       9.731  13.913  18.912  0.00  0.00    +0.000 C 
ATOM     20  C   UNL     1       8.848  14.842  17.982  0.00  0.00    +0.000 C 
ATOM     21  C   UNL     1       7.348  14.638  18.337  0.00  0.00    +0.000 C 
ATOM     22  C   UNL     1       7.128  15.210  19.763  0.00  0.00    +0.000 C 
ATOM     23  H   UNL     1       9.721  11.633  20.902  0.00  0.00    +0.000 HD
ENDROOT
BRANCH   1  24
ATOM     24  C   UNL     1      12.133  13.220  19.418  0.00  0.00    +0.000 C 
BRANCH  24  26
ATOM     25  O   UNL     1      11.169  11.094  18.776  0.00  0.00    +0.000 OA
ATOM     26  C   UNL     1      11.823  12.078  18.469  0.00  0.00    +0.000 C 
BRANCH  26  27
ATOM     27  O   UNL     1      12.279  12.279  17.210  0.00  0.00    +0.000 OA
ATOM     28  H   UNL     1      12.472  13.232  17.056  0.00  0.00    +0.000 HD
ENDBRANCH  26  27
ENDBRANCH  24  26
ENDBRANCH   1  24
TORSDOF 3
ENDMDL
MODEL 8
REMARK VINA RESULT:      -6.4     10.079     12.260
REMARK  Name = 
REMARK  3 active torsions:
REMARK  status: ('A' for Active; 'I' for Inactive)
REMARK    1  A    between atoms: C_2  and  O_3
REMARK    2  A    between atoms: C_2  and  C_4
REMARK    3  A    between atoms: C_4  and  C_5
REMARK                            x       y       z     vdW  Elec       q    Type
REMARK                         _______ _______ _______ _____ _____    ______ ____
ROOT
ATOM      1  C   UNL     1      -5.513  14.573  22.922  0.00  0.00    +0.000 C 
ATOM      2  O   UNL     1      -5.518  15.084  24.276  0.00  0.00    +0.000 OA
ATOM      3  C   UNL     1      -4.515  16.056  24.537  0.00  0.00    +0.000 C 
ATOM      4  C   UNL     1      -3.153  15.484  24.684  0.00  0.00    +0.000 C 
ATOM      5  C   UNL     1      -2.721  14.280  24.264  0.00  0.00    +0.000 C 
ATOM      6  C   UNL     1      -1.278  14.240  23.765  0.00  0.00    +0.000 C 
ATOM      7  N   UNL     1      -1.311  13.939  22.319  0.00  0.00    +0.000 NA
ATOM      8  C   UNL     1      -2.034  15.008  21.605  0.00  0.00    +0.000 C 
ATOM      9  C   UNL     1      -2.751  14.346  20.478  0.00  0.00    +0.000 C 
ATOM     10  C   UNL     1      -3.030  12.914  20.955  0.00  0.00    +0.000 C 
ATOM     11  C   UNL     1      -3.190  12.165  19.656  0.00  0.00    +0.000 A 
ATOM     12  C   UNL     1      -2.229  11.820  18.719  0.00  0.00    +0.000 A 
ATOM     13  C   UNL     1      -2.662  11.492  17.433  0.00  0.00    +0.000 A 
ATOM     14  C   UNL     1      -4.032  11.488  17.115  0.00  0.00    +0.000 A 
ATOM     15  C   UNL     1      -4.998  11.804  18.080  0.00  0.00    +0.000 A 
ATOM     16  C   UNL     1      -4.564  12.141  19.348  0.00  0.00    +0.000 A 
ATOM     17  N   UNL     1      -5.395  12.674  20.405  0.00  0.00    +0.000 N 
ATOM     18  C   UNL     1      -4.441  12.586  21.527  0.00  0.00    +0.000 C 
ATOM     19  C   UNL     1      -4.791  13.207  22.903  0.00  0.00    +0.000 C 
ATOM     20  C   UNL     1      -3.560  13.054  23.887  0.00  0.00    +0.000 C 
ATOM     21  C   UNL     1      -2.569  12.008  23.303  0.00  0.00    +0.000 C 
ATOM     22  C   UNL     1      -1.954  12.621  22.016  0.00  0.00    +0.000 C 
ATOM     23  H   UNL     1      -6.217  12.075  20.487  0.00  0.00    +0.000 HD
ENDROOT
BRANCH   1  24
ATOM     24  C   UNL     1      -7.009  14.426  22.581  0.00  0.00    +0.000 C 
BRANCH  24  26
ATOM     25  O   UNL     1      -7.917  12.252  23.140  0.00  0.00    +0.000 OA
ATOM     26  C   UNL     1      -7.674  13.400  23.479  0.00  0.00    +0.000 C 
BRANCH  26  27
ATOM     27  O   UNL     1      -7.915  13.850  24.732  0.00  0.00    +0.000 OA
ATOM     28  H   UNL     1      -8.448  13.198  25.242  0.00  0.00    +0.000 HD
ENDBRANCH  26  27
ENDBRANCH  24  26
ENDBRANCH   1  24
TORSDOF 3
ENDMDL
MODEL 9
REMARK VINA RESULT:      -6.4     10.493     13.408
REMARK  Name = 
REMARK  3 active torsions:
REMARK  status: ('A' for Active; 'I' for Inactive)
REMARK    1  A    between atoms: C_2  and  O_3
REMARK    2  A    between atoms: C_2  and  C_4
REMARK    3  A    between atoms: C_4  and  C_5
REMARK                            x       y       z     vdW  Elec       q    Type
REMARK                         _______ _______ _______ _____ _____    ______ ____
ROOT
ATOM      1  C   UNL     1      10.365  14.286  18.333  0.00  0.00    +0.000 C 
ATOM      2  O   UNL     1      11.803  14.452  18.356  0.00  0.00    +0.000 OA
ATOM      3  C   UNL     1      12.327  14.827  19.622  0.00  0.00    +0.000 C 
ATOM      4  C   UNL     1      12.088  16.249  19.972  0.00  0.00    +0.000 C 
ATOM      5  C   UNL     1      11.176  17.082  19.436  0.00  0.00    +0.000 C 
ATOM      6  C   UNL     1      10.555  18.085  20.405  0.00  0.00    +0.000 C 
ATOM      7  N   UNL     1       9.123  17.750  20.542  0.00  0.00    +0.000 NA
ATOM      8  C   UNL     1       8.981  16.394  21.103  0.00  0.00    +0.000 C 
ATOM      9  C   UNL     1       7.763  15.808  20.472  0.00  0.00    +0.000 C 
ATOM     10  C   UNL     1       7.648  16.483  19.098  0.00  0.00    +0.000 C 
ATOM     11  C   UNL     1       6.183  16.328  18.783  0.00  0.00    +0.000 A 
ATOM     12  C   UNL     1       5.091  16.967  19.349  0.00  0.00    +0.000 A 
ATOM     13  C   UNL     1       3.835  16.381  19.183  0.00  0.00    +0.000 A 
ATOM     14  C   UNL     1       3.687  15.196  18.440  0.00  0.00    +0.000 A 
ATOM     15  C   UNL     1       4.792  14.577  17.842  0.00  0.00    +0.000 A 
ATOM     16  C   UNL     1       6.036  15.153  18.020  0.00  0.00    +0.000 A 
ATOM     17  N   UNL     1       7.299  14.557  17.641  0.00  0.00    +0.000 N 
ATOM     18  C   UNL     1       8.183  15.720  17.851  0.00  0.00    +0.000 C 
ATOM     19  C   UNL     1       9.722  15.561  17.743  0.00  0.00    +0.000 C 
ATOM     20  C   UNL     1      10.426  16.932  18.107  0.00  0.00    +0.000 C 
ATOM     21  C   UNL     1       9.370  18.072  18.069  0.00  0.00    +0.000 C 
ATOM     22  C   UNL     1       8.383  17.828  19.243  0.00  0.00    +0.000 C 
ATOM     23  H   UNL     1       7.217  14.244  16.674  0.00  0.00    +0.000 HD
ENDROOT
BRANCH   1  24
ATOM     24  C   UNL     1      10.152  13.069  17.413  0.00  0.00    +0.000 C 
BRANCH  24  26
ATOM     25  O   UNL     1      10.364  11.029  18.700  0.00  0.00    +0.000 OA
ATOM     26  C   UNL     1      10.872  11.847  17.949  0.00  0.00    +0.000 C 
BRANCH  26  27
ATOM     27  O   UNL     1      12.125  11.697  17.459  0.00  0.00    +0.000 OA
ATOM     28  H   UNL     1      12.139  11.033  16.732  0.00  0.00    +0.000 HD
ENDBRANCH  26  27
ENDBRANCH  24  26
ENDBRANCH   1  24
TORSDOF 3
ENDMDL
