MODEL 1
REMARK VINA RESULT:      -7.9      0.000      0.000
REMARK  Name = 
REMARK  4 active torsions:
REMARK  status: ('A' for Active; 'I' for Inactive)
REMARK    1  A    between atoms: C_1  and  C_2
REMARK    2  A    between atoms: C_7  and  N_8
REMARK    3  A    between atoms: N_8  and  S_9
REMARK    4  A    between atoms: S_9  and  C_12
REMARK                            x       y       z     vdW  Elec       q    Type
REMARK                         _______ _______ _______ _____ _____    ______ ____
ROOT
ATOM      1  S   UNL     1       5.244   4.584  18.376  0.00  0.00    +0.000 S 
ATOM      2  O   UNL     1       4.377   5.735  18.525  0.00  0.00    +0.000 OA
ATOM      3  O   UNL     1       6.365   4.386  19.274  0.00  0.00    +0.000 OA
ENDROOT
BRANCH   1   4
ATOM      4  C   UNL     1       5.891   4.664  16.713  0.00  0.00    +0.000 A 
ATOM      5  C   UNL     1       7.135   5.287  16.488  0.00  0.00    +0.000 A 
ATOM      6  C   UNL     1       7.683   5.326  15.200  0.00  0.00    +0.000 A 
ATOM      7  C   UNL     1       7.004   4.703  14.167  0.00  0.00    +0.000 A 
ATOM      8  C   UNL     1       5.790   4.054  14.400  0.00  0.00    +0.000 A 
ATOM      9  C   UNL     1       5.218   4.014  15.667  0.00  0.00    +0.000 A 
ATOM     10  C   UNL     1       5.266   3.529  13.104  0.00  0.00    +0.000 C 
ATOM     11  C   UNL     1       6.493   3.727  12.189  0.00  0.00    +0.000 C 
ATOM     12  N   UNL     1       7.346   4.762  12.795  0.00  0.00    +0.000 N 
ATOM     13  H   UNL     1       8.344   4.656  12.639  0.00  0.00    +0.000 HD
ENDBRANCH   1   4
BRANCH   1  14
ATOM     14  N   UNL     1       4.242   3.237  18.485  0.00  0.00    +0.000 N 
ATOM     15  H   UNL     1       4.776   2.375  18.495  0.00  0.00    +0.000 HD
BRANCH  14  22
ATOM     16  C   UNL     1       1.468   4.070  17.704  0.00  0.00    +0.000 C 
ATOM     17  C   UNL     1       1.873   3.581  19.061  0.00  0.00    +0.000 A 
ATOM     18  C   UNL     1       0.884   3.395  20.038  0.00  0.00    +0.000 A 
ATOM     19  C   UNL     1       1.229   2.886  21.284  0.00  0.00    +0.000 A 
ATOM     20  C   UNL     1       2.557   2.573  21.515  0.00  0.00    +0.000 A 
ATOM     21  N   UNL     1       3.541   2.727  20.599  0.00  0.00    +0.000 NA
ATOM     22  C   UNL     1       3.184   3.239  19.407  0.00  0.00    +0.000 A 
ENDBRANCH  14  22
ENDBRANCH   1  14
TORSDOF 3
ENDMDL
MODEL 2
REMARK VINA RESULT:      -7.6      1.055      1.085
REMARK  Name = 
REMARK  4 active torsions:
REMARK  status: ('A' for Active; 'I' for Inactive)
REMARK    1  A    between atoms: C_1  and  C_2
REMARK    2  A    between atoms: C_7  and  N_8
REMARK    3  A    between atoms: N_8  and  S_9
REMARK    4  A    between atoms: S_9  and  C_12
REMARK                            x       y       z     vdW  Elec       q    Type
REMARK                         _______ _______ _______ _____ _____    ______ ____
ROOT
ATOM      1  S   UNL     1       5.329   4.591  19.006  0.00  0.00    +0.000 S 
ATOM      2  O   UNL     1       6.172   5.452  19.810  0.00  0.00    +0.000 OA
ATOM      3  O   UNL     1       5.225   3.176  19.304  0.00  0.00    +0.000 OA
ENDROOT
BRANCH   1   4
ATOM      4  C   UNL     1       5.917   4.749  17.327  0.00  0.00    +0.000 A 
ATOM      5  C   UNL     1       7.109   5.461  17.081  0.00  0.00    +0.000 A 
ATOM      6  C   UNL     1       7.613   5.564  15.778  0.00  0.00    +0.000 A 
ATOM      7  C   UNL     1       6.948   4.918  14.752  0.00  0.00    +0.000 A 
ATOM      8  C   UNL     1       5.788   4.182  15.004  0.00  0.00    +0.000 A 
ATOM      9  C   UNL     1       5.260   4.077  16.286  0.00  0.00    +0.000 A 
ATOM     10  C   UNL     1       5.263   3.650  13.712  0.00  0.00    +0.000 C 
ATOM     11  C   UNL     1       6.444   3.951  12.768  0.00  0.00    +0.000 C 
ATOM     12  N   UNL     1       7.243   5.029  13.372  0.00  0.00    +0.000 N 
ATOM     13  H   UNL     1       8.241   4.995  13.185  0.00  0.00    +0.000 HD
ENDBRANCH   1   4
BRANCH   1  14
ATOM     14  N   UNL     1       3.785   5.257  19.084  0.00  0.00    +0.000 N 
ATOM     15  H   UNL     1       3.522   5.693  18.207  0.00  0.00    +0.000 HD
BRANCH  14  22
ATOM     16  C   UNL     1       1.669   3.938  17.418  0.00  0.00    +0.000 C 
ATOM     17  C   UNL     1       1.769   3.854  18.911  0.00  0.00    +0.000 A 
ATOM     18  C   UNL     1       0.878   3.024  19.606  0.00  0.00    +0.000 A 
ATOM     19  C   UNL     1       0.992   2.886  20.984  0.00  0.00    +0.000 A 
ATOM     20  C   UNL     1       2.000   3.580  21.627  0.00  0.00    +0.000 A 
ATOM     21  N   UNL     1       2.887   4.384  20.996  0.00  0.00    +0.000 NA
ATOM     22  C   UNL     1       2.744   4.515  19.664  0.00  0.00    +0.000 A 
ENDBRANCH  14  22
ENDBRANCH   1  14
TORSDOF 3
ENDMDL
MODEL 3
REMARK VINA RESULT:      -7.5      1.931      6.634
REMARK  Name = 
REMARK  4 active torsions:
REMARK  status: ('A' for Active; 'I' for Inactive)
REMARK    1  A    between atoms: C_1  and  C_2
REMARK    2  A    between atoms: C_7  and  N_8
REMARK    3  A    between atoms: N_8  and  S_9
REMARK    4  A    between atoms: S_9  and  C_12
REMARK                            x       y       z     vdW  Elec       q    Type
REMARK                         _______ _______ _______ _____ _____    ______ ____
ROOT
ATOM      1  S   UNL     1       6.068   6.558  16.417  0.00  0.00    +0.000 S 
ATOM      2  O   UNL     1       6.713   7.607  17.177  0.00  0.00    +0.000 OA
ATOM      3  O   UNL     1       5.219   6.882  15.287  0.00  0.00    +0.000 OA
ENDROOT
BRANCH   1   4
ATOM      4  C   UNL     1       5.083   5.634  17.586  0.00  0.00    +0.000 A 
ATOM      5  C   UNL     1       5.705   5.085  18.725  0.00  0.00    +0.000 A 
ATOM      6  C   UNL     1       4.947   4.391  19.678  0.00  0.00    +0.000 A 
ATOM      7  C   UNL     1       3.578   4.297  19.503  0.00  0.00    +0.000 A 
ATOM      8  C   UNL     1       2.960   4.874  18.392  0.00  0.00    +0.000 A 
ATOM      9  C   UNL     1       3.691   5.555  17.425  0.00  0.00    +0.000 A 
ATOM     10  C   UNL     1       1.500   4.567  18.438  0.00  0.00    +0.000 C 
ATOM     11  C   UNL     1       1.364   3.995  19.864  0.00  0.00    +0.000 C 
ATOM     12  N   UNL     1       2.692   3.525  20.291  0.00  0.00    +0.000 N 
ATOM     13  H   UNL     1       2.887   3.604  21.285  0.00  0.00    +0.000 HD
ENDBRANCH   1   4
BRANCH   1  14
ATOM     14  N   UNL     1       7.307   5.558  15.870  0.00  0.00    +0.000 N 
ATOM     15  H   UNL     1       7.612   4.914  16.592  0.00  0.00    +0.000 HD
BRANCH  14  22
ATOM     16  C   UNL     1       5.472   3.236  15.379  0.00  0.00    +0.000 C 
ATOM     17  C   UNL     1       6.321   3.902  14.339  0.00  0.00    +0.000 A 
ATOM     18  C   UNL     1       6.200   3.494  13.002  0.00  0.00    +0.000 A 
ATOM     19  C   UNL     1       6.934   4.137  12.013  0.00  0.00    +0.000 A 
ATOM     20  C   UNL     1       7.766   5.176  12.391  0.00  0.00    +0.000 A 
ATOM     21  N   UNL     1       7.906   5.608  13.665  0.00  0.00    +0.000 NA
ATOM     22  C   UNL     1       7.198   4.956  14.607  0.00  0.00    +0.000 A 
ENDBRANCH  14  22
ENDBRANCH   1  14
TORSDOF 3
ENDMDL
MODEL 4
REMARK VINA RESULT:      -7.5      3.018      6.073
REMARK  Name = 
REMARK  4 active torsions:
REMARK  status: ('A' for Active; 'I' for Inactive)
REMARK    1  A    between atoms: C_1  and  C_2
REMARK    2  A    between atoms: C_7  and  N_8
REMARK    3  A    between atoms: N_8  and  S_9
REMARK    4  A    between atoms: S_9  and  C_12
REMARK                            x       y       z     vdW  Elec       q    Type
REMARK                         _______ _______ _______ _____ _____    ______ ____
ROOT
ATOM      1  S   UNL     1       4.089   3.278  18.543  0.00  0.00    +0.000 S 
ATOM      2  O   UNL     1       3.097   2.453  17.886  0.00  0.00    +0.000 OA
ATOM      3  O   UNL     1       4.775   2.802  19.729  0.00  0.00    +0.000 OA
ENDROOT
BRANCH   1   4
ATOM      4  C   UNL     1       3.260   4.800  18.972  0.00  0.00    +0.000 A 
ATOM      5  C   UNL     1       2.802   4.985  20.293  0.00  0.00    +0.000 A 
ATOM      6  C   UNL     1       2.185   6.187  20.665  0.00  0.00    +0.000 A 
ATOM      7  C   UNL     1       2.078   7.200  19.729  0.00  0.00    +0.000 A 
ATOM      8  C   UNL     1       2.566   7.028  18.431  0.00  0.00    +0.000 A 
ATOM      9  C   UNL     1       3.169   5.840  18.034  0.00  0.00    +0.000 A 
ATOM     10  C   UNL     1       2.263   8.253  17.635  0.00  0.00    +0.000 C 
ATOM     11  C   UNL     1       1.806   9.221  18.746  0.00  0.00    +0.000 C 
ATOM     12  N   UNL     1       1.371   8.414  19.897  0.00  0.00    +0.000 N 
ATOM     13  H   UNL     1       1.527   8.831  20.810  0.00  0.00    +0.000 HD
ENDBRANCH   1   4
BRANCH   1  14
ATOM     14  N   UNL     1       5.247   3.625  17.372  0.00  0.00    +0.000 N 
ATOM     15  H   UNL     1       4.844   3.643  16.442  0.00  0.00    +0.000 HD
BRANCH  14  22
ATOM     16  C   UNL     1       5.582   5.875  15.418  0.00  0.00    +0.000 C 
ATOM     17  C   UNL     1       6.306   5.751  16.724  0.00  0.00    +0.000 A 
ATOM     18  C   UNL     1       7.141   6.798  17.140  0.00  0.00    +0.000 A 
ATOM     19  C   UNL     1       7.776   6.730  18.374  0.00  0.00    +0.000 A 
ATOM     20  C   UNL     1       7.552   5.614  19.160  0.00  0.00    +0.000 A 
ATOM     21  N   UNL     1       6.748   4.586  18.803  0.00  0.00    +0.000 NA
ATOM     22  C   UNL     1       6.160   4.668  17.595  0.00  0.00    +0.000 A 
ENDBRANCH  14  22
ENDBRANCH   1  14
TORSDOF 3
ENDMDL
MODEL 5
REMARK VINA RESULT:      -7.5      1.828      6.409
REMARK  Name = 
REMARK  4 active torsions:
REMARK  status: ('A' for Active; 'I' for Inactive)
REMARK    1  A    between atoms: C_1  and  C_2
REMARK    2  A    between atoms: C_7  and  N_8
REMARK    3  A    between atoms: N_8  and  S_9
REMARK    4  A    between atoms: S_9  and  C_12
REMARK                            x       y       z     vdW  Elec       q    Type
REMARK                         _______ _______ _______ _____ _____    ______ ____
ROOT
ATOM      1  S   UNL     1       6.362   5.523  18.740  0.00  0.00    +0.000 S 
ATOM      2  O   UNL     1       7.173   5.492  19.940  0.00  0.00    +0.000 OA
ATOM      3  O   UNL     1       6.332   6.706  17.903  0.00  0.00    +0.000 OA
ENDROOT
BRANCH   1   4
ATOM      4  C   UNL     1       4.689   5.188  19.265  0.00  0.00    +0.000 A 
ATOM      5  C   UNL     1       3.646   6.023  18.813  0.00  0.00    +0.000 A 
ATOM      6  C   UNL     1       2.320   5.756  19.176  0.00  0.00    +0.000 A 
ATOM      7  C   UNL     1       2.050   4.637  19.944  0.00  0.00    +0.000 A 
ATOM      8  C   UNL     1       3.080   3.791  20.359  0.00  0.00    +0.000 A 
ATOM      9  C   UNL     1       4.406   4.042  20.024  0.00  0.00    +0.000 A 
ATOM     10  C   UNL     1       2.504   2.711  21.213  0.00  0.00    +0.000 C 
ATOM     11  C   UNL     1       0.995   2.917  20.968  0.00  0.00    +0.000 C 
ATOM     12  N   UNL     1       0.796   4.300  20.506  0.00  0.00    +0.000 N 
ATOM     13  H   UNL     1       0.029   4.440  19.856  0.00  0.00    +0.000 HD
ENDBRANCH   1   4
BRANCH   1  14
ATOM     14  N   UNL     1       6.885   4.229  17.799  0.00  0.00    +0.000 N 
ATOM     15  H   UNL     1       6.657   3.339  18.229  0.00  0.00    +0.000 HD
BRANCH  14  22
ATOM     16  C   UNL     1       4.323   3.214  16.616  0.00  0.00    +0.000 C 
ATOM     17  C   UNL     1       5.452   3.821  15.839  0.00  0.00    +0.000 A 
ATOM     18  C   UNL     1       5.291   4.033  14.463  0.00  0.00    +0.000 A 
ATOM     19  C   UNL     1       6.303   4.648  13.734  0.00  0.00    +0.000 A 
ATOM     20  C   UNL     1       7.445   5.038  14.409  0.00  0.00    +0.000 A 
ATOM     21  N   UNL     1       7.638   4.862  15.736  0.00  0.00    +0.000 NA
ATOM     22  C   UNL     1       6.652   4.247  16.415  0.00  0.00    +0.000 A 
ENDBRANCH  14  22
ENDBRANCH   1  14
TORSDOF 3
ENDMDL
MODEL 6
REMARK VINA RESULT:      -7.3      2.233      2.817
REMARK  Name = 
REMARK  4 active torsions:
REMARK  status: ('A' for Active; 'I' for Inactive)
REMARK    1  A    between atoms: C_1  and  C_2
REMARK    2  A    between atoms: C_7  and  N_8
REMARK    3  A    between atoms: N_8  and  S_9
REMARK    4  A    between atoms: S_9  and  C_12
REMARK                            x       y       z     vdW  Elec       q    Type
REMARK                         _______ _______ _______ _____ _____    ______ ____
ROOT
ATOM      1  S   UNL     1       3.749   2.896  18.408  0.00  0.00    +0.000 S 
ATOM      2  O   UNL     1       4.190   3.135  19.766  0.00  0.00    +0.000 OA
ATOM      3  O   UNL     1       3.587   1.542  17.914  0.00  0.00    +0.000 OA
ENDROOT
BRANCH   1   4
ATOM      4  C   UNL     1       4.930   3.720  17.352  0.00  0.00    +0.000 A 
ATOM      5  C   UNL     1       5.947   4.501  17.936  0.00  0.00    +0.000 A 
ATOM      6  C   UNL     1       6.910   5.124  17.131  0.00  0.00    +0.000 A 
ATOM      7  C   UNL     1       6.870   4.920  15.763  0.00  0.00    +0.000 A 
ATOM      8  C   UNL     1       5.883   4.115  15.190  0.00  0.00    +0.000 A 
ATOM      9  C   UNL     1       4.908   3.497  15.966  0.00  0.00    +0.000 A 
ATOM     10  C   UNL     1       6.054   4.123  13.707  0.00  0.00    +0.000 C 
ATOM     11  C   UNL     1       7.432   4.804  13.573  0.00  0.00    +0.000 C 
ATOM     12  N   UNL     1       7.677   5.575  14.803  0.00  0.00    +0.000 N 
ATOM     13  H   UNL     1       8.648   5.643  15.093  0.00  0.00    +0.000 HD
ENDBRANCH   1   4
BRANCH   1  14
ATOM     14  N   UNL     1       2.272   3.687  18.259  0.00  0.00    +0.000 N 
ATOM     15  H   UNL     1       1.493   3.056  18.416  0.00  0.00    +0.000 HD
BRANCH  14  22
ATOM     16  C   UNL     1       1.156   3.948  21.031  0.00  0.00    +0.000 C 
ATOM     17  C   UNL     1       1.620   5.088  20.176  0.00  0.00    +0.000 A 
ATOM     18  C   UNL     1       1.637   6.380  20.720  0.00  0.00    +0.000 A 
ATOM     19  C   UNL     1       2.118   7.443  19.964  0.00  0.00    +0.000 A 
ATOM     20  C   UNL     1       2.575   7.178  18.685  0.00  0.00    +0.000 A 
ATOM     21  N   UNL     1       2.585   5.947  18.125  0.00  0.00    +0.000 NA
ATOM     22  C   UNL     1       2.097   4.938  18.871  0.00  0.00    +0.000 A 
ENDBRANCH  14  22
ENDBRANCH   1  14
TORSDOF 3
ENDMDL
MODEL 7
REMARK VINA RESULT:      -7.3      3.562      4.373
REMARK  Name = 
REMARK  4 active torsions:
REMARK  status: ('A' for Active; 'I' for Inactive)
REMARK    1  A    between atoms: C_1  and  C_2
REMARK    2  A    between atoms: C_7  and  N_8
REMARK    3  A    between atoms: N_8  and  S_9
REMARK    4  A    between atoms: S_9  and  C_12
REMARK                            x       y       z     vdW  Elec       q    Type
REMARK                         _______ _______ _______ _____ _____    ______ ____
ROOT
ATOM      1  S   UNL     1       2.773   5.001  19.527  0.00  0.00    +0.000 S 
ATOM      2  O   UNL     1       3.009   4.025  20.570  0.00  0.00    +0.000 OA
ATOM      3  O   UNL     1       1.614   4.889  18.662  0.00  0.00    +0.000 OA
ENDROOT
BRANCH   1   4
ATOM      4  C   UNL     1       4.226   4.979  18.489  0.00  0.00    +0.000 A 
ATOM      5  C   UNL     1       5.500   5.014  19.090  0.00  0.00    +0.000 A 
ATOM      6  C   UNL     1       6.656   4.956  18.300  0.00  0.00    +0.000 A 
ATOM      7  C   UNL     1       6.522   4.816  16.930  0.00  0.00    +0.000 A 
ATOM      8  C   UNL     1       5.258   4.744  16.341  0.00  0.00    +0.000 A 
ATOM      9  C   UNL     1       4.096   4.814  17.101  0.00  0.00    +0.000 A 
ATOM     10  C   UNL     1       5.420   4.654  14.859  0.00  0.00    +0.000 C 
ATOM     11  C   UNL     1       6.937   4.397  14.745  0.00  0.00    +0.000 C 
ATOM     12  N   UNL     1       7.572   4.876  15.984  0.00  0.00    +0.000 N 
ATOM     13  H   UNL     1       8.394   4.362  16.283  0.00  0.00    +0.000 HD
ENDBRANCH   1   4
BRANCH   1  14
ATOM     14  N   UNL     1       2.706   6.494  20.301  0.00  0.00    +0.000 N 
ATOM     15  H   UNL     1       3.589   6.725  20.744  0.00  0.00    +0.000 HD
BRANCH  14  22
ATOM     16  C   UNL     1       0.838   8.374  21.707  0.00  0.00    +0.000 C 
ATOM     17  C   UNL     1       1.281   8.502  20.281  0.00  0.00    +0.000 A 
ATOM     18  C   UNL     1       0.887   9.630  19.547  0.00  0.00    +0.000 A 
ATOM     19  C   UNL     1       1.335   9.799  18.242  0.00  0.00    +0.000 A 
ATOM     20  C   UNL     1       2.171   8.833  17.711  0.00  0.00    +0.000 A 
ATOM     21  N   UNL     1       2.583   7.735  18.386  0.00  0.00    +0.000 NA
ATOM     22  C   UNL     1       2.120   7.586  19.641  0.00  0.00    +0.000 A 
ENDBRANCH  14  22
ENDBRANCH   1  14
TORSDOF 3
ENDMDL
MODEL 8
REMARK VINA RESULT:      -7.2      2.473      3.772
REMARK  Name = 
REMARK  4 active torsions:
REMARK  status: ('A' for Active; 'I' for Inactive)
REMARK    1  A    between atoms: C_1  and  C_2
REMARK    2  A    between atoms: C_7  and  N_8
REMARK    3  A    between atoms: N_8  and  S_9
REMARK    4  A    between atoms: S_9  and  C_12
REMARK                            x       y       z     vdW  Elec       q    Type
REMARK                         _______ _______ _______ _____ _____    ______ ____
ROOT
ATOM      1  S   UNL     1       3.709   2.474  18.433  0.00  0.00    +0.000 S 
ATOM      2  O   UNL     1       4.091   2.257  19.813  0.00  0.00    +0.000 OA
ATOM      3  O   UNL     1       3.683   1.369  17.494  0.00  0.00    +0.000 OA
ENDROOT
BRANCH   1   4
ATOM      4  C   UNL     1       4.839   3.701  17.794  0.00  0.00    +0.000 A 
ATOM      5  C   UNL     1       4.801   4.021  16.421  0.00  0.00    +0.000 A 
ATOM      6  C   UNL     1       5.648   5.009  15.903  0.00  0.00    +0.000 A 
ATOM      7  C   UNL     1       6.483   5.693  16.768  0.00  0.00    +0.000 A 
ATOM      8  C   UNL     1       6.491   5.400  18.134  0.00  0.00    +0.000 A 
ATOM      9  C   UNL     1       5.671   4.414  18.670  0.00  0.00    +0.000 A 
ATOM     10  C   UNL     1       7.522   6.248  18.803  0.00  0.00    +0.000 C 
ATOM     11  C   UNL     1       7.867   7.239  17.673  0.00  0.00    +0.000 C 
ATOM     12  N   UNL     1       7.487   6.617  16.394  0.00  0.00    +0.000 N 
ATOM     13  H   UNL     1       7.176   7.258  15.670  0.00  0.00    +0.000 HD
ENDBRANCH   1   4
BRANCH   1  14
ATOM     14  N   UNL     1       2.171   3.154  18.483  0.00  0.00    +0.000 N 
ATOM     15  H   UNL     1       1.476   2.483  18.794  0.00  0.00    +0.000 HD
BRANCH  14  22
ATOM     16  C   UNL     1       1.422   3.506  21.366  0.00  0.00    +0.000 C 
ATOM     17  C   UNL     1       1.693   4.621  20.402  0.00  0.00    +0.000 A 
ATOM     18  C   UNL     1       1.699   5.941  20.875  0.00  0.00    +0.000 A 
ATOM     19  C   UNL     1       2.006   6.985  20.011  0.00  0.00    +0.000 A 
ATOM     20  C   UNL     1       2.303   6.675  18.696  0.00  0.00    +0.000 A 
ATOM     21  N   UNL     1       2.318   5.417  18.199  0.00  0.00    +0.000 NA
ATOM     22  C   UNL     1       1.999   4.425  19.052  0.00  0.00    +0.000 A 
ENDBRANCH  14  22
ENDBRANCH   1  14
TORSDOF 3
ENDMDL
MODEL 9
REMARK VINA RESULT:      -7.2      1.917      6.653
REMARK  Name = 
REMARK  4 active torsions:
REMARK  status: ('A' for Active; 'I' for Inactive)
REMARK    1  A    between atoms: C_1  and  C_2
REMARK    2  A    between atoms: C_7  and  N_8
REMARK    3  A    between atoms: N_8  and  S_9
REMARK    4  A    between atoms: S_9  and  C_12
REMARK                            x       y       z     vdW  Elec       q    Type
REMARK                         _______ _______ _______ _____ _____    ______ ____
ROOT
ATOM      1  S   UNL     1       6.229   6.374  16.258  0.00  0.00    +0.000 S 
ATOM      2  O   UNL     1       7.049   7.201  17.118  0.00  0.00    +0.000 OA
ATOM      3  O   UNL     1       5.341   6.978  15.284  0.00  0.00    +0.000 OA
ENDROOT
BRANCH   1   4
ATOM      4  C   UNL     1       5.234   5.365  17.345  0.00  0.00    +0.000 A 
ATOM      5  C   UNL     1       5.822   4.815  18.502  0.00  0.00    +0.000 A 
ATOM      6  C   UNL     1       5.052   4.054  19.392  0.00  0.00    +0.000 A 
ATOM      7  C   UNL     1       3.701   3.894  19.138  0.00  0.00    +0.000 A 
ATOM      8  C   UNL     1       3.114   4.472  18.011  0.00  0.00    +0.000 A 
ATOM      9  C   UNL     1       3.859   5.219  17.105  0.00  0.00    +0.000 A 
ATOM     10  C   UNL     1       1.672   4.087  17.967  0.00  0.00    +0.000 C 
ATOM     11  C   UNL     1       1.490   3.466  19.367  0.00  0.00    +0.000 C 
ATOM     12  N   UNL     1       2.817   3.054  19.855  0.00  0.00    +0.000 N 
ATOM     13  H   UNL     1       2.953   3.113  20.859  0.00  0.00    +0.000 HD
ENDBRANCH   1   4
BRANCH   1  14
ATOM     14  N   UNL     1       7.296   5.364  15.438  0.00  0.00    +0.000 N 
ATOM     15  H   UNL     1       7.728   4.691  16.062  0.00  0.00    +0.000 HD
BRANCH  14  22
ATOM     16  C   UNL     1       8.749   5.984  12.888  0.00  0.00    +0.000 C 
ATOM     17  C   UNL     1       7.592   5.041  13.015  0.00  0.00    +0.000 A 
ATOM     18  C   UNL     1       7.193   4.301  11.892  0.00  0.00    +0.000 A 
ATOM     19  C   UNL     1       6.160   3.378  12.002  0.00  0.00    +0.000 A 
ATOM     20  C   UNL     1       5.559   3.218  13.238  0.00  0.00    +0.000 A 
ATOM     21  N   UNL     1       5.918   3.902  14.348  0.00  0.00    +0.000 NA
ATOM     22  C   UNL     1       6.908   4.804  14.211  0.00  0.00    +0.000 A 
ENDBRANCH  14  22
ENDBRANCH   1  14
TORSDOF 3
ENDMDL
