MODEL 1
REMARK VINA RESULT:      -7.7      0.000      0.000
REMARK  Name = 
REMARK  9 active torsions:
REMARK  status: ('A' for Active; 'I' for Inactive)
REMARK    1  A    between atoms: O_1  and  C_2
REMARK    2  A    between atoms: C_2  and  C_3
REMARK    3  A    between atoms: C_5  and  C_6
REMARK    4  A    between atoms: C_8  and  C_9
REMARK    5  A    between atoms: C_9  and  C_10
REMARK    6  A    between atoms: C_13  and  C_14
REMARK    7  A    between atoms: C_27  and  O_28
REMARK    8  A    between atoms: C_29  and  O_30
REMARK    9  A    between atoms: C_31  and  O_32
REMARK                            x       y       z     vdW  Elec       q    Type
REMARK                         _______ _______ _______ _____ _____    ______ ____
ROOT
ATOM      1  C   UNL     1      -3.074  12.830  20.340  0.00  0.00    +0.000 A 
ATOM      2  C   UNL     1      -1.732  12.457  20.144  0.00  0.00    +0.000 A 
ATOM      3  C   UNL     1      -1.330  11.665  19.049  0.00  0.00    +0.000 A 
ATOM      4  C   UNL     1      -2.319  11.200  18.166  0.00  0.00    +0.000 A 
ATOM      5 CL   UNL     1      -1.903  10.166  16.837  0.00  0.00    +0.000 Cl
ATOM      6  C   UNL     1      -3.662  11.574  18.339  0.00  0.00    +0.000 A 
ATOM      7  C   UNL     1      -4.033  12.408  19.408  0.00  0.00    +0.000 A 
ATOM      8  O   UNL     1      -5.326  12.842  19.598  0.00  0.00    +0.000 OA
ATOM      9  C   UNL     1      -6.127  12.671  18.421  0.00  0.00    +0.000 C 
ATOM     10  C   UNL     1      -5.925  11.280  17.854  0.00  0.00    +0.000 C 
ATOM     11  O   UNL     1      -4.577  11.117  17.418  0.00  0.00    +0.000 OA
ENDROOT
BRANCH   1  14
ATOM     12  C   UNL     1      -2.588  15.166  23.192  0.00  0.00    +0.000 C 
ATOM     13  O   UNL     1      -2.302  14.285  22.096  0.00  0.00    +0.000 OA
ATOM     14  C   UNL     1      -3.471  13.645  21.560  0.00  0.00    +0.000 C 
ATOM     15  C   UNL     1      -4.103  12.737  22.642  0.00  0.00    +0.000 C 
ATOM     16  C   UNL     1      -4.431  13.586  23.881  0.00  0.00    +0.000 C 
ATOM     17  C   UNL     1      -3.205  14.382  24.356  0.00  0.00    +0.000 C 
BRANCH  15  18
ATOM     18  O   UNL     1      -5.292  12.069  22.204  0.00  0.00    +0.000 OA
ATOM     19  H   UNL     1      -5.922  12.737  21.881  0.00  0.00    +0.000 HD
ENDBRANCH  15  18
BRANCH  16  20
ATOM     20  O   UNL     1      -4.920  12.777  24.961  0.00  0.00    +0.000 OA
ATOM     21  H   UNL     1      -4.179  12.613  25.574  0.00  0.00    +0.000 HD
ENDBRANCH  16  20
BRANCH  17  22
ATOM     22  O   UNL     1      -3.545  15.274  25.422  0.00  0.00    +0.000 OA
ATOM     23  H   UNL     1      -3.295  14.859  26.265  0.00  0.00    +0.000 HD
ENDBRANCH  17  22
BRANCH  12  24
ATOM     24  C   UNL     1      -1.278  15.832  23.642  0.00  0.00    +0.000 C 
BRANCH  24  25
ATOM     25  O   UNL     1      -0.670  15.071  24.686  0.00  0.00    +0.000 OA
ATOM     26  H   UNL     1       0.271  14.987  24.458  0.00  0.00    +0.000 HD
ENDBRANCH  24  25
ENDBRANCH  12  24
ENDBRANCH   1  14
BRANCH   3  27
ATOM     27  C   UNL     1       0.150  11.443  18.842  0.00  0.00    +0.000 C 
BRANCH  27  28
ATOM     28  C   UNL     1       0.672  10.034  18.995  0.00  0.00    +0.000 A 
ATOM     29  C   UNL     1       1.277   9.378  17.917  0.00  0.00    +0.000 A 
ATOM     30  C   UNL     1       1.970   8.181  18.113  0.00  0.00    +0.000 A 
ATOM     31  C   UNL     1       2.085   7.606  19.385  0.00  0.00    +0.000 A 
ATOM     32  C   UNL     1       1.370   8.208  20.434  0.00  0.00    +0.000 A 
ATOM     33  C   UNL     1       0.677   9.406  20.246  0.00  0.00    +0.000 A 
BRANCH  31  34
ATOM     34  C   UNL     1       2.970   6.403  19.628  0.00  0.00    +0.000 C 
ATOM     35  C   UNL     1       2.360   5.014  19.646  0.00  0.00    +0.000 C 
ATOM     36  C   UNL     1       3.212   5.435  18.489  0.00  0.00    +0.000 C 
ENDBRANCH  31  34
ENDBRANCH  27  28
ENDBRANCH   3  27
TORSDOF 9
ENDMDL
MODEL 2
REMARK VINA RESULT:      -7.3      1.250      2.253
REMARK  Name = 
REMARK  9 active torsions:
REMARK  status: ('A' for Active; 'I' for Inactive)
REMARK    1  A    between atoms: O_1  and  C_2
REMARK    2  A    between atoms: C_2  and  C_3
REMARK    3  A    between atoms: C_5  and  C_6
REMARK    4  A    between atoms: C_8  and  C_9
REMARK    5  A    between atoms: C_9  and  C_10
REMARK    6  A    between atoms: C_13  and  C_14
REMARK    7  A    between atoms: C_27  and  O_28
REMARK    8  A    between atoms: C_29  and  O_30
REMARK    9  A    between atoms: C_31  and  O_32
REMARK                            x       y       z     vdW  Elec       q    Type
REMARK                         _______ _______ _______ _____ _____    ______ ____
ROOT
ATOM      1  C   UNL     1      -2.321  12.495  20.339  0.00  0.00    +0.000 A 
ATOM      2  C   UNL     1      -1.024  12.077  19.991  0.00  0.00    +0.000 A 
ATOM      3  C   UNL     1      -0.780  11.246  18.878  0.00  0.00    +0.000 A 
ATOM      4  C   UNL     1      -1.882  10.789  18.135  0.00  0.00    +0.000 A 
ATOM      5 CL   UNL     1      -1.659   9.711  16.796  0.00  0.00    +0.000 Cl
ATOM      6  C   UNL     1      -3.183  11.207  18.461  0.00  0.00    +0.000 A 
ATOM      7  C   UNL     1      -3.398  12.078  19.543  0.00  0.00    +0.000 A 
ATOM      8  O   UNL     1      -4.646  12.555  19.877  0.00  0.00    +0.000 OA
ATOM      9  C   UNL     1      -5.590  12.378  18.813  0.00  0.00    +0.000 C 
ATOM     10  C   UNL     1      -5.496  10.968  18.264  0.00  0.00    +0.000 C 
ATOM     11  O   UNL     1      -4.216  10.754  17.672  0.00  0.00    +0.000 OA
ENDROOT
BRANCH   1  14
ATOM     12  C   UNL     1      -3.536  13.305  23.758  0.00  0.00    +0.000 C 
ATOM     13  O   UNL     1      -3.356  12.622  22.509  0.00  0.00    +0.000 OA
ATOM     14  C   UNL     1      -2.543  13.351  21.575  0.00  0.00    +0.000 C 
ATOM     15  C   UNL     1      -3.248  14.677  21.202  0.00  0.00    +0.000 C 
ATOM     16  C   UNL     1      -3.512  15.483  22.484  0.00  0.00    +0.000 C 
ATOM     17  C   UNL     1      -4.254  14.641  23.534  0.00  0.00    +0.000 C 
BRANCH  15  18
ATOM     18  O   UNL     1      -2.500  15.485  20.286  0.00  0.00    +0.000 OA
ATOM     19  H   UNL     1      -2.711  16.420  20.454  0.00  0.00    +0.000 HD
ENDBRANCH  15  18
BRANCH  16  20
ATOM     20  O   UNL     1      -4.264  16.675  22.214  0.00  0.00    +0.000 OA
ATOM     21  H   UNL     1      -4.539  16.653  21.278  0.00  0.00    +0.000 HD
ENDBRANCH  16  20
BRANCH  17  22
ATOM     22  O   UNL     1      -4.377  15.345  24.774  0.00  0.00    +0.000 OA
ATOM     23  H   UNL     1      -5.300  15.283  25.075  0.00  0.00    +0.000 HD
ENDBRANCH  17  22
BRANCH  12  24
ATOM     24  C   UNL     1      -4.369  12.410  24.691  0.00  0.00    +0.000 C 
BRANCH  24  25
ATOM     25  O   UNL     1      -5.732  12.838  24.699  0.00  0.00    +0.000 OA
ATOM     26  H   UNL     1      -5.777  13.612  25.285  0.00  0.00    +0.000 HD
ENDBRANCH  24  25
ENDBRANCH  12  24
ENDBRANCH   1  14
BRANCH   3  27
ATOM     27  C   UNL     1       0.657  10.976  18.498  0.00  0.00    +0.000 C 
BRANCH  27  28
ATOM     28  C   UNL     1       1.285   9.701  19.008  0.00  0.00    +0.000 A 
ATOM     29  C   UNL     1       1.049   9.265  20.317  0.00  0.00    +0.000 A 
ATOM     30  C   UNL     1       1.425   7.980  20.715  0.00  0.00    +0.000 A 
ATOM     31  C   UNL     1       2.041   7.092  19.824  0.00  0.00    +0.000 A 
ATOM     32  C   UNL     1       2.384   7.584  18.553  0.00  0.00    +0.000 A 
ATOM     33  C   UNL     1       2.009   8.867  18.147  0.00  0.00    +0.000 A 
BRANCH  31  34
ATOM     34  C   UNL     1       2.300   5.650  20.202  0.00  0.00    +0.000 C 
ATOM     35  C   UNL     1       1.130   4.712  20.429  0.00  0.00    +0.000 C 
ATOM     36  C   UNL     1       1.972   4.563  19.200  0.00  0.00    +0.000 C 
ENDBRANCH  31  34
ENDBRANCH  27  28
ENDBRANCH   3  27
TORSDOF 9
ENDMDL
MODEL 3
REMARK VINA RESULT:      -7.3      5.220      8.954
REMARK  Name = 
REMARK  9 active torsions:
REMARK  status: ('A' for Active; 'I' for Inactive)
REMARK    1  A    between atoms: O_1  and  C_2
REMARK    2  A    between atoms: C_2  and  C_3
REMARK    3  A    between atoms: C_5  and  C_6
REMARK    4  A    between atoms: C_8  and  C_9
REMARK    5  A    between atoms: C_9  and  C_10
REMARK    6  A    between atoms: C_13  and  C_14
REMARK    7  A    between atoms: C_27  and  O_28
REMARK    8  A    between atoms: C_29  and  O_30
REMARK    9  A    between atoms: C_31  and  O_32
REMARK                            x       y       z     vdW  Elec       q    Type
REMARK                         _______ _______ _______ _____ _____    ______ ____
ROOT
ATOM      1  C   UNL     1       3.156   6.211  19.497  0.00  0.00    +0.000 A 
ATOM      2  C   UNL     1       4.419   6.020  18.910  0.00  0.00    +0.000 A 
ATOM      3  C   UNL     1       4.985   4.738  18.753  0.00  0.00    +0.000 A 
ATOM      4  C   UNL     1       4.274   3.633  19.251  0.00  0.00    +0.000 A 
ATOM      5 CL   UNL     1       4.942   2.036  19.153  0.00  0.00    +0.000 Cl
ATOM      6  C   UNL     1       3.005   3.804  19.829  0.00  0.00    +0.000 A 
ATOM      7  C   UNL     1       2.437   5.086  19.927  0.00  0.00    +0.000 A 
ATOM      8  O   UNL     1       1.178   5.304  20.441  0.00  0.00    +0.000 OA
ATOM      9  C   UNL     1       0.407   4.098  20.499  0.00  0.00    +0.000 C 
ATOM     10  C   UNL     1       1.233   2.981  21.105  0.00  0.00    +0.000 C 
ATOM     11  O   UNL     1       2.344   2.677  20.263  0.00  0.00    +0.000 OA
ENDROOT
BRANCH   1  14
ATOM     12  C   UNL     1       1.201   8.918  21.134  0.00  0.00    +0.000 C 
ATOM     13  O   UNL     1       1.696   7.612  20.802  0.00  0.00    +0.000 OA
ATOM     14  C   UNL     1       2.605   7.615  19.689  0.00  0.00    +0.000 C 
ATOM     15  C   UNL     1       1.862   8.089  18.418  0.00  0.00    +0.000 C 
ATOM     16  C   UNL     1       1.267   9.483  18.675  0.00  0.00    +0.000 C 
ATOM     17  C   UNL     1       0.415   9.502  19.954  0.00  0.00    +0.000 C 
BRANCH  15  18
ATOM     18  O   UNL     1       2.696   8.144  17.255  0.00  0.00    +0.000 OA
ATOM     19  H   UNL     1       2.819   9.076  17.005  0.00  0.00    +0.000 HD
ENDBRANCH  15  18
BRANCH  16  20
ATOM     20  O   UNL     1       0.470   9.930  17.568  0.00  0.00    +0.000 OA
ATOM     21  H   UNL     1       1.028  10.498  17.005  0.00  0.00    +0.000 HD
ENDBRANCH  16  20
BRANCH  17  22
ATOM     22  O   UNL     1      -0.025  10.827  20.268  0.00  0.00    +0.000 OA
ATOM     23  H   UNL     1       0.717  11.313  20.669  0.00  0.00    +0.000 HD
ENDBRANCH  17  22
BRANCH  12  24
ATOM     24  C   UNL     1       0.290   8.799  22.366  0.00  0.00    +0.000 C 
BRANCH  24  25
ATOM     25  O   UNL     1       0.376   9.984  23.159  0.00  0.00    +0.000 OA
ATOM     26  H   UNL     1       1.320  10.204  23.231  0.00  0.00    +0.000 HD
ENDBRANCH  24  25
ENDBRANCH  12  24
ENDBRANCH   1  14
BRANCH   3  27
ATOM     27  C   UNL     1       6.276   4.624  17.977  0.00  0.00    +0.000 C 
BRANCH  27  28
ATOM     28  C   UNL     1       6.184   4.618  16.470  0.00  0.00    +0.000 A 
ATOM     29  C   UNL     1       7.316   4.871  15.686  0.00  0.00    +0.000 A 
ATOM     30  C   UNL     1       7.294   4.632  14.310  0.00  0.00    +0.000 A 
ATOM     31  C   UNL     1       6.150   4.130  13.676  0.00  0.00    +0.000 A 
ATOM     32  C   UNL     1       4.985   4.000  14.451  0.00  0.00    +0.000 A 
ATOM     33  C   UNL     1       5.000   4.234  15.827  0.00  0.00    +0.000 A 
BRANCH  31  34
ATOM     34  C   UNL     1       6.174   3.717  12.220  0.00  0.00    +0.000 C 
ATOM     35  C   UNL     1       6.062   2.250  11.855  0.00  0.00    +0.000 C 
ATOM     36  C   UNL     1       4.908   3.168  11.598  0.00  0.00    +0.000 C 
ENDBRANCH  31  34
ENDBRANCH  27  28
ENDBRANCH   3  27
TORSDOF 9
ENDMDL
MODEL 4
REMARK VINA RESULT:      -7.2      0.710      1.156
REMARK  Name = 
REMARK  9 active torsions:
REMARK  status: ('A' for Active; 'I' for Inactive)
REMARK    1  A    between atoms: O_1  and  C_2
REMARK    2  A    between atoms: C_2  and  C_3
REMARK    3  A    between atoms: C_5  and  C_6
REMARK    4  A    between atoms: C_8  and  C_9
REMARK    5  A    between atoms: C_9  and  C_10
REMARK    6  A    between atoms: C_13  and  C_14
REMARK    7  A    between atoms: C_27  and  O_28
REMARK    8  A    between atoms: C_29  and  O_30
REMARK    9  A    between atoms: C_31  and  O_32
REMARK                            x       y       z     vdW  Elec       q    Type
REMARK                         _______ _______ _______ _____ _____    ______ ____
ROOT
ATOM      1  C   UNL     1      -2.745  12.661  20.397  0.00  0.00    +0.000 A 
ATOM      2  C   UNL     1      -1.413  12.242  20.232  0.00  0.00    +0.000 A 
ATOM      3  C   UNL     1      -1.020  11.404  19.168  0.00  0.00    +0.000 A 
ATOM      4  C   UNL     1      -2.011  10.941  18.285  0.00  0.00    +0.000 A 
ATOM      5 CL   UNL     1      -1.608   9.854  16.995  0.00  0.00    +0.000 Cl
ATOM      6  C   UNL     1      -3.344  11.361  18.427  0.00  0.00    +0.000 A 
ATOM      7  C   UNL     1      -3.704  12.239  19.464  0.00  0.00    +0.000 A 
ATOM      8  O   UNL     1      -4.986  12.718  19.622  0.00  0.00    +0.000 OA
ATOM      9  C   UNL     1      -5.775  12.534  18.440  0.00  0.00    +0.000 C 
ATOM     10  C   UNL     1      -5.609  11.120  17.918  0.00  0.00    +0.000 C 
ATOM     11  O   UNL     1      -4.260  10.903  17.508  0.00  0.00    +0.000 OA
ENDROOT
BRANCH   1  14
ATOM     12  C   UNL     1      -2.221  15.044  23.203  0.00  0.00    +0.000 C 
ATOM     13  O   UNL     1      -1.950  14.121  22.138  0.00  0.00    +0.000 OA
ATOM     14  C   UNL     1      -3.134  13.526  21.585  0.00  0.00    +0.000 C 
ATOM     15  C   UNL     1      -3.839  12.678  22.671  0.00  0.00    +0.000 C 
ATOM     16  C   UNL     1      -4.157  13.572  23.879  0.00  0.00    +0.000 C 
ATOM     17  C   UNL     1      -2.907  14.321  24.369  0.00  0.00    +0.000 C 
BRANCH  15  18
ATOM     18  O   UNL     1      -5.047  12.057  22.217  0.00  0.00    +0.000 OA
ATOM     19  H   UNL     1      -5.571  11.794  22.993  0.00  0.00    +0.000 HD
ENDBRANCH  15  18
BRANCH  16  20
ATOM     20  O   UNL     1      -4.713  12.817  24.965  0.00  0.00    +0.000 OA
ATOM     21  H   UNL     1      -5.151  13.441  25.574  0.00  0.00    +0.000 HD
ENDBRANCH  16  20
BRANCH  17  22
ATOM     22  O   UNL     1      -3.230  15.255  25.402  0.00  0.00    +0.000 OA
ATOM     23  H   UNL     1      -2.643  15.094  26.161  0.00  0.00    +0.000 HD
ENDBRANCH  17  22
BRANCH  12  24
ATOM     24  C   UNL     1      -0.892  15.657  23.673  0.00  0.00    +0.000 C 
BRANCH  24  25
ATOM     25  O   UNL     1       0.206  15.009  23.029  0.00  0.00    +0.000 OA
ATOM     26  H   UNL     1      -0.165  14.511  22.281  0.00  0.00    +0.000 HD
ENDBRANCH  24  25
ENDBRANCH  12  24
ENDBRANCH   1  14
BRANCH   3  27
ATOM     27  C   UNL     1       0.455  11.131  18.990  0.00  0.00    +0.000 C 
BRANCH  27  28
ATOM     28  C   UNL     1       0.999   9.842  19.557  0.00  0.00    +0.000 A 
ATOM     29  C   UNL     1       0.649   9.428  20.847  0.00  0.00    +0.000 A 
ATOM     30  C   UNL     1       0.951   8.136  21.283  0.00  0.00    +0.000 A 
ATOM     31  C   UNL     1       1.604   7.219  20.450  0.00  0.00    +0.000 A 
ATOM     32  C   UNL     1       2.060   7.687  19.206  0.00  0.00    +0.000 A 
ATOM     33  C   UNL     1       1.760   8.976  18.762  0.00  0.00    +0.000 A 
BRANCH  31  34
ATOM     34  C   UNL     1       1.786   5.773  20.858  0.00  0.00    +0.000 C 
ATOM     35  C   UNL     1       1.003   4.688  20.145  0.00  0.00    +0.000 C 
ATOM     36  C   UNL     1       2.473   4.825  19.898  0.00  0.00    +0.000 C 
ENDBRANCH  31  34
ENDBRANCH  27  28
ENDBRANCH   3  27
TORSDOF 9
ENDMDL
MODEL 5
REMARK VINA RESULT:      -7.1      4.156      6.055
REMARK  Name = 
REMARK  9 active torsions:
REMARK  status: ('A' for Active; 'I' for Inactive)
REMARK    1  A    between atoms: O_1  and  C_2
REMARK    2  A    between atoms: C_2  and  C_3
REMARK    3  A    between atoms: C_5  and  C_6
REMARK    4  A    between atoms: C_8  and  C_9
REMARK    5  A    between atoms: C_9  and  C_10
REMARK    6  A    between atoms: C_13  and  C_14
REMARK    7  A    between atoms: C_27  and  O_28
REMARK    8  A    between atoms: C_29  and  O_30
REMARK    9  A    between atoms: C_31  and  O_32
REMARK                            x       y       z     vdW  Elec       q    Type
REMARK                         _______ _______ _______ _____ _____    ______ ____
ROOT
ATOM      1  C   UNL     1       1.762  13.388  19.401  0.00  0.00    +0.000 A 
ATOM      2  C   UNL     1       2.071  12.133  18.845  0.00  0.00    +0.000 A 
ATOM      3  C   UNL     1       1.079  11.164  18.592  0.00  0.00    +0.000 A 
ATOM      4  C   UNL     1      -0.245  11.457  18.959  0.00  0.00    +0.000 A 
ATOM      5 CL   UNL     1      -1.504  10.284  18.738  0.00  0.00    +0.000 Cl
ATOM      6  C   UNL     1      -0.573  12.710  19.503  0.00  0.00    +0.000 A 
ATOM      7  C   UNL     1       0.424  13.681  19.698  0.00  0.00    +0.000 A 
ATOM      8  O   UNL     1       0.150  14.941  20.184  0.00  0.00    +0.000 OA
ATOM      9  C   UNL     1      -1.246  15.255  20.101  0.00  0.00    +0.000 C 
ATOM     10  C   UNL     1      -2.070  14.099  20.632  0.00  0.00    +0.000 C 
ATOM     11  O   UNL     1      -1.894  12.949  19.807  0.00  0.00    +0.000 OA
ENDROOT
BRANCH   1  14
ATOM     12  C   UNL     1       4.989  15.165  18.892  0.00  0.00    +0.000 C 
ATOM     13  O   UNL     1       3.937  14.198  18.759  0.00  0.00    +0.000 OA
ATOM     14  C   UNL     1       2.870  14.385  19.702  0.00  0.00    +0.000 C 
ATOM     15  C   UNL     1       3.410  14.186  21.138  0.00  0.00    +0.000 C 
ATOM     16  C   UNL     1       4.567  15.167  21.380  0.00  0.00    +0.000 C 
ATOM     17  C   UNL     1       5.634  15.059  20.279  0.00  0.00    +0.000 C 
BRANCH  15  18
ATOM     18  O   UNL     1       2.417  14.373  22.153  0.00  0.00    +0.000 OA
ATOM     19  H   UNL     1       2.158  13.501  22.499  0.00  0.00    +0.000 HD
ENDBRANCH  15  18
BRANCH  16  20
ATOM     20  O   UNL     1       5.183  14.954  22.659  0.00  0.00    +0.000 OA
ATOM     21  H   UNL     1       4.677  15.455  23.325  0.00  0.00    +0.000 HD
ENDBRANCH  16  20
BRANCH  17  22
ATOM     22  O   UNL     1       6.641  16.065  20.428  0.00  0.00    +0.000 OA
ATOM     23  H   UNL     1       6.288  16.776  20.991  0.00  0.00    +0.000 HD
ENDBRANCH  17  22
BRANCH  12  24
ATOM     24  C   UNL     1       6.040  14.901  17.801  0.00  0.00    +0.000 C 
BRANCH  24  25
ATOM     25  O   UNL     1       7.185  14.259  18.363  0.00  0.00    +0.000 OA
ATOM     26  H   UNL     1       7.324  13.442  17.855  0.00  0.00    +0.000 HD
ENDBRANCH  24  25
ENDBRANCH  12  24
ENDBRANCH   1  14
BRANCH   3  27
ATOM     27  C   UNL     1       1.487   9.909  17.857  0.00  0.00    +0.000 C 
BRANCH  27  28
ATOM     28  C   UNL     1       1.865   8.706  18.687  0.00  0.00    +0.000 A 
ATOM     29  C   UNL     1       1.435   8.593  20.014  0.00  0.00    +0.000 A 
ATOM     30  C   UNL     1       1.575   7.387  20.705  0.00  0.00    +0.000 A 
ATOM     31  C   UNL     1       2.141   6.259  20.096  0.00  0.00    +0.000 A 
ATOM     32  C   UNL     1       2.681   6.422  18.809  0.00  0.00    +0.000 A 
ATOM     33  C   UNL     1       2.542   7.624  18.111  0.00  0.00    +0.000 A 
BRANCH  31  34
ATOM     34  C   UNL     1       2.144   4.911  20.783  0.00  0.00    +0.000 C 
ATOM     35  C   UNL     1       1.030   3.922  20.502  0.00  0.00    +0.000 C 
ATOM     36  C   UNL     1       2.400   3.671  19.953  0.00  0.00    +0.000 C 
ENDBRANCH  31  34
ENDBRANCH  27  28
ENDBRANCH   3  27
TORSDOF 9
ENDMDL
MODEL 6
REMARK VINA RESULT:      -7.0      6.498     11.288
REMARK  Name = 
REMARK  9 active torsions:
REMARK  status: ('A' for Active; 'I' for Inactive)
REMARK    1  A    between atoms: O_1  and  C_2
REMARK    2  A    between atoms: C_2  and  C_3
REMARK    3  A    between atoms: C_5  and  C_6
REMARK    4  A    between atoms: C_8  and  C_9
REMARK    5  A    between atoms: C_9  and  C_10
REMARK    6  A    between atoms: C_13  and  C_14
REMARK    7  A    between atoms: C_27  and  O_28
REMARK    8  A    between atoms: C_29  and  O_30
REMARK    9  A    between atoms: C_31  and  O_32
REMARK                            x       y       z     vdW  Elec       q    Type
REMARK                         _______ _______ _______ _____ _____    ______ ____
ROOT
ATOM      1  C   UNL     1       3.840   5.495  18.498  0.00  0.00    +0.000 A 
ATOM      2  C   UNL     1       3.353   6.641  19.153  0.00  0.00    +0.000 A 
ATOM      3  C   UNL     1       2.177   6.613  19.930  0.00  0.00    +0.000 A 
ATOM      4  C   UNL     1       1.454   5.411  20.000  0.00  0.00    +0.000 A 
ATOM      5 CL   UNL     1      -0.036   5.325  20.883  0.00  0.00    +0.000 Cl
ATOM      6  C   UNL     1       1.933   4.254  19.362  0.00  0.00    +0.000 A 
ATOM      7  C   UNL     1       3.135   4.290  18.637  0.00  0.00    +0.000 A 
ATOM      8  O   UNL     1       3.673   3.176  18.031  0.00  0.00    +0.000 OA
ATOM      9  C   UNL     1       3.096   1.964  18.532  0.00  0.00    +0.000 C 
ATOM     10  C   UNL     1       1.585   2.086  18.573  0.00  0.00    +0.000 C 
ATOM     11  O   UNL     1       1.198   3.098  19.500  0.00  0.00    +0.000 OA
ENDROOT
BRANCH   1  14
ATOM     12  C   UNL     1       5.871   5.189  15.398  0.00  0.00    +0.000 C 
ATOM     13  O   UNL     1       4.786   5.055  16.328  0.00  0.00    +0.000 OA
ATOM     14  C   UNL     1       5.086   5.581  17.631  0.00  0.00    +0.000 C 
ATOM     15  C   UNL     1       6.246   4.772  18.259  0.00  0.00    +0.000 C 
ATOM     16  C   UNL     1       7.463   4.830  17.323  0.00  0.00    +0.000 C 
ATOM     17  C   UNL     1       7.093   4.406  15.893  0.00  0.00    +0.000 C 
BRANCH  15  18
ATOM     18  O   UNL     1       6.630   5.238  19.558  0.00  0.00    +0.000 OA
ATOM     19  H   UNL     1       6.391   4.559  20.214  0.00  0.00    +0.000 HD
ENDBRANCH  15  18
BRANCH  16  20
ATOM     20  O   UNL     1       8.537   4.006  17.800  0.00  0.00    +0.000 OA
ATOM     21  H   UNL     1       8.979   3.610  17.026  0.00  0.00    +0.000 HD
ENDBRANCH  16  20
BRANCH  17  22
ATOM     22  O   UNL     1       8.190   4.593  14.994  0.00  0.00    +0.000 OA
ATOM     23  H   UNL     1       8.736   5.330  15.318  0.00  0.00    +0.000 HD
ENDBRANCH  17  22
BRANCH  12  24
ATOM     24  C   UNL     1       5.417   4.649  14.033  0.00  0.00    +0.000 C 
BRANCH  24  25
ATOM     25  O   UNL     1       6.099   3.430  13.732  0.00  0.00    +0.000 OA
ATOM     26  H   UNL     1       6.847   3.664  13.157  0.00  0.00    +0.000 HD
ENDBRANCH  24  25
ENDBRANCH  12  24
ENDBRANCH   1  14
BRANCH   3  27
ATOM     27  C   UNL     1       1.819   7.853  20.715  0.00  0.00    +0.000 C 
BRANCH  27  28
ATOM     28  C   UNL     1       1.023   8.922  20.005  0.00  0.00    +0.000 A 
ATOM     29  C   UNL     1       1.263   9.212  18.657  0.00  0.00    +0.000 A 
ATOM     30  C   UNL     1       0.379  10.019  17.937  0.00  0.00    +0.000 A 
ATOM     31  C   UNL     1      -0.768  10.557  18.534  0.00  0.00    +0.000 A 
ATOM     32  C   UNL     1      -0.930  10.362  19.916  0.00  0.00    +0.000 A 
ATOM     33  C   UNL     1      -0.052   9.554  20.642  0.00  0.00    +0.000 A 
BRANCH  31  34
ATOM     34  C   UNL     1      -1.809  11.293  17.718  0.00  0.00    +0.000 C 
ATOM     35  C   UNL     1      -2.559  10.561  16.623  0.00  0.00    +0.000 C 
ATOM     36  C   UNL     1      -3.267  10.922  17.892  0.00  0.00    +0.000 C 
ENDBRANCH  31  34
ENDBRANCH  27  28
ENDBRANCH   3  27
TORSDOF 9
ENDMDL
MODEL 7
REMARK VINA RESULT:      -6.9      0.813      1.232
REMARK  Name = 
REMARK  9 active torsions:
REMARK  status: ('A' for Active; 'I' for Inactive)
REMARK    1  A    between atoms: O_1  and  C_2
REMARK    2  A    between atoms: C_2  and  C_3
REMARK    3  A    between atoms: C_5  and  C_6
REMARK    4  A    between atoms: C_8  and  C_9
REMARK    5  A    between atoms: C_9  and  C_10
REMARK    6  A    between atoms: C_13  and  C_14
REMARK    7  A    between atoms: C_27  and  O_28
REMARK    8  A    between atoms: C_29  and  O_30
REMARK    9  A    between atoms: C_31  and  O_32
REMARK                            x       y       z     vdW  Elec       q    Type
REMARK                         _______ _______ _______ _____ _____    ______ ____
ROOT
ATOM      1  C   UNL     1      -2.691  12.945  20.436  0.00  0.00    +0.000 A 
ATOM      2  C   UNL     1      -1.340  12.665  20.160  0.00  0.00    +0.000 A 
ATOM      3  C   UNL     1      -0.955  11.804  19.112  0.00  0.00    +0.000 A 
ATOM      4  C   UNL     1      -1.964  11.176  18.363  0.00  0.00    +0.000 A 
ATOM      5 CL   UNL     1      -1.562  10.053  17.104  0.00  0.00    +0.000 Cl
ATOM      6  C   UNL     1      -3.318  11.454  18.617  0.00  0.00    +0.000 A 
ATOM      7  C   UNL     1      -3.678  12.356  19.632  0.00  0.00    +0.000 A 
ATOM      8  O   UNL     1      -4.986  12.700  19.892  0.00  0.00    +0.000 OA
ATOM      9  C   UNL     1      -5.857  12.349  18.810  0.00  0.00    +0.000 C 
ATOM     10  C   UNL     1      -5.577  10.930  18.357  0.00  0.00    +0.000 C 
ATOM     11  O   UNL     1      -4.257  10.835  17.824  0.00  0.00    +0.000 OA
ENDROOT
BRANCH   1  14
ATOM     12  C   UNL     1      -2.223  15.631  22.964  0.00  0.00    +0.000 C 
ATOM     13  O   UNL     1      -1.938  14.671  21.937  0.00  0.00    +0.000 OA
ATOM     14  C   UNL     1      -3.063  13.841  21.606  0.00  0.00    +0.000 C 
ATOM     15  C   UNL     1      -3.459  12.994  22.839  0.00  0.00    +0.000 C 
ATOM     16  C   UNL     1      -3.765  13.934  24.016  0.00  0.00    +0.000 C 
ATOM     17  C   UNL     1      -2.611  14.918  24.265  0.00  0.00    +0.000 C 
BRANCH  15  18
ATOM     18  O   UNL     1      -4.590  12.145  22.611  0.00  0.00    +0.000 OA
ATOM     19  H   UNL     1      -4.363  11.243  22.897  0.00  0.00    +0.000 HD
ENDBRANCH  15  18
BRANCH  16  20
ATOM     20  O   UNL     1      -4.032  13.201  25.222  0.00  0.00    +0.000 OA
ATOM     21  H   UNL     1      -4.036  13.834  25.964  0.00  0.00    +0.000 HD
ENDBRANCH  16  20
BRANCH  17  22
ATOM     22  O   UNL     1      -2.952  15.879  25.268  0.00  0.00    +0.000 OA
ATOM     23  H   UNL     1      -2.151  16.379  25.503  0.00  0.00    +0.000 HD
ENDBRANCH  17  22
BRANCH  12  24
ATOM     24  C   UNL     1      -0.971  16.494  23.191  0.00  0.00    +0.000 C 
BRANCH  24  25
ATOM     25  O   UNL     1      -1.335  17.753  23.759  0.00  0.00    +0.000 OA
ATOM     26  H   UNL     1      -2.073  17.581  24.367  0.00  0.00    +0.000 HD
ENDBRANCH  24  25
ENDBRANCH  12  24
ENDBRANCH   1  14
BRANCH   3  27
ATOM     27  C   UNL     1       0.518  11.685  18.800  0.00  0.00    +0.000 C 
BRANCH  27  28
ATOM     28  C   UNL     1       1.163  10.332  18.986  0.00  0.00    +0.000 A 
ATOM     29  C   UNL     1       0.935   9.588  20.149  0.00  0.00    +0.000 A 
ATOM     30  C   UNL     1       1.328   8.250  20.223  0.00  0.00    +0.000 A 
ATOM     31  C   UNL     1       1.953   7.613  19.144  0.00  0.00    +0.000 A 
ATOM     32  C   UNL     1       2.287   8.403  18.031  0.00  0.00    +0.000 A 
ATOM     33  C   UNL     1       1.896   9.741  17.949  0.00  0.00    +0.000 A 
BRANCH  31  34
ATOM     34  C   UNL     1       2.231   6.125  19.161  0.00  0.00    +0.000 C 
ATOM     35  C   UNL     1       3.580   5.619  19.631  0.00  0.00    +0.000 C 
ATOM     36  C   UNL     1       2.374   5.427  20.496  0.00  0.00    +0.000 C 
ENDBRANCH  31  34
ENDBRANCH  27  28
ENDBRANCH   3  27
TORSDOF 9
ENDMDL
MODEL 8
REMARK VINA RESULT:      -6.9      5.769      9.023
REMARK  Name = 
REMARK  9 active torsions:
REMARK  status: ('A' for Active; 'I' for Inactive)
REMARK    1  A    between atoms: O_1  and  C_2
REMARK    2  A    between atoms: C_2  and  C_3
REMARK    3  A    between atoms: C_5  and  C_6
REMARK    4  A    between atoms: C_8  and  C_9
REMARK    5  A    between atoms: C_9  and  C_10
REMARK    6  A    between atoms: C_13  and  C_14
REMARK    7  A    between atoms: C_27  and  O_28
REMARK    8  A    between atoms: C_29  and  O_30
REMARK    9  A    between atoms: C_31  and  O_32
REMARK                            x       y       z     vdW  Elec       q    Type
REMARK                         _______ _______ _______ _____ _____    ______ ____
ROOT
ATOM      1  C   UNL     1       3.124   6.474  18.130  0.00  0.00    +0.000 A 
ATOM      2  C   UNL     1       4.349   7.019  17.705  0.00  0.00    +0.000 A 
ATOM      3  C   UNL     1       5.374   6.219  17.160  0.00  0.00    +0.000 A 
ATOM      4  C   UNL     1       5.170   4.831  17.094  0.00  0.00    +0.000 A 
ATOM      5 CL   UNL     1       6.415   3.781  16.498  0.00  0.00    +0.000 Cl
ATOM      6  C   UNL     1       3.947   4.270  17.502  0.00  0.00    +0.000 A 
ATOM      7  C   UNL     1       2.919   5.093  17.993  0.00  0.00    +0.000 A 
ATOM      8  O   UNL     1       1.686   4.602  18.362  0.00  0.00    +0.000 OA
ATOM      9  C   UNL     1       1.458   3.285  17.847  0.00  0.00    +0.000 C 
ATOM     10  C   UNL     1       2.671   2.411  18.100  0.00  0.00    +0.000 C 
ATOM     11  O   UNL     1       3.796   2.908  17.377  0.00  0.00    +0.000 OA
ENDROOT
BRANCH   1  14
ATOM     12  C   UNL     1       1.180   9.595  18.682  0.00  0.00    +0.000 C 
ATOM     13  O   UNL     1       2.205   8.696  18.232  0.00  0.00    +0.000 OA
ATOM     14  C   UNL     1       2.065   7.366  18.756  0.00  0.00    +0.000 C 
ATOM     15  C   UNL     1       2.218   7.400  20.295  0.00  0.00    +0.000 C 
ATOM     16  C   UNL     1       1.173   8.360  20.883  0.00  0.00    +0.000 C 
ATOM     17  C   UNL     1       1.234   9.740  20.208  0.00  0.00    +0.000 C 
BRANCH  15  18
ATOM     18  O   UNL     1       2.073   6.115  20.912  0.00  0.00    +0.000 OA
ATOM     19  H   UNL     1       2.766   5.525  20.566  0.00  0.00    +0.000 HD
ENDBRANCH  15  18
BRANCH  16  20
ATOM     20  O   UNL     1       1.337   8.518  22.300  0.00  0.00    +0.000 OA
ATOM     21  H   UNL     1       0.587   9.046  22.634  0.00  0.00    +0.000 HD
ENDBRANCH  16  20
BRANCH  17  22
ATOM     22  O   UNL     1       0.174  10.588  20.657  0.00  0.00    +0.000 OA
ATOM     23  H   UNL     1       0.461  11.514  20.573  0.00  0.00    +0.000 HD
ENDBRANCH  17  22
BRANCH  12  24
ATOM     24  C   UNL     1       1.399  10.963  18.016  0.00  0.00    +0.000 C 
BRANCH  24  25
ATOM     25  O   UNL     1       0.239  11.781  18.176  0.00  0.00    +0.000 OA
ATOM     26  H   UNL     1      -0.064  12.014  17.282  0.00  0.00    +0.000 HD
ENDBRANCH  24  25
ENDBRANCH  12  24
ENDBRANCH   1  14
BRANCH   3  27
ATOM     27  C   UNL     1       6.590   6.915  16.596  0.00  0.00    +0.000 C 
BRANCH  27  28
ATOM     28  C   UNL     1       7.287   7.925  17.476  0.00  0.00    +0.000 A 
ATOM     29  C   UNL     1       8.171   7.507  18.478  0.00  0.00    +0.000 A 
ATOM     30  C   UNL     1       8.993   8.430  19.128  0.00  0.00    +0.000 A 
ATOM     31  C   UNL     1       8.964   9.791  18.799  0.00  0.00    +0.000 A 
ATOM     32  C   UNL     1       7.987  10.214  17.883  0.00  0.00    +0.000 A 
ATOM     33  C   UNL     1       7.163   9.297  17.226  0.00  0.00    +0.000 A 
BRANCH  31  34
ATOM     34  C   UNL     1       9.965  10.764  19.383  0.00  0.00    +0.000 C 
ATOM     35  C   UNL     1      10.896  11.528  18.461  0.00  0.00    +0.000 C 
ATOM     36  C   UNL     1       9.770  12.246  19.138  0.00  0.00    +0.000 C 
ENDBRANCH  31  34
ENDBRANCH  27  28
ENDBRANCH   3  27
TORSDOF 9
ENDMDL
MODEL 9
REMARK VINA RESULT:      -6.8      5.941     10.623
REMARK  Name = 
REMARK  9 active torsions:
REMARK  status: ('A' for Active; 'I' for Inactive)
REMARK    1  A    between atoms: O_1  and  C_2
REMARK    2  A    between atoms: C_2  and  C_3
REMARK    3  A    between atoms: C_5  and  C_6
REMARK    4  A    between atoms: C_8  and  C_9
REMARK    5  A    between atoms: C_9  and  C_10
REMARK    6  A    between atoms: C_13  and  C_14
REMARK    7  A    between atoms: C_27  and  O_28
REMARK    8  A    between atoms: C_29  and  O_30
REMARK    9  A    between atoms: C_31  and  O_32
REMARK                            x       y       z     vdW  Elec       q    Type
REMARK                         _______ _______ _______ _____ _____    ______ ____
ROOT
ATOM      1  C   UNL     1       3.656   5.834  18.927  0.00  0.00    +0.000 A 
ATOM      2  C   UNL     1       3.242   7.179  18.922  0.00  0.00    +0.000 A 
ATOM      3  C   UNL     1       2.135   7.622  19.674  0.00  0.00    +0.000 A 
ATOM      4  C   UNL     1       1.404   6.671  20.405  0.00  0.00    +0.000 A 
ATOM      5 CL   UNL     1      -0.008   7.136  21.298  0.00  0.00    +0.000 Cl
ATOM      6  C   UNL     1       1.811   5.326  20.432  0.00  0.00    +0.000 A 
ATOM      7  C   UNL     1       2.948   4.916  19.716  0.00  0.00    +0.000 A 
ATOM      8  O   UNL     1       3.417   3.621  19.745  0.00  0.00    +0.000 OA
ATOM      9  C   UNL     1       2.868   2.876  20.839  0.00  0.00    +0.000 C 
ATOM     10  C   UNL     1       1.368   3.085  20.907  0.00  0.00    +0.000 C 
ATOM     11  O   UNL     1       1.074   4.451  21.196  0.00  0.00    +0.000 OA
ENDROOT
BRANCH   1  14
ATOM     12  C   UNL     1       6.921   6.148  17.177  0.00  0.00    +0.000 C 
ATOM     13  O   UNL     1       5.727   6.495  17.892  0.00  0.00    +0.000 OA
ATOM     14  C   UNL     1       4.825   5.390  18.063  0.00  0.00    +0.000 C 
ATOM     15  C   UNL     1       4.330   4.909  16.678  0.00  0.00    +0.000 C 
ATOM     16  C   UNL     1       5.544   4.530  15.815  0.00  0.00    +0.000 C 
ATOM     17  C   UNL     1       6.573   5.671  15.762  0.00  0.00    +0.000 C 
BRANCH  15  18
ATOM     18  O   UNL     1       3.437   3.791  16.747  0.00  0.00    +0.000 OA
ATOM     19  H   UNL     1       3.192   3.535  15.840  0.00  0.00    +0.000 HD
ENDBRANCH  15  18
BRANCH  16  20
ATOM     20  O   UNL     1       5.154   4.180  14.479  0.00  0.00    +0.000 OA
ATOM     21  H   UNL     1       5.932   3.804  14.027  0.00  0.00    +0.000 HD
ENDBRANCH  16  20
BRANCH  17  22
ATOM     22  O   UNL     1       7.762   5.269  15.075  0.00  0.00    +0.000 OA
ATOM     23  H   UNL     1       8.045   5.996  14.494  0.00  0.00    +0.000 HD
ENDBRANCH  17  22
BRANCH  12  24
ATOM     24  C   UNL     1       7.829   7.387  17.106  0.00  0.00    +0.000 C 
BRANCH  24  25
ATOM     25  O   UNL     1       8.244   7.770  18.418  0.00  0.00    +0.000 OA
ATOM     26  H   UNL     1       7.673   8.510  18.685  0.00  0.00    +0.000 HD
ENDBRANCH  24  25
ENDBRANCH  12  24
ENDBRANCH   1  14
BRANCH   3  27
ATOM     27  C   UNL     1       1.862   9.107  19.722  0.00  0.00    +0.000 C 
BRANCH  27  28
ATOM     28  C   UNL     1       0.599   9.605  19.060  0.00  0.00    +0.000 A 
ATOM     29  C   UNL     1       0.327   9.298  17.722  0.00  0.00    +0.000 A 
ATOM     30  C   UNL     1      -0.936   9.547  17.180  0.00  0.00    +0.000 A 
ATOM     31  C   UNL     1      -1.964  10.103  17.952  0.00  0.00    +0.000 A 
ATOM     32  C   UNL     1      -1.642  10.521  19.254  0.00  0.00    +0.000 A 
ATOM     33  C   UNL     1      -0.382  10.272  19.804  0.00  0.00    +0.000 A 
BRANCH  31  34
ATOM     34  C   UNL     1      -3.375  10.222  17.417  0.00  0.00    +0.000 C 
ATOM     35  C   UNL     1      -3.974  11.594  17.178  0.00  0.00    +0.000 C 
ATOM     36  C   UNL     1      -3.578  10.745  16.010  0.00  0.00    +0.000 C 
ENDBRANCH  31  34
ENDBRANCH  27  28
ENDBRANCH   3  27
TORSDOF 9
ENDMDL
