MODEL 1
REMARK VINA RESULT:      -7.3      0.000      0.000
REMARK  Name = 
REMARK  6 active torsions:
REMARK  status: ('A' for Active; 'I' for Inactive)
REMARK    1  A    between atoms: C_2  and  C_4
REMARK    2  A    between atoms: N_7  and  C_8
REMARK    3  A    between atoms: C_8  and  C_9
REMARK    4  A    between atoms: C_9  and  C_10
REMARK    5  A    between atoms: C_10  and  N_11
REMARK    6  A    between atoms: C_12  and  C_14
REMARK                            x       y       z     vdW  Elec       q    Type
REMARK                         _______ _______ _______ _____ _____    ______ ____
ROOT
ATOM      1  C   UNL     1       4.062   5.387  17.325  0.00  0.00    +0.000 C 
ENDROOT
BRANCH   1   5
ATOM      2  C   UNL     1       2.490   2.024  19.560  0.00  0.00    +0.000 C 
ATOM      3  C   UNL     1       4.003   2.181  19.382  0.00  0.00    +0.000 C 
ATOM      4  C   UNL     1       4.405   3.594  18.948  0.00  0.00    +0.000 C 
ATOM      5  N   UNL     1       3.671   4.028  17.747  0.00  0.00    +0.000 NA
ATOM      6  C   UNL     1       2.220   3.984  17.983  0.00  0.00    +0.000 C 
ATOM      7  C   UNL     1       1.769   2.564  18.323  0.00  0.00    +0.000 C 
BRANCH   2   9
ATOM      8  N   UNL     1       0.734   3.170  20.825  0.00  0.00    +0.000 N 
ATOM      9  C   UNL     1       2.005   2.678  20.852  0.00  0.00    +0.000 C 
ATOM     10  O   UNL     1       2.661   2.735  21.886  0.00  0.00    +0.000 OA
ATOM     11  H   UNL     1       0.381   3.595  21.672  0.00  0.00    +0.000 HD
ATOM     12  H   UNL     1       0.148   3.174  20.003  0.00  0.00    +0.000 HD
ENDBRANCH   2   9
ENDBRANCH   1   5
BRANCH   1  13
ATOM     13  C   UNL     1       5.202   6.002  18.146  0.00  0.00    +0.000 C 
BRANCH  13  14
ATOM     14  C   UNL     1       6.236   6.699  17.267  0.00  0.00    +0.000 C 
BRANCH  14  15
ATOM     15  N   UNL     1       6.246   6.153  15.924  0.00  0.00    +0.000 N 
ATOM     16  C   UNL     1       7.053   5.094  15.573  0.00  0.00    +0.000 C 
ATOM     17  O   UNL     1       7.816   4.545  16.362  0.00  0.00    +0.000 OA
ATOM     18  H   UNL     1       5.576   6.510  15.260  0.00  0.00    +0.000 HD
BRANCH  16  19
ATOM     19  C   UNL     1       6.942   4.661  14.190  0.00  0.00    +0.000 A 
ATOM     20  C   UNL     1       6.005   3.732  13.678  0.00  0.00    +0.000 A 
ATOM     21  N   UNL     1       6.147   3.519  12.367  0.00  0.00    +0.000 NA
ATOM     22  N   UNL     1       7.176   4.307  12.031  0.00  0.00    +0.000 N 
ATOM     23  C   UNL     1       7.688   5.015  13.080  0.00  0.00    +0.000 A 
ATOM     24  H   UNL     1       7.480   4.309  11.061  0.00  0.00    +0.000 HD
ENDBRANCH  16  19
ENDBRANCH  14  15
ENDBRANCH  13  14
ENDBRANCH   1  13
TORSDOF 6
ENDMDL
MODEL 2
REMARK VINA RESULT:      -7.2      1.285      1.661
REMARK  Name = 
REMARK  6 active torsions:
REMARK  status: ('A' for Active; 'I' for Inactive)
REMARK    1  A    between atoms: C_2  and  C_4
REMARK    2  A    between atoms: N_7  and  C_8
REMARK    3  A    between atoms: C_8  and  C_9
REMARK    4  A    between atoms: C_9  and  C_10
REMARK    5  A    between atoms: C_10  and  N_11
REMARK    6  A    between atoms: C_12  and  C_14
REMARK                            x       y       z     vdW  Elec       q    Type
REMARK                         _______ _______ _______ _____ _____    ______ ____
ROOT
ATOM      1  C   UNL     1       3.585   6.574  17.819  0.00  0.00    +0.000 C 
ENDROOT
BRANCH   1   5
ATOM      2  C   UNL     1       1.212   3.720  20.055  0.00  0.00    +0.000 C 
ATOM      3  C   UNL     1       1.234   3.659  18.525  0.00  0.00    +0.000 C 
ATOM      4  C   UNL     1       2.408   4.435  17.919  0.00  0.00    +0.000 C 
ATOM      5  N   UNL     1       2.457   5.824  18.408  0.00  0.00    +0.000 NA
ATOM      6  C   UNL     1       2.558   5.854  19.874  0.00  0.00    +0.000 C 
ATOM      7  C   UNL     1       1.349   5.173  20.515  0.00  0.00    +0.000 C 
BRANCH   2   9
ATOM      8  N   UNL     1       2.170   2.601  22.012  0.00  0.00    +0.000 N 
ATOM      9  C   UNL     1       2.274   2.810  20.669  0.00  0.00    +0.000 C 
ATOM     10  O   UNL     1       3.152   2.242  20.029  0.00  0.00    +0.000 OA
ATOM     11  H   UNL     1       2.851   1.990  22.443  0.00  0.00    +0.000 HD
ATOM     12  H   UNL     1       1.485   3.051  22.602  0.00  0.00    +0.000 HD
ENDBRANCH   2   9
ENDBRANCH   1   5
BRANCH   1  13
ATOM     13  C   UNL     1       4.958   5.926  18.035  0.00  0.00    +0.000 C 
BRANCH  13  14
ATOM     14  C   UNL     1       6.049   6.595  17.205  0.00  0.00    +0.000 C 
BRANCH  14  15
ATOM     15  N   UNL     1       6.098   6.058  15.859  0.00  0.00    +0.000 N 
ATOM     16  C   UNL     1       7.004   5.088  15.493  0.00  0.00    +0.000 C 
ATOM     17  O   UNL     1       7.828   4.617  16.270  0.00  0.00    +0.000 OA
ATOM     18  H   UNL     1       5.386   6.347  15.205  0.00  0.00    +0.000 HD
BRANCH  16  19
ATOM     19  C   UNL     1       6.920   4.650  14.110  0.00  0.00    +0.000 A 
ATOM     20  C   UNL     1       5.994   3.718  13.583  0.00  0.00    +0.000 A 
ATOM     21  N   UNL     1       6.161   3.501  12.275  0.00  0.00    +0.000 NA
ATOM     22  N   UNL     1       7.194   4.291  11.956  0.00  0.00    +0.000 N 
ATOM     23  C   UNL     1       7.685   5.002  13.013  0.00  0.00    +0.000 A 
ATOM     24  H   UNL     1       7.517   4.290  10.993  0.00  0.00    +0.000 HD
ENDBRANCH  16  19
ENDBRANCH  14  15
ENDBRANCH  13  14
ENDBRANCH   1  13
TORSDOF 6
ENDMDL
MODEL 3
REMARK VINA RESULT:      -7.2      1.264      1.513
REMARK  Name = 
REMARK  6 active torsions:
REMARK  status: ('A' for Active; 'I' for Inactive)
REMARK    1  A    between atoms: C_2  and  C_4
REMARK    2  A    between atoms: N_7  and  C_8
REMARK    3  A    between atoms: C_8  and  C_9
REMARK    4  A    between atoms: C_9  and  C_10
REMARK    5  A    between atoms: C_10  and  N_11
REMARK    6  A    between atoms: C_12  and  C_14
REMARK                            x       y       z     vdW  Elec       q    Type
REMARK                         _______ _______ _______ _____ _____    ______ ____
ROOT
ATOM      1  C   UNL     1       4.883   5.274  18.000  0.00  0.00    +0.000 C 
ENDROOT
BRANCH   1   5
ATOM      2  C   UNL     1       1.758   2.595  19.353  0.00  0.00    +0.000 C 
ATOM      3  C   UNL     1       3.224   2.164  19.448  0.00  0.00    +0.000 C 
ATOM      4  C   UNL     1       4.196   3.343  19.329  0.00  0.00    +0.000 C 
ATOM      5  N   UNL     1       3.943   4.142  18.118  0.00  0.00    +0.000 NA
ATOM      6  C   UNL     1       2.562   4.646  18.109  0.00  0.00    +0.000 C 
ATOM      7  C   UNL     1       1.563   3.489  18.126  0.00  0.00    +0.000 C 
BRANCH   2   9
ATOM      8  N   UNL     1       1.568   2.590  21.795  0.00  0.00    +0.000 N 
ATOM      9  C   UNL     1       1.282   3.260  20.643  0.00  0.00    +0.000 C 
ATOM     10  O   UNL     1       0.720   4.349  20.692  0.00  0.00    +0.000 OA
ATOM     11  H   UNL     1       1.279   3.015  22.665  0.00  0.00    +0.000 HD
ATOM     12  H   UNL     1       2.009   1.682  21.824  0.00  0.00    +0.000 HD
ENDBRANCH   2   9
ENDBRANCH   1   5
BRANCH   1  13
ATOM     13  C   UNL     1       6.085   5.200  18.949  0.00  0.00    +0.000 C 
BRANCH  13  14
ATOM     14  C   UNL     1       7.351   4.724  18.242  0.00  0.00    +0.000 C 
BRANCH  14  15
ATOM     15  N   UNL     1       7.072   4.293  16.887  0.00  0.00    +0.000 N 
ATOM     16  C   UNL     1       7.235   5.131  15.807  0.00  0.00    +0.000 C 
ATOM     17  O   UNL     1       7.621   6.291  15.914  0.00  0.00    +0.000 OA
ATOM     18  H   UNL     1       6.836   3.325  16.734  0.00  0.00    +0.000 HD
BRANCH  16  19
ATOM     19  C   UNL     1       6.919   4.548  14.514  0.00  0.00    +0.000 A 
ATOM     20  C   UNL     1       7.515   4.886  13.276  0.00  0.00    +0.000 A 
ATOM     21  N   UNL     1       7.016   4.190  12.250  0.00  0.00    +0.000 NA
ATOM     22  N   UNL     1       6.096   3.403  12.824  0.00  0.00    +0.000 N 
ATOM     23  C   UNL     1       5.997   3.573  14.175  0.00  0.00    +0.000 A 
ATOM     24  H   UNL     1       5.566   2.774  12.228  0.00  0.00    +0.000 HD
ENDBRANCH  16  19
ENDBRANCH  14  15
ENDBRANCH  13  14
ENDBRANCH   1  13
TORSDOF 6
ENDMDL
MODEL 4
REMARK VINA RESULT:      -7.2      2.481      3.433
REMARK  Name = 
REMARK  6 active torsions:
REMARK  status: ('A' for Active; 'I' for Inactive)
REMARK    1  A    between atoms: C_2  and  C_4
REMARK    2  A    between atoms: N_7  and  C_8
REMARK    3  A    between atoms: C_8  and  C_9
REMARK    4  A    between atoms: C_9  and  C_10
REMARK    5  A    between atoms: C_10  and  N_11
REMARK    6  A    between atoms: C_12  and  C_14
REMARK                            x       y       z     vdW  Elec       q    Type
REMARK                         _______ _______ _______ _____ _____    ______ ____
ROOT
ATOM      1  C   UNL     1       2.461   6.772  19.536  0.00  0.00    +0.000 C 
ENDROOT
BRANCH   1   5
ATOM      2  C   UNL     1       2.344   2.441  19.535  0.00  0.00    +0.000 C 
ATOM      3  C   UNL     1       1.775   3.218  18.346  0.00  0.00    +0.000 C 
ATOM      4  C   UNL     1       2.255   4.673  18.304  0.00  0.00    +0.000 C 
ATOM      5  N   UNL     1       2.004   5.369  19.578  0.00  0.00    +0.000 NA
ATOM      6  C   UNL     1       2.663   4.669  20.690  0.00  0.00    +0.000 C 
ATOM      7  C   UNL     1       2.133   3.242  20.822  0.00  0.00    +0.000 C 
BRANCH   2   9
ATOM      8  N   UNL     1       4.102   1.515  18.102  0.00  0.00    +0.000 N 
ATOM      9  C   UNL     1       3.808   2.067  19.314  0.00  0.00    +0.000 C 
ATOM     10  O   UNL     1       4.706   2.276  20.123  0.00  0.00    +0.000 OA
ATOM     11  H   UNL     1       5.066   1.272  17.921  0.00  0.00    +0.000 HD
ATOM     12  H   UNL     1       3.410   1.298  17.399  0.00  0.00    +0.000 HD
ENDBRANCH   2   9
ENDBRANCH   1   5
BRANCH   1  13
ATOM     13  C   UNL     1       2.103   7.517  18.244  0.00  0.00    +0.000 C 
BRANCH  13  14
ATOM     14  C   UNL     1       3.342   7.948  17.464  0.00  0.00    +0.000 C 
BRANCH  14  15
ATOM     15  N   UNL     1       4.446   7.032  17.672  0.00  0.00    +0.000 N 
ATOM     16  C   UNL     1       5.197   6.546  16.626  0.00  0.00    +0.000 C 
ATOM     17  O   UNL     1       4.985   6.847  15.455  0.00  0.00    +0.000 OA
ATOM     18  H   UNL     1       4.717   6.822  18.620  0.00  0.00    +0.000 HD
BRANCH  16  19
ATOM     19  C   UNL     1       6.272   5.643  17.000  0.00  0.00    +0.000 A 
ATOM     20  C   UNL     1       7.144   4.967  16.113  0.00  0.00    +0.000 A 
ATOM     21  N   UNL     1       8.031   4.193  16.744  0.00  0.00    +0.000 NA
ATOM     22  N   UNL     1       7.733   4.365  18.038  0.00  0.00    +0.000 N 
ATOM     23  C   UNL     1       6.692   5.223  18.250  0.00  0.00    +0.000 A 
ATOM     24  H   UNL     1       8.282   3.858  18.726  0.00  0.00    +0.000 HD
ENDBRANCH  16  19
ENDBRANCH  14  15
ENDBRANCH  13  14
ENDBRANCH   1  13
TORSDOF 6
ENDMDL
MODEL 5
REMARK VINA RESULT:      -7.1      2.577      6.697
REMARK  Name = 
REMARK  6 active torsions:
REMARK  status: ('A' for Active; 'I' for Inactive)
REMARK    1  A    between atoms: C_2  and  C_4
REMARK    2  A    between atoms: N_7  and  C_8
REMARK    3  A    between atoms: C_8  and  C_9
REMARK    4  A    between atoms: C_9  and  C_10
REMARK    5  A    between atoms: C_10  and  N_11
REMARK    6  A    between atoms: C_12  and  C_14
REMARK                            x       y       z     vdW  Elec       q    Type
REMARK                         _______ _______ _______ _____ _____    ______ ____
ROOT
ATOM      1  C   UNL     1       3.228   2.146  18.148  0.00  0.00    +0.000 C 
ENDROOT
BRANCH   1   5
ATOM      2  C   UNL     1       5.919   5.522  17.773  0.00  0.00    +0.000 C 
ATOM      3  C   UNL     1       5.459   5.064  19.160  0.00  0.00    +0.000 C 
ATOM      4  C   UNL     1       4.871   3.650  19.152  0.00  0.00    +0.000 C 
ATOM      5  N   UNL     1       3.799   3.508  18.151  0.00  0.00    +0.000 NA
ATOM      6  C   UNL     1       4.299   3.836  16.808  0.00  0.00    +0.000 C 
ATOM      7  C   UNL     1       4.803   5.277  16.754  0.00  0.00    +0.000 C 
BRANCH   2   9
ATOM      8  N   UNL     1       7.517   4.868  16.035  0.00  0.00    +0.000 N 
ATOM      9  C   UNL     1       7.234   4.858  17.369  0.00  0.00    +0.000 C 
ATOM     10  O   UNL     1       8.039   4.380  18.161  0.00  0.00    +0.000 OA
ATOM     11  H   UNL     1       8.389   4.449  15.741  0.00  0.00    +0.000 HD
ATOM     12  H   UNL     1       6.891   5.226  15.329  0.00  0.00    +0.000 HD
ENDBRANCH   2   9
ENDBRANCH   1   5
BRANCH   1  13
ATOM     13  C   UNL     1       1.710   2.095  18.356  0.00  0.00    +0.000 C 
BRANCH  13  14
ATOM     14  C   UNL     1       1.280   2.784  19.648  0.00  0.00    +0.000 C 
BRANCH  14  15
ATOM     15  N   UNL     1       1.314   4.227  19.516  0.00  0.00    +0.000 N 
ATOM     16  C   UNL     1       1.866   5.036  20.484  0.00  0.00    +0.000 C 
ATOM     17  O   UNL     1       2.362   4.597  21.517  0.00  0.00    +0.000 OA
ATOM     18  H   UNL     1       0.999   4.633  18.648  0.00  0.00    +0.000 HD
BRANCH  16  19
ATOM     19  C   UNL     1       1.827   6.460  20.199  0.00  0.00    +0.000 A 
ATOM     20  C   UNL     1       1.235   7.458  21.010  0.00  0.00    +0.000 A 
ATOM     21  N   UNL     1       1.344   8.684  20.489  0.00  0.00    +0.000 NA
ATOM     22  N   UNL     1       2.004   8.479  19.342  0.00  0.00    +0.000 N 
ATOM     23  C   UNL     1       2.321   7.170  19.120  0.00  0.00    +0.000 A 
ATOM     24  H   UNL     1       2.202   9.284  18.755  0.00  0.00    +0.000 HD
ENDBRANCH  16  19
ENDBRANCH  14  15
ENDBRANCH  13  14
ENDBRANCH   1  13
TORSDOF 6
ENDMDL
MODEL 6
REMARK VINA RESULT:      -7.0      1.427      1.977
REMARK  Name = 
REMARK  6 active torsions:
REMARK  status: ('A' for Active; 'I' for Inactive)
REMARK    1  A    between atoms: C_2  and  C_4
REMARK    2  A    between atoms: N_7  and  C_8
REMARK    3  A    between atoms: C_8  and  C_9
REMARK    4  A    between atoms: C_9  and  C_10
REMARK    5  A    between atoms: C_10  and  N_11
REMARK    6  A    between atoms: C_12  and  C_14
REMARK                            x       y       z     vdW  Elec       q    Type
REMARK                         _______ _______ _______ _____ _____    ______ ____
ROOT
ATOM      1  C   UNL     1       4.520   5.344  17.872  0.00  0.00    +0.000 C 
ENDROOT
BRANCH   1   5
ATOM      2  C   UNL     1       1.043   3.923  20.033  0.00  0.00    +0.000 C 
ATOM      3  C   UNL     1       1.098   3.793  18.508  0.00  0.00    +0.000 C 
ATOM      4  C   UNL     1       2.518   3.947  17.951  0.00  0.00    +0.000 C 
ATOM      5  N   UNL     1       3.154   5.192  18.413  0.00  0.00    +0.000 NA
ATOM      6  C   UNL     1       3.199   5.239  19.882  0.00  0.00    +0.000 C 
ATOM      7  C   UNL     1       1.788   5.187  20.468  0.00  0.00    +0.000 C 
BRANCH   2   9
ATOM      8  N   UNL     1       1.508   2.671  22.086  0.00  0.00    +0.000 N 
ATOM      9  C   UNL     1       1.569   2.667  20.724  0.00  0.00    +0.000 C 
ATOM     10  O   UNL     1       1.981   1.674  20.134  0.00  0.00    +0.000 OA
ATOM     11  H   UNL     1       1.835   1.846  22.570  0.00  0.00    +0.000 HD
ATOM     12  H   UNL     1       1.200   3.461  22.634  0.00  0.00    +0.000 HD
ENDBRANCH   2   9
ENDBRANCH   1   5
BRANCH   1  13
ATOM     13  C   UNL     1       5.637   5.008  18.868  0.00  0.00    +0.000 C 
BRANCH  13  14
ATOM     14  C   UNL     1       6.961   4.710  18.172  0.00  0.00    +0.000 C 
BRANCH  14  15
ATOM     15  N   UNL     1       6.757   4.294  16.798  0.00  0.00    +0.000 N 
ATOM     16  C   UNL     1       7.095   5.099  15.734  0.00  0.00    +0.000 C 
ATOM     17  O   UNL     1       7.585   6.216  15.871  0.00  0.00    +0.000 OA
ATOM     18  H   UNL     1       6.440   3.352  16.628  0.00  0.00    +0.000 HD
BRANCH  16  19
ATOM     19  C   UNL     1       6.834   4.535  14.421  0.00  0.00    +0.000 A 
ATOM     20  C   UNL     1       7.521   4.850  13.224  0.00  0.00    +0.000 A 
ATOM     21  N   UNL     1       7.055   4.181  12.165  0.00  0.00    +0.000 NA
ATOM     22  N   UNL     1       6.067   3.436  12.675  0.00  0.00    +0.000 N 
ATOM     23  C   UNL     1       5.892   3.605  14.019  0.00  0.00    +0.000 A 
ATOM     24  H   UNL     1       5.547   2.834  12.043  0.00  0.00    +0.000 HD
ENDBRANCH  16  19
ENDBRANCH  14  15
ENDBRANCH  13  14
ENDBRANCH   1  13
TORSDOF 6
ENDMDL
MODEL 7
REMARK VINA RESULT:      -7.0      0.844      1.179
REMARK  Name = 
REMARK  6 active torsions:
REMARK  status: ('A' for Active; 'I' for Inactive)
REMARK    1  A    between atoms: C_2  and  C_4
REMARK    2  A    between atoms: N_7  and  C_8
REMARK    3  A    between atoms: C_8  and  C_9
REMARK    4  A    between atoms: C_9  and  C_10
REMARK    5  A    between atoms: C_10  and  N_11
REMARK    6  A    between atoms: C_12  and  C_14
REMARK                            x       y       z     vdW  Elec       q    Type
REMARK                         _______ _______ _______ _____ _____    ______ ____
ROOT
ATOM      1  C   UNL     1       3.761   5.389  17.283  0.00  0.00    +0.000 C 
ENDROOT
BRANCH   1   5
ATOM      2  C   UNL     1       2.044   2.324  19.819  0.00  0.00    +0.000 C 
ATOM      3  C   UNL     1       3.005   1.932  18.693  0.00  0.00    +0.000 C 
ATOM      4  C   UNL     1       3.827   3.117  18.176  0.00  0.00    +0.000 C 
ATOM      5  N   UNL     1       2.970   4.249  17.786  0.00  0.00    +0.000 NA
ATOM      6  C   UNL     1       2.143   4.687  18.921  0.00  0.00    +0.000 C 
ATOM      7  C   UNL     1       1.236   3.554  19.399  0.00  0.00    +0.000 C 
BRANCH   2   9
ATOM      8  N   UNL     1       2.047   3.086  22.147  0.00  0.00    +0.000 N 
ATOM      9  C   UNL     1       2.781   2.532  21.140  0.00  0.00    +0.000 C 
ATOM     10  O   UNL     1       3.941   2.192  21.346  0.00  0.00    +0.000 OA
ATOM     11  H   UNL     1       2.505   3.221  23.038  0.00  0.00    +0.000 HD
ATOM     12  H   UNL     1       1.095   3.407  22.040  0.00  0.00    +0.000 HD
ENDBRANCH   2   9
ENDBRANCH   1   5
BRANCH   1  13
ATOM     13  C   UNL     1       4.869   5.861  18.232  0.00  0.00    +0.000 C 
BRANCH  13  14
ATOM     14  C   UNL     1       6.093   6.376  17.481  0.00  0.00    +0.000 C 
BRANCH  14  15
ATOM     15  N   UNL     1       6.113   5.904  16.111  0.00  0.00    +0.000 N 
ATOM     16  C   UNL     1       7.024   4.969  15.674  0.00  0.00    +0.000 C 
ATOM     17  O   UNL     1       7.878   4.477  16.405  0.00  0.00    +0.000 OA
ATOM     18  H   UNL     1       5.378   6.211  15.491  0.00  0.00    +0.000 HD
BRANCH  16  19
ATOM     19  C   UNL     1       6.908   4.596  14.274  0.00  0.00    +0.000 A 
ATOM     20  C   UNL     1       7.736   5.047  13.218  0.00  0.00    +0.000 A 
ATOM     21  N   UNL     1       7.386   4.543  12.031  0.00  0.00    +0.000 NA
ATOM     22  N   UNL     1       6.333   3.768  12.318  0.00  0.00    +0.000 N 
ATOM     23  C   UNL     1       6.005   3.760  13.643  0.00  0.00    +0.000 A 
ATOM     24  H   UNL     1       5.881   3.274  11.554  0.00  0.00    +0.000 HD
ENDBRANCH  16  19
ENDBRANCH  14  15
ENDBRANCH  13  14
ENDBRANCH   1  13
TORSDOF 6
ENDMDL
MODEL 8
REMARK VINA RESULT:      -7.0      1.541      1.894
REMARK  Name = 
REMARK  6 active torsions:
REMARK  status: ('A' for Active; 'I' for Inactive)
REMARK    1  A    between atoms: C_2  and  C_4
REMARK    2  A    between atoms: N_7  and  C_8
REMARK    3  A    between atoms: C_8  and  C_9
REMARK    4  A    between atoms: C_9  and  C_10
REMARK    5  A    between atoms: C_10  and  N_11
REMARK    6  A    between atoms: C_12  and  C_14
REMARK                            x       y       z     vdW  Elec       q    Type
REMARK                         _______ _______ _______ _____ _____    ______ ____
ROOT
ATOM      1  C   UNL     1       4.954   5.697  18.532  0.00  0.00    +0.000 C 
ENDROOT
BRANCH   1   5
ATOM      2  C   UNL     1       1.105   3.876  19.338  0.00  0.00    +0.000 C 
ATOM      3  C   UNL     1       1.548   4.113  17.891  0.00  0.00    +0.000 C 
ATOM      4  C   UNL     1       3.054   4.365  17.767  0.00  0.00    +0.000 C 
ATOM      5  N   UNL     1       3.503   5.450  18.656  0.00  0.00    +0.000 NA
ATOM      6  C   UNL     1       3.174   5.142  20.056  0.00  0.00    +0.000 C 
ATOM      7  C   UNL     1       1.665   4.983  20.235  0.00  0.00    +0.000 C 
BRANCH   2   9
ATOM      8  N   UNL     1       1.600   1.526  18.854  0.00  0.00    +0.000 N 
ATOM      9  C   UNL     1       1.490   2.480  19.823  0.00  0.00    +0.000 C 
ATOM     10  O   UNL     1       1.744   2.199  20.989  0.00  0.00    +0.000 OA
ATOM     11  H   UNL     1       1.869   0.596  19.145  0.00  0.00    +0.000 HD
ATOM     12  H   UNL     1       1.386   1.685  17.880  0.00  0.00    +0.000 HD
ENDBRANCH   2   9
ENDBRANCH   1   5
BRANCH   1  13
ATOM     13  C   UNL     1       5.820   4.434  18.604  0.00  0.00    +0.000 C 
BRANCH  13  14
ATOM     14  C   UNL     1       7.173   4.621  17.924  0.00  0.00    +0.000 C 
BRANCH  14  15
ATOM     15  N   UNL     1       7.114   4.269  16.519  0.00  0.00    +0.000 N 
ATOM     16  C   UNL     1       6.831   5.200  15.545  0.00  0.00    +0.000 C 
ATOM     17  O   UNL     1       6.608   6.381  15.794  0.00  0.00    +0.000 OA
ATOM     18  H   UNL     1       7.375   3.333  16.251  0.00  0.00    +0.000 HD
BRANCH  16  19
ATOM     19  C   UNL     1       6.815   4.690  14.184  0.00  0.00    +0.000 A 
ATOM     20  C   UNL     1       5.917   3.728  13.663  0.00  0.00    +0.000 A 
ATOM     21  N   UNL     1       6.148   3.443  12.378  0.00  0.00    +0.000 NA
ATOM     22  N   UNL     1       7.194   4.219  12.068  0.00  0.00    +0.000 N 
ATOM     23  C   UNL     1       7.632   4.987  13.108  0.00  0.00    +0.000 A 
ATOM     24  H   UNL     1       7.563   4.169  11.123  0.00  0.00    +0.000 HD
ENDBRANCH  16  19
ENDBRANCH  14  15
ENDBRANCH  13  14
ENDBRANCH   1  13
TORSDOF 6
ENDMDL
MODEL 9
REMARK VINA RESULT:      -7.0      1.307      1.926
REMARK  Name = 
REMARK  6 active torsions:
REMARK  status: ('A' for Active; 'I' for Inactive)
REMARK    1  A    between atoms: C_2  and  C_4
REMARK    2  A    between atoms: N_7  and  C_8
REMARK    3  A    between atoms: C_8  and  C_9
REMARK    4  A    between atoms: C_9  and  C_10
REMARK    5  A    between atoms: C_10  and  N_11
REMARK    6  A    between atoms: C_12  and  C_14
REMARK                            x       y       z     vdW  Elec       q    Type
REMARK                         _______ _______ _______ _____ _____    ______ ____
ROOT
ATOM      1  C   UNL     1       3.646   6.180  17.485  0.00  0.00    +0.000 C 
ENDROOT
BRANCH   1   5
ATOM      2  C   UNL     1       2.621   2.372  19.280  0.00  0.00    +0.000 C 
ATOM      3  C   UNL     1       2.309   2.627  17.803  0.00  0.00    +0.000 C 
ATOM      4  C   UNL     1       3.086   3.816  17.230  0.00  0.00    +0.000 C 
ATOM      5  N   UNL     1       2.902   5.032  18.041  0.00  0.00    +0.000 NA
ATOM      6  C   UNL     1       3.324   4.798  19.429  0.00  0.00    +0.000 C 
ATOM      7  C   UNL     1       2.497   3.680  20.065  0.00  0.00    +0.000 C 
BRANCH   2   9
ATOM      8  N   UNL     1       4.286   0.722  18.570  0.00  0.00    +0.000 N 
ATOM      9  C   UNL     1       3.985   1.709  19.460  0.00  0.00    +0.000 C 
ATOM     10  O   UNL     1       4.810   2.044  20.304  0.00  0.00    +0.000 OA
ATOM     11  H   UNL     1       5.190   0.276  18.655  0.00  0.00    +0.000 HD
ATOM     12  H   UNL     1       3.647   0.384  17.865  0.00  0.00    +0.000 HD
ENDBRANCH   2   9
ENDBRANCH   1   5
BRANCH   1  13
ATOM     13  C   UNL     1       5.038   6.388  18.094  0.00  0.00    +0.000 C 
BRANCH  13  14
ATOM     14  C   UNL     1       6.036   6.941  17.081  0.00  0.00    +0.000 C 
BRANCH  14  15
ATOM     15  N   UNL     1       5.987   6.206  15.832  0.00  0.00    +0.000 N 
ATOM     16  C   UNL     1       6.844   5.162  15.566  0.00  0.00    +0.000 C 
ATOM     17  O   UNL     1       7.703   4.785  16.357  0.00  0.00    +0.000 OA
ATOM     18  H   UNL     1       5.243   6.417  15.185  0.00  0.00    +0.000 HD
BRANCH  16  19
ATOM     19  C   UNL     1       6.663   4.524  14.273  0.00  0.00    +0.000 A 
ATOM     20  C   UNL     1       7.454   4.737  13.119  0.00  0.00    +0.000 A 
ATOM     21  N   UNL     1       7.046   4.018  12.069  0.00  0.00    +0.000 NA
ATOM     22  N   UNL     1       5.991   3.343  12.542  0.00  0.00    +0.000 N 
ATOM     23  C   UNL     1       5.719   3.604  13.854  0.00  0.00    +0.000 A 
ATOM     24  H   UNL     1       5.498   2.720  11.909  0.00  0.00    +0.000 HD
ENDBRANCH  16  19
ENDBRANCH  14  15
ENDBRANCH  13  14
ENDBRANCH   1  13
TORSDOF 6
ENDMDL
