MODEL 1
REMARK VINA RESULT:      -7.7      0.000      0.000
REMARK  Name = 
REMARK  4 active torsions:
REMARK  status: ('A' for Active; 'I' for Inactive)
REMARK    1  A    between atoms: C_2  and  C_4
REMARK    2  A    between atoms: C_7  and  O_8
REMARK    3  A    between atoms: O_8  and  C_9
REMARK    4  A    between atoms: C_9  and  C_10
REMARK                            x       y       z     vdW  Elec       q    Type
REMARK                         _______ _______ _______ _____ _____    ______ ____
ROOT
ATOM      1  C   UNL     1       6.023   5.042  15.758  0.00  0.00    +0.000 A 
ATOM      2  C   UNL     1       6.080   4.189  16.864  0.00  0.00    +0.000 A 
ATOM      3  C   UNL     1       5.393   4.511  18.034  0.00  0.00    +0.000 A 
ATOM      4  C   UNL     1       4.677   5.708  18.121  0.00  0.00    +0.000 A 
ATOM      5  C   UNL     1       4.599   6.550  17.010  0.00  0.00    +0.000 A 
ATOM      6  C   UNL     1       5.281   6.226  15.833  0.00  0.00    +0.000 A 
ENDROOT
BRANCH   1   8
ATOM      7  N   UNL     1       6.349   3.622  13.815  0.00  0.00    +0.000 N 
ATOM      8  C   UNL     1       6.764   4.723  14.513  0.00  0.00    +0.000 C 
ATOM      9  O   UNL     1       7.686   5.422  14.112  0.00  0.00    +0.000 OA
ATOM     10  H   UNL     1       6.798   3.460  12.922  0.00  0.00    +0.000 HD
ATOM     11  H   UNL     1       5.457   3.182  13.979  0.00  0.00    +0.000 HD
ENDBRANCH   1   8
BRANCH   4  12
ATOM     12  O   UNL     1       4.034   6.143  19.250  0.00  0.00    +0.000 OA
BRANCH  12  13
ATOM     13  C   UNL     1       2.613   6.229  19.127  0.00  0.00    +0.000 C 
BRANCH  13  14
ATOM     14  C   UNL     1       1.999   4.872  19.351  0.00  0.00    +0.000 A 
ATOM     15  C   UNL     1       1.574   4.089  18.267  0.00  0.00    +0.000 A 
ATOM     16  C   UNL     1       1.022   2.823  18.484  0.00  0.00    +0.000 A 
ATOM     17  C   UNL     1       0.890   2.333  19.782  0.00  0.00    +0.000 A 
ATOM     18  C   UNL     1       1.310   3.110  20.853  0.00  0.00    +0.000 A 
ATOM     19  F   UNL     1       1.190   2.638  22.102  0.00  0.00    +0.000 F 
ATOM     20  C   UNL     1       1.862   4.369  20.651  0.00  0.00    +0.000 A 
ENDBRANCH  13  14
ENDBRANCH  12  13
ENDBRANCH   4  12
TORSDOF 4
ENDMDL
MODEL 2
REMARK VINA RESULT:      -7.7      0.999      1.503
REMARK  Name = 
REMARK  4 active torsions:
REMARK  status: ('A' for Active; 'I' for Inactive)
REMARK    1  A    between atoms: C_2  and  C_4
REMARK    2  A    between atoms: C_7  and  O_8
REMARK    3  A    between atoms: O_8  and  C_9
REMARK    4  A    between atoms: C_9  and  C_10
REMARK                            x       y       z     vdW  Elec       q    Type
REMARK                         _______ _______ _______ _____ _____    ______ ____
ROOT
ATOM      1  C   UNL     1       6.007   5.043  15.355  0.00  0.00    +0.000 A 
ATOM      2  C   UNL     1       5.908   4.167  16.440  0.00  0.00    +0.000 A 
ATOM      3  C   UNL     1       5.205   4.546  17.584  0.00  0.00    +0.000 A 
ATOM      4  C   UNL     1       4.633   5.817  17.668  0.00  0.00    +0.000 A 
ATOM      5  C   UNL     1       4.711   6.684  16.577  0.00  0.00    +0.000 A 
ATOM      6  C   UNL     1       5.408   6.305  15.425  0.00  0.00    +0.000 A 
ENDROOT
BRANCH   1   8
ATOM      7  N   UNL     1       6.346   3.543  13.475  0.00  0.00    +0.000 N 
ATOM      8  C   UNL     1       6.767   4.663  14.139  0.00  0.00    +0.000 C 
ATOM      9  O   UNL     1       7.710   5.329  13.730  0.00  0.00    +0.000 OA
ATOM     10  H   UNL     1       6.810   3.339  12.597  0.00  0.00    +0.000 HD
ATOM     11  H   UNL     1       5.442   3.126  13.637  0.00  0.00    +0.000 HD
ENDBRANCH   1   8
BRANCH   4  12
ATOM     12  O   UNL     1       3.991   6.303  18.776  0.00  0.00    +0.000 OA
BRANCH  12  13
ATOM     13  C   UNL     1       2.565   6.219  18.719  0.00  0.00    +0.000 C 
BRANCH  13  14
ATOM     14  C   UNL     1       2.101   4.955  19.396  0.00  0.00    +0.000 A 
ATOM     15  C   UNL     1       2.323   4.753  20.766  0.00  0.00    +0.000 A 
ATOM     16  C   UNL     1       1.873   3.585  21.389  0.00  0.00    +0.000 A 
ATOM     17  C   UNL     1       1.201   2.614  20.649  0.00  0.00    +0.000 A 
ATOM     18  C   UNL     1       0.984   2.816  19.293  0.00  0.00    +0.000 A 
ATOM     19  F   UNL     1       0.333   1.887  18.580  0.00  0.00    +0.000 F 
ATOM     20  C   UNL     1       1.425   3.973  18.662  0.00  0.00    +0.000 A 
ENDBRANCH  13  14
ENDBRANCH  12  13
ENDBRANCH   4  12
TORSDOF 4
ENDMDL
MODEL 3
REMARK VINA RESULT:      -7.7      0.774      1.375
REMARK  Name = 
REMARK  4 active torsions:
REMARK  status: ('A' for Active; 'I' for Inactive)
REMARK    1  A    between atoms: C_2  and  C_4
REMARK    2  A    between atoms: C_7  and  O_8
REMARK    3  A    between atoms: O_8  and  C_9
REMARK    4  A    between atoms: C_9  and  C_10
REMARK                            x       y       z     vdW  Elec       q    Type
REMARK                         _______ _______ _______ _____ _____    ______ ____
ROOT
ATOM      1  C   UNL     1       6.060   5.155  15.717  0.00  0.00    +0.000 A 
ATOM      2  C   UNL     1       5.255   6.295  15.810  0.00  0.00    +0.000 A 
ATOM      3  C   UNL     1       4.668   6.640  17.026  0.00  0.00    +0.000 A 
ATOM      4  C   UNL     1       4.846   5.827  18.149  0.00  0.00    +0.000 A 
ATOM      5  C   UNL     1       5.667   4.702  18.064  0.00  0.00    +0.000 A 
ATOM      6  C   UNL     1       6.265   4.357  16.848  0.00  0.00    +0.000 A 
ENDROOT
BRANCH   1   8
ATOM      7  N   UNL     1       7.764   5.488  14.019  0.00  0.00    +0.000 N 
ATOM      8  C   UNL     1       6.677   4.763  14.427  0.00  0.00    +0.000 C 
ATOM      9  O   UNL     1       6.255   3.822  13.767  0.00  0.00    +0.000 OA
ATOM     10  H   UNL     1       8.235   5.160  13.184  0.00  0.00    +0.000 HD
ATOM     11  H   UNL     1       8.278   6.090  14.643  0.00  0.00    +0.000 HD
ENDBRANCH   1   8
BRANCH   4  12
ATOM     12  O   UNL     1       4.249   6.045  19.363  0.00  0.00    +0.000 OA
BRANCH  12  13
ATOM     13  C   UNL     1       2.834   6.236  19.301  0.00  0.00    +0.000 C 
BRANCH  13  14
ATOM     14  C   UNL     1       2.134   4.909  19.439  0.00  0.00    +0.000 A 
ATOM     15  C   UNL     1       1.709   4.202  18.304  0.00  0.00    +0.000 A 
ATOM     16  C   UNL     1       1.077   2.963  18.442  0.00  0.00    +0.000 A 
ATOM     17  C   UNL     1       0.864   2.425  19.709  0.00  0.00    +0.000 A 
ATOM     18  C   UNL     1       1.284   3.127  20.831  0.00  0.00    +0.000 A 
ATOM     19  F   UNL     1       1.086   2.609  22.050  0.00  0.00    +0.000 F 
ATOM     20  C   UNL     1       1.915   4.359  20.708  0.00  0.00    +0.000 A 
ENDBRANCH  13  14
ENDBRANCH  12  13
ENDBRANCH   4  12
TORSDOF 4
ENDMDL
MODEL 4
REMARK VINA RESULT:      -7.6      1.115      1.920
REMARK  Name = 
REMARK  4 active torsions:
REMARK  status: ('A' for Active; 'I' for Inactive)
REMARK    1  A    between atoms: C_2  and  C_4
REMARK    2  A    between atoms: C_7  and  O_8
REMARK    3  A    between atoms: O_8  and  C_9
REMARK    4  A    between atoms: C_9  and  C_10
REMARK                            x       y       z     vdW  Elec       q    Type
REMARK                         _______ _______ _______ _____ _____    ______ ____
ROOT
ATOM      1  C   UNL     1       6.399   5.080  15.623  0.00  0.00    +0.000 A 
ATOM      2  C   UNL     1       5.231   5.840  15.734  0.00  0.00    +0.000 A 
ATOM      3  C   UNL     1       4.664   6.073  16.986  0.00  0.00    +0.000 A 
ATOM      4  C   UNL     1       5.236   5.515  18.132  0.00  0.00    +0.000 A 
ATOM      5  C   UNL     1       6.415   4.775  18.026  0.00  0.00    +0.000 A 
ATOM      6  C   UNL     1       6.991   4.545  16.773  0.00  0.00    +0.000 A 
ENDROOT
BRANCH   1   8
ATOM      7  N   UNL     1       6.522   3.724  13.612  0.00  0.00    +0.000 N 
ATOM      8  C   UNL     1       7.005   4.806  14.297  0.00  0.00    +0.000 C 
ATOM      9  O   UNL     1       7.876   5.523  13.822  0.00  0.00    +0.000 OA
ATOM     10  H   UNL     1       6.874   3.593  12.671  0.00  0.00    +0.000 HD
ATOM     11  H   UNL     1       5.653   3.273  13.856  0.00  0.00    +0.000 HD
ENDBRANCH   1   8
BRANCH   4  12
ATOM     12  O   UNL     1       4.708   5.627  19.392  0.00  0.00    +0.000 OA
BRANCH  12  13
ATOM     13  C   UNL     1       3.318   5.955  19.425  0.00  0.00    +0.000 C 
BRANCH  13  14
ATOM     14  C   UNL     1       2.523   4.759  19.880  0.00  0.00    +0.000 A 
ATOM     15  C   UNL     1       2.529   4.364  21.226  0.00  0.00    +0.000 A 
ATOM     16  C   UNL     1       1.774   3.264  21.642  0.00  0.00    +0.000 A 
ATOM     17  C   UNL     1       1.010   2.553  20.718  0.00  0.00    +0.000 A 
ATOM     18  C   UNL     1       1.005   2.946  19.387  0.00  0.00    +0.000 A 
ATOM     19  F   UNL     1       0.266   2.268  18.498  0.00  0.00    +0.000 F 
ATOM     20  C   UNL     1       1.751   4.038  18.961  0.00  0.00    +0.000 A 
ENDBRANCH  13  14
ENDBRANCH  12  13
ENDBRANCH   4  12
TORSDOF 4
ENDMDL
MODEL 5
REMARK VINA RESULT:      -7.2      3.933      6.530
REMARK  Name = 
REMARK  4 active torsions:
REMARK  status: ('A' for Active; 'I' for Inactive)
REMARK    1  A    between atoms: C_2  and  C_4
REMARK    2  A    between atoms: C_7  and  O_8
REMARK    3  A    between atoms: O_8  and  C_9
REMARK    4  A    between atoms: C_9  and  C_10
REMARK                            x       y       z     vdW  Elec       q    Type
REMARK                         _______ _______ _______ _____ _____    ______ ____
ROOT
ATOM      1  C   UNL     1       2.771   3.309  19.738  0.00  0.00    +0.000 A 
ATOM      2  C   UNL     1       3.437   2.337  18.986  0.00  0.00    +0.000 A 
ATOM      3  C   UNL     1       4.090   2.690  17.806  0.00  0.00    +0.000 A 
ATOM      4  C   UNL     1       4.047   4.009  17.346  0.00  0.00    +0.000 A 
ATOM      5  C   UNL     1       3.402   4.986  18.107  0.00  0.00    +0.000 A 
ATOM      6  C   UNL     1       2.753   4.636  19.296  0.00  0.00    +0.000 A 
ENDROOT
BRANCH   1   8
ATOM      7  N   UNL     1       0.688   2.941  20.931  0.00  0.00    +0.000 N 
ATOM      8  C   UNL     1       2.056   2.947  20.986  0.00  0.00    +0.000 C 
ATOM      9  O   UNL     1       2.653   2.643  22.011  0.00  0.00    +0.000 OA
ATOM     10  H   UNL     1       0.206   2.606  21.757  0.00  0.00    +0.000 HD
ATOM     11  H   UNL     1       0.182   2.940  20.059  0.00  0.00    +0.000 HD
ENDBRANCH   1   8
BRANCH   4  12
ATOM     12  O   UNL     1       4.593   4.433  16.163  0.00  0.00    +0.000 OA
BRANCH  12  13
ATOM     13  C   UNL     1       6.004   4.231  16.056  0.00  0.00    +0.000 C 
BRANCH  13  14
ATOM     14  C   UNL     1       6.725   5.167  16.992  0.00  0.00    +0.000 A 
ATOM     15  C   UNL     1       7.350   4.681  18.150  0.00  0.00    +0.000 A 
ATOM     16  C   UNL     1       8.033   5.554  19.002  0.00  0.00    +0.000 A 
ATOM     17  C   UNL     1       8.093   6.914  18.704  0.00  0.00    +0.000 A 
ATOM     18  C   UNL     1       7.473   7.393  17.558  0.00  0.00    +0.000 A 
ATOM     19  F   UNL     1       7.535   8.699  17.266  0.00  0.00    +0.000 F 
ATOM     20  C   UNL     1       6.793   6.535  16.702  0.00  0.00    +0.000 A 
ENDBRANCH  13  14
ENDBRANCH  12  13
ENDBRANCH   4  12
TORSDOF 4
ENDMDL
MODEL 6
REMARK VINA RESULT:      -7.2      1.650      2.277
REMARK  Name = 
REMARK  4 active torsions:
REMARK  status: ('A' for Active; 'I' for Inactive)
REMARK    1  A    between atoms: C_2  and  C_4
REMARK    2  A    between atoms: C_7  and  O_8
REMARK    3  A    between atoms: O_8  and  C_9
REMARK    4  A    between atoms: C_9  and  C_10
REMARK                            x       y       z     vdW  Elec       q    Type
REMARK                         _______ _______ _______ _____ _____    ______ ____
ROOT
ATOM      1  C   UNL     1       6.587   4.613  15.341  0.00  0.00    +0.000 A 
ATOM      2  C   UNL     1       5.224   4.513  15.632  0.00  0.00    +0.000 A 
ATOM      3  C   UNL     1       4.793   4.444  16.957  0.00  0.00    +0.000 A 
ATOM      4  C   UNL     1       5.724   4.432  17.998  0.00  0.00    +0.000 A 
ATOM      5  C   UNL     1       7.085   4.555  17.711  0.00  0.00    +0.000 A 
ATOM      6  C   UNL     1       7.520   4.632  16.384  0.00  0.00    +0.000 A 
ENDROOT
BRANCH   1   8
ATOM      7  N   UNL     1       6.532   3.751  13.072  0.00  0.00    +0.000 N 
ATOM      8  C   UNL     1       7.063   4.668  13.938  0.00  0.00    +0.000 C 
ATOM      9  O   UNL     1       7.872   5.506  13.560  0.00  0.00    +0.000 OA
ATOM     10  H   UNL     1       6.791   3.849  12.097  0.00  0.00    +0.000 HD
ATOM     11  H   UNL     1       5.699   3.224  13.286  0.00  0.00    +0.000 HD
ENDBRANCH   1   8
BRANCH   4  12
ATOM     12  O   UNL     1       5.400   4.292  19.322  0.00  0.00    +0.000 OA
BRANCH  12  13
ATOM     13  C   UNL     1       4.794   3.042  19.655  0.00  0.00    +0.000 C 
BRANCH  13  14
ATOM     14  C   UNL     1       3.303   3.218  19.789  0.00  0.00    +0.000 A 
ATOM     15  C   UNL     1       2.771   4.208  20.628  0.00  0.00    +0.000 A 
ATOM     16  C   UNL     1       1.387   4.376  20.732  0.00  0.00    +0.000 A 
ATOM     17  C   UNL     1       0.529   3.557  20.001  0.00  0.00    +0.000 A 
ATOM     18  C   UNL     1       1.057   2.577  19.172  0.00  0.00    +0.000 A 
ATOM     19  F   UNL     1       0.234   1.792  18.464  0.00  0.00    +0.000 F 
ATOM     20  C   UNL     1       2.431   2.400  19.059  0.00  0.00    +0.000 A 
ENDBRANCH  13  14
ENDBRANCH  12  13
ENDBRANCH   4  12
TORSDOF 4
ENDMDL
MODEL 7
REMARK VINA RESULT:      -7.1      1.292      1.361
REMARK  Name = 
REMARK  4 active torsions:
REMARK  status: ('A' for Active; 'I' for Inactive)
REMARK    1  A    between atoms: C_2  and  C_4
REMARK    2  A    between atoms: C_7  and  O_8
REMARK    3  A    between atoms: O_8  and  C_9
REMARK    4  A    between atoms: C_9  and  C_10
REMARK                            x       y       z     vdW  Elec       q    Type
REMARK                         _______ _______ _______ _____ _____    ______ ____
ROOT
ATOM      1  C   UNL     1       6.561   4.664  15.399  0.00  0.00    +0.000 A 
ATOM      2  C   UNL     1       7.471   4.772  16.456  0.00  0.00    +0.000 A 
ATOM      3  C   UNL     1       7.017   4.760  17.774  0.00  0.00    +0.000 A 
ATOM      4  C   UNL     1       5.648   4.683  18.046  0.00  0.00    +0.000 A 
ATOM      5  C   UNL     1       4.741   4.553  16.993  0.00  0.00    +0.000 A 
ATOM      6  C   UNL     1       5.193   4.556  15.670  0.00  0.00    +0.000 A 
ENDROOT
BRANCH   1   8
ATOM      7  N   UNL     1       8.031   5.575  13.693  0.00  0.00    +0.000 N 
ATOM      8  C   UNL     1       7.026   4.695  13.991  0.00  0.00    +0.000 C 
ATOM      9  O   UNL     1       6.555   3.954  13.138  0.00  0.00    +0.000 OA
ATOM     10  H   UNL     1       8.406   5.528  12.753  0.00  0.00    +0.000 HD
ATOM     11  H   UNL     1       8.599   6.008  14.405  0.00  0.00    +0.000 HD
ENDBRANCH   1   8
BRANCH   4  12
ATOM     12  O   UNL     1       5.106   4.740  19.303  0.00  0.00    +0.000 OA
BRANCH  12  13
ATOM     13  C   UNL     1       3.880   5.470  19.386  0.00  0.00    +0.000 C 
BRANCH  13  14
ATOM     14  C   UNL     1       2.730   4.515  19.571  0.00  0.00    +0.000 A 
ATOM     15  C   UNL     1       1.919   4.150  18.486  0.00  0.00    +0.000 A 
ATOM     16  C   UNL     1       0.865   3.249  18.664  0.00  0.00    +0.000 A 
ATOM     17  C   UNL     1       0.615   2.709  19.924  0.00  0.00    +0.000 A 
ATOM     18  C   UNL     1       1.418   3.072  20.997  0.00  0.00    +0.000 A 
ATOM     19  F   UNL     1       1.183   2.549  22.208  0.00  0.00    +0.000 F 
ATOM     20  C   UNL     1       2.469   3.965  20.833  0.00  0.00    +0.000 A 
ENDBRANCH  13  14
ENDBRANCH  12  13
ENDBRANCH   4  12
TORSDOF 4
ENDMDL
MODEL 8
REMARK VINA RESULT:      -7.1      3.626      6.314
REMARK  Name = 
REMARK  4 active torsions:
REMARK  status: ('A' for Active; 'I' for Inactive)
REMARK    1  A    between atoms: C_2  and  C_4
REMARK    2  A    between atoms: C_7  and  O_8
REMARK    3  A    between atoms: O_8  and  C_9
REMARK    4  A    between atoms: C_9  and  C_10
REMARK                            x       y       z     vdW  Elec       q    Type
REMARK                         _______ _______ _______ _____ _____    ______ ____
ROOT
ATOM      1  C   UNL     1       2.636   3.477  19.529  0.00  0.00    +0.000 A 
ATOM      2  C   UNL     1       3.251   2.424  18.844  0.00  0.00    +0.000 A 
ATOM      3  C   UNL     1       3.985   2.678  17.685  0.00  0.00    +0.000 A 
ATOM      4  C   UNL     1       4.076   3.977  17.181  0.00  0.00    +0.000 A 
ATOM      5  C   UNL     1       3.482   5.032  17.876  0.00  0.00    +0.000 A 
ATOM      6  C   UNL     1       2.752   4.783  19.043  0.00  0.00    +0.000 A 
ENDROOT
BRANCH   1   8
ATOM      7  N   UNL     1       0.502   2.976  20.573  0.00  0.00    +0.000 N 
ATOM      8  C   UNL     1       1.836   3.222  20.752  0.00  0.00    +0.000 C 
ATOM      9  O   UNL     1       2.343   3.207  21.866  0.00  0.00    +0.000 OA
ATOM     10  H   UNL     1      -0.022   2.714  21.400  0.00  0.00    +0.000 HD
ATOM     11  H   UNL     1       0.111   2.738  19.674  0.00  0.00    +0.000 HD
ENDBRANCH   1   8
BRANCH   4  12
ATOM     12  O   UNL     1       4.710   4.309  16.012  0.00  0.00    +0.000 OA
BRANCH  12  13
ATOM     13  C   UNL     1       6.121   4.084  16.020  0.00  0.00    +0.000 C 
BRANCH  13  14
ATOM     14  C   UNL     1       6.796   5.103  16.902  0.00  0.00    +0.000 A 
ATOM     15  C   UNL     1       6.777   6.465  16.567  0.00  0.00    +0.000 A 
ATOM     16  C   UNL     1       7.390   7.405  17.401  0.00  0.00    +0.000 A 
ATOM     17  C   UNL     1       8.024   6.991  18.571  0.00  0.00    +0.000 A 
ATOM     18  C   UNL     1       8.041   5.642  18.900  0.00  0.00    +0.000 A 
ATOM     19  F   UNL     1       8.645   5.242  20.027  0.00  0.00    +0.000 F 
ATOM     20  C   UNL     1       7.435   4.698  18.080  0.00  0.00    +0.000 A 
ENDBRANCH  13  14
ENDBRANCH  12  13
ENDBRANCH   4  12
TORSDOF 4
ENDMDL
MODEL 9
REMARK VINA RESULT:      -7.0      1.264      1.345
REMARK  Name = 
REMARK  4 active torsions:
REMARK  status: ('A' for Active; 'I' for Inactive)
REMARK    1  A    between atoms: C_2  and  C_4
REMARK    2  A    between atoms: C_7  and  O_8
REMARK    3  A    between atoms: O_8  and  C_9
REMARK    4  A    between atoms: C_9  and  C_10
REMARK                            x       y       z     vdW  Elec       q    Type
REMARK                         _______ _______ _______ _____ _____    ______ ____
ROOT
ATOM      1  C   UNL     1       6.167   5.277  17.244  0.00  0.00    +0.000 A 
ATOM      2  C   UNL     1       6.035   4.837  18.565  0.00  0.00    +0.000 A 
ATOM      3  C   UNL     1       4.959   5.265  19.341  0.00  0.00    +0.000 A 
ATOM      4  C   UNL     1       4.029   6.167  18.818  0.00  0.00    +0.000 A 
ATOM      5  C   UNL     1       4.146   6.589  17.493  0.00  0.00    +0.000 A 
ATOM      6  C   UNL     1       5.220   6.156  16.708  0.00  0.00    +0.000 A 
ENDROOT
BRANCH   1   8
ATOM      7  N   UNL     1       7.338   5.292  15.117  0.00  0.00    +0.000 N 
ATOM      8  C   UNL     1       7.316   4.847  16.411  0.00  0.00    +0.000 C 
ATOM      9  O   UNL     1       8.217   4.150  16.860  0.00  0.00    +0.000 OA
ATOM     10  H   UNL     1       8.168   5.072  14.580  0.00  0.00    +0.000 HD
ATOM     11  H   UNL     1       6.759   6.054  14.797  0.00  0.00    +0.000 HD
ENDBRANCH   1   8
BRANCH   4  12
ATOM     12  O   UNL     1       2.985   6.699  19.528  0.00  0.00    +0.000 OA
BRANCH  12  13
ATOM     13  C   UNL     1       1.693   6.277  19.086  0.00  0.00    +0.000 C 
BRANCH  13  14
ATOM     14  C   UNL     1       1.529   4.799  19.325  0.00  0.00    +0.000 A 
ATOM     15  C   UNL     1       1.515   3.896  18.251  0.00  0.00    +0.000 A 
ATOM     16  C   UNL     1       1.382   2.524  18.484  0.00  0.00    +0.000 A 
ATOM     17  C   UNL     1       1.260   2.047  19.787  0.00  0.00    +0.000 A 
ATOM     18  C   UNL     1       1.273   2.942  20.848  0.00  0.00    +0.000 A 
ATOM     19  F   UNL     1       1.163   2.484  22.103  0.00  0.00    +0.000 F 
ATOM     20  C   UNL     1       1.407   4.307  20.631  0.00  0.00    +0.000 A 
ENDBRANCH  13  14
ENDBRANCH  12  13
ENDBRANCH   4  12
TORSDOF 4
ENDMDL
