MODEL 1
REMARK VINA RESULT:      -7.0      0.000      0.000
REMARK  Name = 
REMARK  10 active torsions:
REMARK  status: ('A' for Active; 'I' for Inactive)
REMARK    1  A    between atoms: C_1  and  O_2
REMARK    2  A    between atoms: O_2  and  C_3
REMARK    3  A    between atoms: C_3  and  C_4
REMARK    4  A    between atoms: C_5  and  C_6
REMARK    5  A    between atoms: C_9  and  C_10
REMARK    6  A    between atoms: C_10  and  C_11
REMARK    7  A    between atoms: C_10  and  C_12
REMARK    8  A    between atoms: C_10  and  C_13
REMARK    9  A    between atoms: N_16  and  C_17
REMARK   10  A    between atoms: C_25  and  C_26
REMARK                            x       y       z     vdW  Elec       q    Type
REMARK                         _______ _______ _______ _____ _____    ______ ____
ROOT
ATOM      1  C   UNL     1       0.083  10.570  20.414  0.00  0.00    +0.000 A 
ATOM      2  C   UNL     1       1.048  10.560  19.369  0.00  0.00    +0.000 A 
ATOM      3  N   UNL     1       1.355  11.798  18.976  0.00  0.00    +0.000 NA
ATOM      4  N   UNL     1       0.568  12.629  19.702  0.00  0.00    +0.000 N 
ATOM      5  C   UNL     1      -0.235  11.922  20.611  0.00  0.00    +0.000 A 
ENDROOT
BRANCH   4   6
ATOM      6  C   UNL     1       0.661  14.045  19.511  0.00  0.00    +0.000 A 
ATOM      7  C   UNL     1      -0.396  14.722  18.868  0.00  0.00    +0.000 A 
ATOM      8  C   UNL     1      -0.248  16.043  18.437  0.00  0.00    +0.000 A 
ATOM      9  C   UNL     1       0.929  16.726  18.708  0.00  0.00    +0.000 A 
ATOM     10 CL   UNL     1       1.149  18.323  18.108  0.00  0.00    +0.000 Cl
ATOM     11  C   UNL     1       1.942  16.110  19.441  0.00  0.00    +0.000 A 
ATOM     12  C   UNL     1       1.817  14.772  19.853  0.00  0.00    +0.000 A 
ATOM     13 CL   UNL     1       3.215  14.107  20.624  0.00  0.00    +0.000 Cl
ENDBRANCH   4   6
BRANCH   5  14
ATOM     14  C   UNL     1      -1.273  12.514  21.502  0.00  0.00    +0.000 A 
ATOM     15  C   UNL     1      -2.626  12.575  21.126  0.00  0.00    +0.000 A 
ATOM     16  C   UNL     1      -3.563  13.271  21.901  0.00  0.00    +0.000 A 
ATOM     17  C   UNL     1      -3.180  13.824  23.116  0.00  0.00    +0.000 A 
ATOM     18 CL   UNL     1      -4.325  14.682  24.070  0.00  0.00    +0.000 Cl
ATOM     19  C   UNL     1      -1.868  13.695  23.557  0.00  0.00    +0.000 A 
ATOM     20  C   UNL     1      -0.919  13.065  22.743  0.00  0.00    +0.000 A 
ENDBRANCH   5  14
BRANCH   2  21
ATOM     21  C   UNL     1       1.702   9.337  18.756  0.00  0.00    +0.000 A 
ATOM     22  N   UNL     1       2.063   9.254  17.486  0.00  0.00    +0.000 NA
ATOM     23  N   UNL     1       2.571   7.997  17.273  0.00  0.00    +0.000 NA
ATOM     24  C   UNL     1       2.487   7.363  18.423  0.00  0.00    +0.000 A 
ATOM     25  O   UNL     1       1.974   8.155  19.423  0.00  0.00    +0.000 OA
BRANCH  24  26
ATOM     26  C   UNL     1       2.775   5.916  18.722  0.00  0.00    +0.000 C 
ATOM     27  C   UNL     1       1.972   5.007  17.769  0.00  0.00    +0.000 C 
ATOM     28  C   UNL     1       4.267   5.605  18.540  0.00  0.00    +0.000 C 
ATOM     29  C   UNL     1       2.352   5.596  20.165  0.00  0.00    +0.000 C 
ENDBRANCH  24  26
ENDBRANCH   2  21
BRANCH   1  30
ATOM     30  C   UNL     1      -0.481   9.387  21.139  0.00  0.00    +0.000 C 
BRANCH  30  32
ATOM     31  C   UNL     1      -0.039   9.504  23.447  0.00  0.00    +0.000 C 
ATOM     32  O   UNL     1       0.382   8.972  22.199  0.00  0.00    +0.000 OA
ENDBRANCH  30  32
ENDBRANCH   1  30
TORSDOF 6
ENDMDL
MODEL 2
REMARK VINA RESULT:      -7.0      0.216      1.142
REMARK  Name = 
REMARK  10 active torsions:
REMARK  status: ('A' for Active; 'I' for Inactive)
REMARK    1  A    between atoms: C_1  and  O_2
REMARK    2  A    between atoms: O_2  and  C_3
REMARK    3  A    between atoms: C_3  and  C_4
REMARK    4  A    between atoms: C_5  and  C_6
REMARK    5  A    between atoms: C_9  and  C_10
REMARK    6  A    between atoms: C_10  and  C_11
REMARK    7  A    between atoms: C_10  and  C_12
REMARK    8  A    between atoms: C_10  and  C_13
REMARK    9  A    between atoms: N_16  and  C_17
REMARK   10  A    between atoms: C_25  and  C_26
REMARK                            x       y       z     vdW  Elec       q    Type
REMARK                         _______ _______ _______ _____ _____    ______ ____
ROOT
ATOM      1  C   UNL     1       0.094  10.523  20.418  0.00  0.00    +0.000 A 
ATOM      2  C   UNL     1       1.085  10.478  19.399  0.00  0.00    +0.000 A 
ATOM      3  N   UNL     1       1.416  11.704  18.985  0.00  0.00    +0.000 NA
ATOM      4  N   UNL     1       0.619  12.561  19.670  0.00  0.00    +0.000 N 
ATOM      5  C   UNL     1      -0.215  11.883  20.575  0.00  0.00    +0.000 A 
ENDROOT
BRANCH   4   6
ATOM      6  C   UNL     1       0.732  13.970  19.449  0.00  0.00    +0.000 A 
ATOM      7  C   UNL     1      -0.318  14.649  18.797  0.00  0.00    +0.000 A 
ATOM      8  C   UNL     1      -0.153  15.958  18.337  0.00  0.00    +0.000 A 
ATOM      9  C   UNL     1       1.036  16.629  18.587  0.00  0.00    +0.000 A 
ATOM     10 CL   UNL     1       1.276  18.209  17.952  0.00  0.00    +0.000 Cl
ATOM     11  C   UNL     1       2.043  16.014  19.328  0.00  0.00    +0.000 A 
ATOM     12  C   UNL     1       1.901  14.687  19.770  0.00  0.00    +0.000 A 
ATOM     13 CL   UNL     1       3.292  14.017  20.548  0.00  0.00    +0.000 Cl
ENDBRANCH   4   6
BRANCH   5  14
ATOM     14  C   UNL     1      -1.268  12.507  21.424  0.00  0.00    +0.000 A 
ATOM     15  C   UNL     1      -0.973  13.072  22.676  0.00  0.00    +0.000 A 
ATOM     16  C   UNL     1      -1.991  13.514  23.531  0.00  0.00    +0.000 A 
ATOM     17  C   UNL     1      -3.311  13.493  23.102  0.00  0.00    +0.000 A 
ATOM     18 CL   UNL     1      -4.566  14.030  24.148  0.00  0.00    +0.000 Cl
ATOM     19  C   UNL     1      -3.622  13.027  21.830  0.00  0.00    +0.000 A 
ATOM     20  C   UNL     1      -2.609  12.516  21.009  0.00  0.00    +0.000 A 
ENDBRANCH   5  14
BRANCH   2  21
ATOM     21  C   UNL     1       1.742   9.235  18.832  0.00  0.00    +0.000 A 
ATOM     22  N   UNL     1       2.157   9.128  17.581  0.00  0.00    +0.000 NA
ATOM     23  N   UNL     1       2.649   7.858  17.407  0.00  0.00    +0.000 NA
ATOM     24  C   UNL     1       2.501   7.242  18.560  0.00  0.00    +0.000 A 
ATOM     25  O   UNL     1       1.960   8.058  19.526  0.00  0.00    +0.000 OA
BRANCH  24  26
ATOM     26  C   UNL     1       2.747   5.794  18.892  0.00  0.00    +0.000 C 
ATOM     27  C   UNL     1       2.150   5.457  20.274  0.00  0.00    +0.000 C 
ATOM     28  C   UNL     1       2.094   4.875  17.849  0.00  0.00    +0.000 C 
ATOM     29  C   UNL     1       4.260   5.528  18.942  0.00  0.00    +0.000 C 
ENDBRANCH  24  26
ENDBRANCH   2  21
BRANCH   1  30
ATOM     30  C   UNL     1      -0.501   9.364  21.156  0.00  0.00    +0.000 C 
BRANCH  30  32
ATOM     31  C   UNL     1      -0.089   9.529  23.467  0.00  0.00    +0.000 C 
ATOM     32  O   UNL     1       0.336   8.956  22.238  0.00  0.00    +0.000 OA
ENDBRANCH  30  32
ENDBRANCH   1  30
TORSDOF 6
ENDMDL
MODEL 3
REMARK VINA RESULT:      -7.0      2.946      4.696
REMARK  Name = 
REMARK  10 active torsions:
REMARK  status: ('A' for Active; 'I' for Inactive)
REMARK    1  A    between atoms: C_1  and  O_2
REMARK    2  A    between atoms: O_2  and  C_3
REMARK    3  A    between atoms: C_3  and  C_4
REMARK    4  A    between atoms: C_5  and  C_6
REMARK    5  A    between atoms: C_9  and  C_10
REMARK    6  A    between atoms: C_10  and  C_11
REMARK    7  A    between atoms: C_10  and  C_12
REMARK    8  A    between atoms: C_10  and  C_13
REMARK    9  A    between atoms: N_16  and  C_17
REMARK   10  A    between atoms: C_25  and  C_26
REMARK                            x       y       z     vdW  Elec       q    Type
REMARK                         _______ _______ _______ _____ _____    ______ ____
ROOT
ATOM      1  C   UNL     1       0.884  11.746  18.890  0.00  0.00    +0.000 A 
ATOM      2  C   UNL     1       0.524  10.413  18.546  0.00  0.00    +0.000 A 
ATOM      3  N   UNL     1      -0.786  10.306  18.313  0.00  0.00    +0.000 NA
ATOM      4  N   UNL     1      -1.313  11.532  18.553  0.00  0.00    +0.000 N 
ATOM      5  C   UNL     1      -0.323  12.462  18.908  0.00  0.00    +0.000 A 
ENDROOT
BRANCH   4   6
ATOM      6  C   UNL     1      -2.718  11.748  18.388  0.00  0.00    +0.000 A 
ATOM      7  C   UNL     1      -3.484  12.164  19.497  0.00  0.00    +0.000 A 
ATOM      8  C   UNL     1      -4.880  12.146  19.456  0.00  0.00    +0.000 A 
ATOM      9  C   UNL     1      -5.528  11.784  18.283  0.00  0.00    +0.000 A 
ATOM     10 CL   UNL     1      -7.244  11.680  18.250  0.00  0.00    +0.000 Cl
ATOM     11  C   UNL     1      -4.788  11.479  17.141  0.00  0.00    +0.000 A 
ATOM     12  C   UNL     1      -3.383  11.464  17.180  0.00  0.00    +0.000 A 
ATOM     13 CL   UNL     1      -2.614  10.925  15.728  0.00  0.00    +0.000 Cl
ENDBRANCH   4   6
BRANCH   5  14
ATOM     14  C   UNL     1      -0.560  13.876  19.316  0.00  0.00    +0.000 A 
ATOM     15  C   UNL     1      -0.329  14.950  18.440  0.00  0.00    +0.000 A 
ATOM     16  C   UNL     1      -0.406  16.277  18.882  0.00  0.00    +0.000 A 
ATOM     17  C   UNL     1      -0.818  16.549  20.180  0.00  0.00    +0.000 A 
ATOM     18 CL   UNL     1      -0.911  18.176  20.730  0.00  0.00    +0.000 Cl
ATOM     19  C   UNL     1      -1.146  15.507  21.039  0.00  0.00    +0.000 A 
ATOM     20  C   UNL     1      -0.994  14.181  20.615  0.00  0.00    +0.000 A 
ENDBRANCH   5  14
BRANCH   2  21
ATOM     21  C   UNL     1       1.462   9.229  18.418  0.00  0.00    +0.000 A 
ATOM     22  N   UNL     1       2.383   9.119  17.476  0.00  0.00    +0.000 NA
ATOM     23  N   UNL     1       3.006   7.906  17.634  0.00  0.00    +0.000 NA
ATOM     24  C   UNL     1       2.427   7.323  18.662  0.00  0.00    +0.000 A 
ATOM     25  O   UNL     1       1.455   8.112  19.234  0.00  0.00    +0.000 OA
BRANCH  24  26
ATOM     26  C   UNL     1       2.625   5.926  19.186  0.00  0.00    +0.000 C 
ATOM     27  C   UNL     1       2.076   4.897  18.174  0.00  0.00    +0.000 C 
ATOM     28  C   UNL     1       4.115   5.631  19.411  0.00  0.00    +0.000 C 
ATOM     29  C   UNL     1       1.858   5.759  20.508  0.00  0.00    +0.000 C 
ENDBRANCH  24  26
ENDBRANCH   2  21
BRANCH   1  30
ATOM     30  C   UNL     1       2.256  12.267  19.183  0.00  0.00    +0.000 C 
BRANCH  30  32
ATOM     31  C   UNL     1       3.303  14.255  18.480  0.00  0.00    +0.000 C 
ATOM     32  O   UNL     1       2.778  12.999  18.073  0.00  0.00    +0.000 OA
ENDBRANCH  30  32
ENDBRANCH   1  30
TORSDOF 6
ENDMDL
MODEL 4
REMARK VINA RESULT:      -6.9      1.879      4.466
REMARK  Name = 
REMARK  10 active torsions:
REMARK  status: ('A' for Active; 'I' for Inactive)
REMARK    1  A    between atoms: C_1  and  O_2
REMARK    2  A    between atoms: O_2  and  C_3
REMARK    3  A    between atoms: C_3  and  C_4
REMARK    4  A    between atoms: C_5  and  C_6
REMARK    5  A    between atoms: C_9  and  C_10
REMARK    6  A    between atoms: C_10  and  C_11
REMARK    7  A    between atoms: C_10  and  C_12
REMARK    8  A    between atoms: C_10  and  C_13
REMARK    9  A    between atoms: N_16  and  C_17
REMARK   10  A    between atoms: C_25  and  C_26
REMARK                            x       y       z     vdW  Elec       q    Type
REMARK                         _______ _______ _______ _____ _____    ______ ____
ROOT
ATOM      1  C   UNL     1       1.222  11.915  18.892  0.00  0.00    +0.000 A 
ATOM      2  C   UNL     1       0.798  10.567  19.052  0.00  0.00    +0.000 A 
ATOM      3  N   UNL     1      -0.425  10.499  19.584  0.00  0.00    +0.000 NA
ATOM      4  N   UNL     1      -0.798  11.779  19.835  0.00  0.00    +0.000 N 
ATOM      5  C   UNL     1       0.182  12.695  19.421  0.00  0.00    +0.000 A 
ENDROOT
BRANCH   4   6
ATOM      6  C   UNL     1      -2.078  12.046  20.413  0.00  0.00    +0.000 A 
ATOM      7  C   UNL     1      -3.184  12.264  19.564  0.00  0.00    +0.000 A 
ATOM      8  C   UNL     1      -4.386  12.771  20.063  0.00  0.00    +0.000 A 
ATOM      9  C   UNL     1      -4.524  12.997  21.425  0.00  0.00    +0.000 A 
ATOM     10 CL   UNL     1      -5.971  13.699  22.034  0.00  0.00    +0.000 Cl
ATOM     11  C   UNL     1      -3.481  12.682  22.295  0.00  0.00    +0.000 A 
ATOM     12  C   UNL     1      -2.256  12.200  21.802  0.00  0.00    +0.000 A 
ATOM     13 CL   UNL     1      -1.015  11.995  22.988  0.00  0.00    +0.000 Cl
ENDBRANCH   4   6
BRANCH   5  14
ATOM     14  C   UNL     1       0.135  14.171  19.621  0.00  0.00    +0.000 A 
ATOM     15  C   UNL     1       0.391  14.759  20.871  0.00  0.00    +0.000 A 
ATOM     16  C   UNL     1       0.192  16.130  21.083  0.00  0.00    +0.000 A 
ATOM     17  C   UNL     1      -0.164  16.948  20.019  0.00  0.00    +0.000 A 
ATOM     18 CL   UNL     1      -0.413  18.631  20.273  0.00  0.00    +0.000 Cl
ATOM     19  C   UNL     1      -0.329  16.407  18.750  0.00  0.00    +0.000 A 
ATOM     20  C   UNL     1      -0.203  15.025  18.560  0.00  0.00    +0.000 A 
ENDBRANCH   5  14
BRANCH   2  21
ATOM     21  C   UNL     1       1.574   9.324  18.663  0.00  0.00    +0.000 A 
ATOM     22  N   UNL     1       2.183   9.170  17.499  0.00  0.00    +0.000 NA
ATOM     23  N   UNL     1       2.736   7.914  17.475  0.00  0.00    +0.000 NA
ATOM     24  C   UNL     1       2.430   7.351  18.624  0.00  0.00    +0.000 A 
ATOM     25  O   UNL     1       1.717   8.193  19.447  0.00  0.00    +0.000 OA
BRANCH  24  26
ATOM     26  C   UNL     1       2.666   5.933  19.070  0.00  0.00    +0.000 C 
ATOM     27  C   UNL     1       4.178   5.674  19.238  0.00  0.00    +0.000 C 
ATOM     28  C   UNL     1       1.979   5.660  20.415  0.00  0.00    +0.000 C 
ATOM     29  C   UNL     1       2.125   4.964  18.006  0.00  0.00    +0.000 C 
ENDBRANCH  24  26
ENDBRANCH   2  21
BRANCH   1  30
ATOM     30  C   UNL     1       2.509  12.396  18.298  0.00  0.00    +0.000 C 
BRANCH  30  32
ATOM     31  C   UNL     1       3.597  14.483  18.285  0.00  0.00    +0.000 C 
ATOM     32  O   UNL     1       3.089  13.431  19.093  0.00  0.00    +0.000 OA
ENDBRANCH  30  32
ENDBRANCH   1  30
TORSDOF 6
ENDMDL
MODEL 5
REMARK VINA RESULT:      -6.9      3.610      7.683
REMARK  Name = 
REMARK  10 active torsions:
REMARK  status: ('A' for Active; 'I' for Inactive)
REMARK    1  A    between atoms: C_1  and  O_2
REMARK    2  A    between atoms: O_2  and  C_3
REMARK    3  A    between atoms: C_3  and  C_4
REMARK    4  A    between atoms: C_5  and  C_6
REMARK    5  A    between atoms: C_9  and  C_10
REMARK    6  A    between atoms: C_10  and  C_11
REMARK    7  A    between atoms: C_10  and  C_12
REMARK    8  A    between atoms: C_10  and  C_13
REMARK    9  A    between atoms: N_16  and  C_17
REMARK   10  A    between atoms: C_25  and  C_26
REMARK                            x       y       z     vdW  Elec       q    Type
REMARK                         _______ _______ _______ _____ _____    ______ ____
ROOT
ATOM      1  C   UNL     1      -1.065  12.721  19.161  0.00  0.00    +0.000 A 
ATOM      2  C   UNL     1      -1.940  11.643  18.850  0.00  0.00    +0.000 A 
ATOM      3  N   UNL     1      -1.287  10.480  18.805  0.00  0.00    +0.000 NA
ATOM      4  N   UNL     1       0.019  10.774  19.023  0.00  0.00    +0.000 N 
ATOM      5  C   UNL     1       0.211  12.145  19.255  0.00  0.00    +0.000 A 
ENDROOT
BRANCH   4   6
ATOM      6  C   UNL     1       0.992   9.725  19.038  0.00  0.00    +0.000 A 
ATOM      7  C   UNL     1       1.732   9.458  17.867  0.00  0.00    +0.000 A 
ATOM      8  C   UNL     1       2.503   8.299  17.751  0.00  0.00    +0.000 A 
ATOM      9  C   UNL     1       2.603   7.430  18.828  0.00  0.00    +0.000 A 
ATOM     10 CL   UNL     1       3.482   5.961  18.663  0.00  0.00    +0.000 Cl
ATOM     11  C   UNL     1       1.970   7.733  20.032  0.00  0.00    +0.000 A 
ATOM     12  C   UNL     1       1.167   8.881  20.151  0.00  0.00    +0.000 A 
ATOM     13 CL   UNL     1       0.333   9.041  21.657  0.00  0.00    +0.000 Cl
ENDBRANCH   4   6
BRANCH   5  14
ATOM     14  C   UNL     1       1.525  12.822  19.447  0.00  0.00    +0.000 A 
ATOM     15  C   UNL     1       2.030  13.112  20.726  0.00  0.00    +0.000 A 
ATOM     16  C   UNL     1       3.187  13.883  20.892  0.00  0.00    +0.000 A 
ATOM     17  C   UNL     1       3.914  14.286  19.779  0.00  0.00    +0.000 A 
ATOM     18 CL   UNL     1       5.333  15.237  19.976  0.00  0.00    +0.000 Cl
ATOM     19  C   UNL     1       3.488  13.931  18.505  0.00  0.00    +0.000 A 
ATOM     20  C   UNL     1       2.290  13.225  18.342  0.00  0.00    +0.000 A 
ENDBRANCH   5  14
BRANCH   2  21
ATOM     21  C   UNL     1      -3.436  11.733  18.616  0.00  0.00    +0.000 A 
ATOM     22  N   UNL     1      -4.009  11.543  17.440  0.00  0.00    +0.000 NA
ATOM     23  N   UNL     1      -5.357  11.751  17.589  0.00  0.00    +0.000 NA
ATOM     24  C   UNL     1      -5.546  12.072  18.851  0.00  0.00    +0.000 A 
ATOM     25  O   UNL     1      -4.378  12.053  19.578  0.00  0.00    +0.000 OA
BRANCH  24  26
ATOM     26  C   UNL     1      -6.810  12.534  19.526  0.00  0.00    +0.000 C 
ATOM     27  C   UNL     1      -6.479  13.571  20.620  0.00  0.00    +0.000 C 
ATOM     28  C   UNL     1      -7.763  13.188  18.515  0.00  0.00    +0.000 C 
ATOM     29  C   UNL     1      -7.505  11.335  20.192  0.00  0.00    +0.000 C 
ENDBRANCH  24  26
ENDBRANCH   2  21
BRANCH   1  30
ATOM     30  C   UNL     1      -1.429  14.162  19.338  0.00  0.00    +0.000 C 
BRANCH  30  32
ATOM     31  C   UNL     1      -1.335  14.436  21.673  0.00  0.00    +0.000 C 
ATOM     32  O   UNL     1      -2.182  14.362  20.535  0.00  0.00    +0.000 OA
ENDBRANCH  30  32
ENDBRANCH   1  30
TORSDOF 6
ENDMDL
MODEL 6
REMARK VINA RESULT:      -6.8      3.566      7.699
REMARK  Name = 
REMARK  10 active torsions:
REMARK  status: ('A' for Active; 'I' for Inactive)
REMARK    1  A    between atoms: C_1  and  O_2
REMARK    2  A    between atoms: O_2  and  C_3
REMARK    3  A    between atoms: C_3  and  C_4
REMARK    4  A    between atoms: C_5  and  C_6
REMARK    5  A    between atoms: C_9  and  C_10
REMARK    6  A    between atoms: C_10  and  C_11
REMARK    7  A    between atoms: C_10  and  C_12
REMARK    8  A    between atoms: C_10  and  C_13
REMARK    9  A    between atoms: N_16  and  C_17
REMARK   10  A    between atoms: C_25  and  C_26
REMARK                            x       y       z     vdW  Elec       q    Type
REMARK                         _______ _______ _______ _____ _____    ______ ____
ROOT
ATOM      1  C   UNL     1      -0.962  13.250  20.111  0.00  0.00    +0.000 A 
ATOM      2  C   UNL     1      -1.932  12.209  20.096  0.00  0.00    +0.000 A 
ATOM      3  N   UNL     1      -1.367  11.018  19.886  0.00  0.00    +0.000 NA
ATOM      4  N   UNL     1      -0.044  11.255  19.703  0.00  0.00    +0.000 N 
ATOM      5  C   UNL     1       0.262  12.619  19.837  0.00  0.00    +0.000 A 
ENDROOT
BRANCH   4   6
ATOM      6  C   UNL     1       0.847  10.164  19.455  0.00  0.00    +0.000 A 
ATOM      7  C   UNL     1       1.351   9.972  18.151  0.00  0.00    +0.000 A 
ATOM      8  C   UNL     1       2.014   8.794  17.801  0.00  0.00    +0.000 A 
ATOM      9  C   UNL     1       2.246   7.824  18.766  0.00  0.00    +0.000 A 
ATOM     10 CL   UNL     1       2.987   6.336  18.323  0.00  0.00    +0.000 Cl
ATOM     11  C   UNL     1       1.855   8.044  20.086  0.00  0.00    +0.000 A 
ATOM     12  C   UNL     1       1.160   9.212  20.444  0.00  0.00    +0.000 A 
ATOM     13 CL   UNL     1       0.617   9.271  22.084  0.00  0.00    +0.000 Cl
ENDBRANCH   4   6
BRANCH   5  14
ATOM     14  C   UNL     1       1.600  13.238  19.619  0.00  0.00    +0.000 A 
ATOM     15  C   UNL     1       2.461  13.538  20.688  0.00  0.00    +0.000 A 
ATOM     16  C   UNL     1       3.645  14.259  20.485  0.00  0.00    +0.000 A 
ATOM     17  C   UNL     1       4.035  14.597  19.196  0.00  0.00    +0.000 A 
ATOM     18 CL   UNL     1       5.486  15.485  18.941  0.00  0.00    +0.000 Cl
ATOM     19  C   UNL     1       3.248  14.228  18.112  0.00  0.00    +0.000 A 
ATOM     20  C   UNL     1       2.029  13.575  18.326  0.00  0.00    +0.000 A 
ENDBRANCH   5  14
BRANCH   2  21
ATOM     21  C   UNL     1      -3.425  12.364  20.310  0.00  0.00    +0.000 A 
ATOM     22  N   UNL     1      -3.965  12.800  21.435  0.00  0.00    +0.000 NA
ATOM     23  N   UNL     1      -5.330  12.763  21.290  0.00  0.00    +0.000 NA
ATOM     24  C   UNL     1      -5.562  12.292  20.083  0.00  0.00    +0.000 A 
ATOM     25  O   UNL     1      -4.403  12.042  19.385  0.00  0.00    +0.000 OA
BRANCH  24  26
ATOM     26  C   UNL     1      -6.878  11.918  19.457  0.00  0.00    +0.000 C 
ATOM     27  C   UNL     1      -7.578  13.175  18.899  0.00  0.00    +0.000 C 
ATOM     28  C   UNL     1      -6.673  10.929  18.300  0.00  0.00    +0.000 C 
ATOM     29  C   UNL     1      -7.793  11.288  20.520  0.00  0.00    +0.000 C 
ENDBRANCH  24  26
ENDBRANCH   2  21
BRANCH   1  30
ATOM     30  C   UNL     1      -1.199  14.707  20.354  0.00  0.00    +0.000 C 
BRANCH  30  32
ATOM     31  C   UNL     1      -2.053  15.795  22.259  0.00  0.00    +0.000 C 
ATOM     32  O   UNL     1      -0.972  15.046  21.723  0.00  0.00    +0.000 OA
ENDBRANCH  30  32
ENDBRANCH   1  30
TORSDOF 6
ENDMDL
MODEL 7
REMARK VINA RESULT:      -6.8      1.815      4.427
REMARK  Name = 
REMARK  10 active torsions:
REMARK  status: ('A' for Active; 'I' for Inactive)
REMARK    1  A    between atoms: C_1  and  O_2
REMARK    2  A    between atoms: O_2  and  C_3
REMARK    3  A    between atoms: C_3  and  C_4
REMARK    4  A    between atoms: C_5  and  C_6
REMARK    5  A    between atoms: C_9  and  C_10
REMARK    6  A    between atoms: C_10  and  C_11
REMARK    7  A    between atoms: C_10  and  C_12
REMARK    8  A    between atoms: C_10  and  C_13
REMARK    9  A    between atoms: N_16  and  C_17
REMARK   10  A    between atoms: C_25  and  C_26
REMARK                            x       y       z     vdW  Elec       q    Type
REMARK                         _______ _______ _______ _____ _____    ______ ____
ROOT
ATOM      1  C   UNL     1       1.276  11.844  18.957  0.00  0.00    +0.000 A 
ATOM      2  C   UNL     1       0.927  10.496  19.246  0.00  0.00    +0.000 A 
ATOM      3  N   UNL     1      -0.175  10.427  19.997  0.00  0.00    +0.000 NA
ATOM      4  N   UNL     1      -0.531  11.709  20.261  0.00  0.00    +0.000 N 
ATOM      5  C   UNL     1       0.330  12.626  19.637  0.00  0.00    +0.000 A 
ENDROOT
BRANCH   4   6
ATOM      6  C   UNL     1      -1.690  11.976  21.056  0.00  0.00    +0.000 A 
ATOM      7  C   UNL     1      -2.728  12.764  20.513  0.00  0.00    +0.000 A 
ATOM      8  C   UNL     1      -3.754  13.259  21.321  0.00  0.00    +0.000 A 
ATOM      9  C   UNL     1      -3.798  12.913  22.665  0.00  0.00    +0.000 A 
ATOM     10 CL   UNL     1      -5.010  13.586  23.682  0.00  0.00    +0.000 Cl
ATOM     11  C   UNL     1      -2.844  12.045  23.195  0.00  0.00    +0.000 A 
ATOM     12  C   UNL     1      -1.790  11.565  22.398  0.00  0.00    +0.000 A 
ATOM     13 CL   UNL     1      -0.610  10.617  23.235  0.00  0.00    +0.000 Cl
ENDBRANCH   4   6
BRANCH   5  14
ATOM     14  C   UNL     1       0.279  14.108  19.782  0.00  0.00    +0.000 A 
ATOM     15  C   UNL     1      -0.224  14.936  18.764  0.00  0.00    +0.000 A 
ATOM     16  C   UNL     1      -0.124  16.331  18.848  0.00  0.00    +0.000 A 
ATOM     17  C   UNL     1       0.385  16.919  19.998  0.00  0.00    +0.000 A 
ATOM     18 CL   UNL     1       0.514  18.631  20.105  0.00  0.00    +0.000 Cl
ATOM     19  C   UNL     1       0.801  16.125  21.060  0.00  0.00    +0.000 A 
ATOM     20  C   UNL     1       0.769  14.730  20.941  0.00  0.00    +0.000 A 
ENDBRANCH   5  14
BRANCH   2  21
ATOM     21  C   UNL     1       1.654   9.253  18.771  0.00  0.00    +0.000 A 
ATOM     22  N   UNL     1       2.179   9.123  17.565  0.00  0.00    +0.000 NA
ATOM     23  N   UNL     1       2.707   7.860  17.468  0.00  0.00    +0.000 NA
ATOM     24  C   UNL     1       2.470   7.269  18.619  0.00  0.00    +0.000 A 
ATOM     25  O   UNL     1       1.831   8.097  19.513  0.00  0.00    +0.000 OA
BRANCH  24  26
ATOM     26  C   UNL     1       2.712   5.835  19.009  0.00  0.00    +0.000 C 
ATOM     27  C   UNL     1       2.047   4.889  17.987  0.00  0.00    +0.000 C 
ATOM     28  C   UNL     1       4.215   5.524  19.046  0.00  0.00    +0.000 C 
ATOM     29  C   UNL     1       2.092   5.567  20.390  0.00  0.00    +0.000 C 
ENDBRANCH  24  26
ENDBRANCH   2  21
BRANCH   1  30
ATOM     30  C   UNL     1       2.418  12.324  18.117  0.00  0.00    +0.000 C 
BRANCH  30  32
ATOM     31  C   UNL     1       3.459  14.434  18.163  0.00  0.00    +0.000 C 
ATOM     32  O   UNL     1       3.265  13.207  18.853  0.00  0.00    +0.000 OA
ENDBRANCH  30  32
ENDBRANCH   1  30
TORSDOF 6
ENDMDL
MODEL 8
REMARK VINA RESULT:      -6.8      2.934      4.571
REMARK  Name = 
REMARK  10 active torsions:
REMARK  status: ('A' for Active; 'I' for Inactive)
REMARK    1  A    between atoms: C_1  and  O_2
REMARK    2  A    between atoms: O_2  and  C_3
REMARK    3  A    between atoms: C_3  and  C_4
REMARK    4  A    between atoms: C_5  and  C_6
REMARK    5  A    between atoms: C_9  and  C_10
REMARK    6  A    between atoms: C_10  and  C_11
REMARK    7  A    between atoms: C_10  and  C_12
REMARK    8  A    between atoms: C_10  and  C_13
REMARK    9  A    between atoms: N_16  and  C_17
REMARK   10  A    between atoms: C_25  and  C_26
REMARK                            x       y       z     vdW  Elec       q    Type
REMARK                         _______ _______ _______ _____ _____    ______ ____
ROOT
ATOM      1  C   UNL     1       0.822  11.770  19.071  0.00  0.00    +0.000 A 
ATOM      2  C   UNL     1       0.479  10.455  18.650  0.00  0.00    +0.000 A 
ATOM      3  N   UNL     1      -0.822  10.357  18.367  0.00  0.00    +0.000 NA
ATOM      4  N   UNL     1      -1.361  11.569  18.647  0.00  0.00    +0.000 N 
ATOM      5  C   UNL     1      -0.387  12.482  19.082  0.00  0.00    +0.000 A 
ENDROOT
BRANCH   4   6
ATOM      6  C   UNL     1      -2.760  11.790  18.445  0.00  0.00    +0.000 A 
ATOM      7  C   UNL     1      -3.555  12.206  19.534  0.00  0.00    +0.000 A 
ATOM      8  C   UNL     1      -4.949  12.193  19.454  0.00  0.00    +0.000 A 
ATOM      9  C   UNL     1      -5.566  11.835  18.264  0.00  0.00    +0.000 A 
ATOM     10 CL   UNL     1      -7.281  11.736  18.185  0.00  0.00    +0.000 Cl
ATOM     11  C   UNL     1      -4.797  11.528  17.143  0.00  0.00    +0.000 A 
ATOM     12  C   UNL     1      -3.393  11.508  17.219  0.00  0.00    +0.000 A 
ATOM     13 CL   UNL     1      -2.587  10.969  15.788  0.00  0.00    +0.000 Cl
ENDBRANCH   4   6
BRANCH   5  14
ATOM     14  C   UNL     1      -0.644  13.874  19.550  0.00  0.00    +0.000 A 
ATOM     15  C   UNL     1      -1.186  14.141  20.819  0.00  0.00    +0.000 A 
ATOM     16  C   UNL     1      -1.566  15.438  21.187  0.00  0.00    +0.000 A 
ATOM     17  C   UNL     1      -1.312  16.501  20.330  0.00  0.00    +0.000 A 
ATOM     18 CL   UNL     1      -1.779  18.096  20.774  0.00  0.00    +0.000 Cl
ATOM     19  C   UNL     1      -0.689  16.277  19.108  0.00  0.00    +0.000 A 
ATOM     20  C   UNL     1      -0.380  14.969  18.714  0.00  0.00    +0.000 A 
ENDBRANCH   5  14
BRANCH   2  21
ATOM     21  C   UNL     1       1.426   9.281  18.496  0.00  0.00    +0.000 A 
ATOM     22  N   UNL     1       2.345   9.195  17.550  0.00  0.00    +0.000 NA
ATOM     23  N   UNL     1       2.977   7.984  17.683  0.00  0.00    +0.000 NA
ATOM     24  C   UNL     1       2.406   7.378  18.702  0.00  0.00    +0.000 A 
ATOM     25  O   UNL     1       1.430   8.148  19.292  0.00  0.00    +0.000 OA
BRANCH  24  26
ATOM     26  C   UNL     1       2.616   5.972  19.198  0.00  0.00    +0.000 C 
ATOM     27  C   UNL     1       4.120   5.706  19.418  0.00  0.00    +0.000 C 
ATOM     28  C   UNL     1       1.887   5.748  20.531  0.00  0.00    +0.000 C 
ATOM     29  C   UNL     1       2.097   4.974  18.150  0.00  0.00    +0.000 C 
ENDBRANCH  24  26
ENDBRANCH   2  21
BRANCH   1  30
ATOM     30  C   UNL     1       2.181  12.280  19.436  0.00  0.00    +0.000 C 
BRANCH  30  32
ATOM     31  C   UNL     1       2.962  13.937  20.912  0.00  0.00    +0.000 C 
ATOM     32  O   UNL     1       2.216  12.735  20.789  0.00  0.00    +0.000 OA
ENDBRANCH  30  32
ENDBRANCH   1  30
TORSDOF 6
ENDMDL
MODEL 9
REMARK VINA RESULT:      -6.8      1.873      4.439
REMARK  Name = 
REMARK  10 active torsions:
REMARK  status: ('A' for Active; 'I' for Inactive)
REMARK    1  A    between atoms: C_1  and  O_2
REMARK    2  A    between atoms: O_2  and  C_3
REMARK    3  A    between atoms: C_3  and  C_4
REMARK    4  A    between atoms: C_5  and  C_6
REMARK    5  A    between atoms: C_9  and  C_10
REMARK    6  A    between atoms: C_10  and  C_11
REMARK    7  A    between atoms: C_10  and  C_12
REMARK    8  A    between atoms: C_10  and  C_13
REMARK    9  A    between atoms: N_16  and  C_17
REMARK   10  A    between atoms: C_25  and  C_26
REMARK                            x       y       z     vdW  Elec       q    Type
REMARK                         _______ _______ _______ _____ _____    ______ ____
ROOT
ATOM      1  C   UNL     1       1.251  11.904  19.056  0.00  0.00    +0.000 A 
ATOM      2  C   UNL     1       0.792  10.560  19.133  0.00  0.00    +0.000 A 
ATOM      3  N   UNL     1      -0.451  10.495  19.614  0.00  0.00    +0.000 NA
ATOM      4  N   UNL     1      -0.806  11.769  19.913  0.00  0.00    +0.000 N 
ATOM      5  C   UNL     1       0.208  12.681  19.582  0.00  0.00    +0.000 A 
ENDROOT
BRANCH   4   6
ATOM      6  C   UNL     1      -2.103  12.038  20.454  0.00  0.00    +0.000 A 
ATOM      7  C   UNL     1      -3.188  12.233  19.574  0.00  0.00    +0.000 A 
ATOM      8  C   UNL     1      -4.406  12.740  20.034  0.00  0.00    +0.000 A 
ATOM      9  C   UNL     1      -4.579  12.990  21.388  0.00  0.00    +0.000 A 
ATOM     10 CL   UNL     1      -6.046  13.693  21.947  0.00  0.00    +0.000 Cl
ATOM     11  C   UNL     1      -3.556  12.698  22.289  0.00  0.00    +0.000 A 
ATOM     12  C   UNL     1      -2.316  12.216  21.835  0.00  0.00    +0.000 A 
ATOM     13 CL   UNL     1      -1.104  12.041  23.055  0.00  0.00    +0.000 Cl
ENDBRANCH   4   6
BRANCH   5  14
ATOM     14  C   UNL     1       0.185  14.147  19.852  0.00  0.00    +0.000 A 
ATOM     15  C   UNL     1      -0.413  15.055  18.961  0.00  0.00    +0.000 A 
ATOM     16  C   UNL     1      -0.294  16.439  19.147  0.00  0.00    +0.000 A 
ATOM     17  C   UNL     1       0.336  16.931  20.282  0.00  0.00    +0.000 A 
ATOM     18 CL   UNL     1       0.489  18.628  20.514  0.00  0.00    +0.000 Cl
ATOM     19  C   UNL     1       0.852  16.053  21.228  0.00  0.00    +0.000 A 
ATOM     20  C   UNL     1       0.796  14.673  21.000  0.00  0.00    +0.000 A 
ENDBRANCH   5  14
BRANCH   2  21
ATOM     21  C   UNL     1       1.557   9.319  18.714  0.00  0.00    +0.000 A 
ATOM     22  N   UNL     1       2.117   9.166  17.526  0.00  0.00    +0.000 NA
ATOM     23  N   UNL     1       2.674   7.912  17.481  0.00  0.00    +0.000 NA
ATOM     24  C   UNL     1       2.418   7.350  18.643  0.00  0.00    +0.000 A 
ATOM     25  O   UNL     1       1.738   8.190  19.494  0.00  0.00    +0.000 OA
BRANCH  24  26
ATOM     26  C   UNL     1       2.678   5.933  19.080  0.00  0.00    +0.000 C 
ATOM     27  C   UNL     1       1.933   5.640  20.399  0.00  0.00    +0.000 C 
ATOM     28  C   UNL     1       2.192   4.935  18.020  0.00  0.00    +0.000 C 
ATOM     29  C   UNL     1       4.184   5.739  19.323  0.00  0.00    +0.000 C 
ENDBRANCH  24  26
ENDBRANCH   2  21
BRANCH   1  30
ATOM     30  C   UNL     1       2.570  12.383  18.536  0.00  0.00    +0.000 C 
BRANCH  30  32
ATOM     31  C   UNL     1       3.419  14.548  18.174  0.00  0.00    +0.000 C 
ATOM     32  O   UNL     1       2.425  13.602  17.806  0.00  0.00    +0.000 OA
ENDBRANCH  30  32
ENDBRANCH   1  30
TORSDOF 6
ENDMDL
