MODEL 1
REMARK VINA RESULT:      -7.4      0.000      0.000
REMARK  Name = 
REMARK  10 active torsions:
REMARK  status: ('A' for Active; 'I' for Inactive)
REMARK    1  A    between atoms: C_1  and  C_2
REMARK    2  A    between atoms: C_2  and  O_3
REMARK    3  A    between atoms: O_3  and  C_4
REMARK    4  A    between atoms: C_6  and  C_7
REMARK    5  A    between atoms: C_22  and  O_23
REMARK    6  A    between atoms: O_23  and  C_24
REMARK    7  A    between atoms: C_24  and  C_25
REMARK    8  A    between atoms: C_26  and  O_27
REMARK    9  A    between atoms: O_27  and  C_28
REMARK   10  A    between atoms: C_28  and  C_29
REMARK                            x       y       z     vdW  Elec       q    Type
REMARK                         _______ _______ _______ _____ _____    ______ ____
ROOT
ATOM      1  C   UNL     1       4.821   6.414  17.099  0.00  0.00    +0.000 A 
ATOM      2  C   UNL     1       3.871   7.139  17.830  0.00  0.00    +0.000 A 
ATOM      3  C   UNL     1       2.825   6.481  18.473  0.00  0.00    +0.000 A 
ATOM      4  C   UNL     1       2.535   5.169  18.105  0.00  0.00    +0.000 A 
ATOM      5  C   UNL     1       3.361   4.479  17.206  0.00  0.00    +0.000 A 
ATOM      6  C   UNL     1       4.567   5.065  16.772  0.00  0.00    +0.000 A 
ENDROOT
BRANCH   3   7
ATOM      7  C   UNL     1       2.029   7.105  19.566  0.00  0.00    +0.000 C 
ATOM      8  O   UNL     1       1.840   6.428  20.579  0.00  0.00    +0.000 OA
ATOM      9  N   UNL     1       1.612   8.440  19.469  0.00  0.00    +0.000 N 
ATOM     10  C   UNL     1       0.919   9.040  20.633  0.00  0.00    +0.000 C 
ATOM     11  C   UNL     1       1.283  10.537  20.834  0.00  0.00    +0.000 C 
ATOM     12  N   UNL     1       0.996  11.223  19.564  0.00  0.00    +0.000 N 
ATOM     13  C   UNL     1       0.724  12.581  19.573  0.00  0.00    +0.000 A 
ATOM     14  C   UNL     1       0.015  13.115  18.492  0.00  0.00    +0.000 A 
ATOM     15  C   UNL     1      -0.336  14.459  18.478  0.00  0.00    +0.000 A 
ATOM     16  C   UNL     1       0.035  15.252  19.551  0.00  0.00    +0.000 A 
ATOM     17  C   UNL     1       0.740  14.656  20.585  0.00  0.00    +0.000 A 
ATOM     18  N   UNL     1       1.081  13.346  20.621  0.00  0.00    +0.000 NA
ATOM     19  C   UNL     1       1.861  10.752  18.483  0.00  0.00    +0.000 C 
ATOM     20  C   UNL     1       1.562   9.268  18.247  0.00  0.00    +0.000 C 
ENDBRANCH   3   7
BRANCH   1  21
ATOM     21  O   UNL     1       5.986   7.031  16.693  0.00  0.00    +0.000 OA
BRANCH  21  23
ATOM     22  C   UNL     1       7.897   8.142  17.690  0.00  0.00    +0.000 C 
ATOM     23  C   UNL     1       7.075   6.870  17.619  0.00  0.00    +0.000 C 
ENDBRANCH  21  23
ENDBRANCH   1  21
BRANCH   5  24
ATOM     24  O   UNL     1       2.916   3.209  16.934  0.00  0.00    +0.000 OA
BRANCH  24  25
ATOM     25  C   UNL     1       2.477   2.436  18.052  0.00  0.00    +0.000 C 
ATOM     26  C   UNL     1       3.613   1.514  18.471  0.00  0.00    +0.000 C 
ENDBRANCH  24  25
ENDBRANCH   5  24
BRANCH   6  27
ATOM     27  O   UNL     1       5.424   4.271  16.048  0.00  0.00    +0.000 OA
BRANCH  27  28
ATOM     28  C   UNL     1       5.426   4.479  14.632  0.00  0.00    +0.000 C 
ATOM     29  C   UNL     1       6.847   4.741  14.173  0.00  0.00    +0.000 C 
ENDBRANCH  27  28
ENDBRANCH   6  27
TORSDOF 7
ENDMDL
MODEL 2
REMARK VINA RESULT:      -7.1      2.542      4.392
REMARK  Name = 
REMARK  10 active torsions:
REMARK  status: ('A' for Active; 'I' for Inactive)
REMARK    1  A    between atoms: C_1  and  C_2
REMARK    2  A    between atoms: C_2  and  O_3
REMARK    3  A    between atoms: O_3  and  C_4
REMARK    4  A    between atoms: C_6  and  C_7
REMARK    5  A    between atoms: C_22  and  O_23
REMARK    6  A    between atoms: O_23  and  C_24
REMARK    7  A    between atoms: C_24  and  C_25
REMARK    8  A    between atoms: C_26  and  O_27
REMARK    9  A    between atoms: O_27  and  C_28
REMARK   10  A    between atoms: C_28  and  C_29
REMARK                            x       y       z     vdW  Elec       q    Type
REMARK                         _______ _______ _______ _____ _____    ______ ____
ROOT
ATOM      1  C   UNL     1       2.268   5.346  19.537  0.00  0.00    +0.000 A 
ATOM      2  C   UNL     1       1.904   6.696  19.477  0.00  0.00    +0.000 A 
ATOM      3  C   UNL     1       2.567   7.567  18.615  0.00  0.00    +0.000 A 
ATOM      4  C   UNL     1       3.793   7.176  18.083  0.00  0.00    +0.000 A 
ATOM      5  C   UNL     1       4.287   5.881  18.301  0.00  0.00    +0.000 A 
ATOM      6  C   UNL     1       3.480   4.924  18.950  0.00  0.00    +0.000 A 
ENDROOT
BRANCH   3   7
ATOM      7  C   UNL     1       2.002   8.883  18.204  0.00  0.00    +0.000 C 
ATOM      8  O   UNL     1       2.163   9.219  17.028  0.00  0.00    +0.000 OA
ATOM      9  N   UNL     1       1.236   9.639  19.100  0.00  0.00    +0.000 N 
ATOM     10  C   UNL     1       0.608  10.885  18.602  0.00  0.00    +0.000 C 
ATOM     11  C   UNL     1      -0.790  11.138  19.231  0.00  0.00    +0.000 C 
ATOM     12  N   UNL     1      -0.615  11.115  20.692  0.00  0.00    +0.000 N 
ATOM     13  C   UNL     1      -1.515  11.796  21.494  0.00  0.00    +0.000 A 
ATOM     14  C   UNL     1      -1.102  12.159  22.781  0.00  0.00    +0.000 A 
ATOM     15  C   UNL     1      -1.944  12.895  23.606  0.00  0.00    +0.000 A 
ATOM     16  C   UNL     1      -3.194  13.252  23.129  0.00  0.00    +0.000 A 
ATOM     17  C   UNL     1      -3.537  12.853  21.846  0.00  0.00    +0.000 A 
ATOM     18  N   UNL     1      -2.727  12.146  21.024  0.00  0.00    +0.000 NA
ATOM     19  C   UNL     1      -0.204   9.795  21.169  0.00  0.00    +0.000 C 
ATOM     20  C   UNL     1       1.168   9.476  20.567  0.00  0.00    +0.000 C 
ENDBRANCH   3   7
BRANCH   1  21
ATOM     21  O   UNL     1       1.448   4.446  20.184  0.00  0.00    +0.000 OA
BRANCH  21  23
ATOM     22  C   UNL     1       1.804   2.489  21.573  0.00  0.00    +0.000 C 
ATOM     23  C   UNL     1       1.974   3.990  21.443  0.00  0.00    +0.000 C 
ENDBRANCH  21  23
ENDBRANCH   1  21
BRANCH   5  24
ATOM     24  O   UNL     1       5.517   5.671  17.730  0.00  0.00    +0.000 OA
BRANCH  24  25
ATOM     25  C   UNL     1       6.061   6.756  16.975  0.00  0.00    +0.000 C 
ATOM     26  C   UNL     1       7.455   7.055  17.505  0.00  0.00    +0.000 C 
ENDBRANCH  24  25
ENDBRANCH   5  24
BRANCH   6  27
ATOM     27  O   UNL     1       3.935   3.628  18.965  0.00  0.00    +0.000 OA
BRANCH  27  28
ATOM     28  C   UNL     1       3.767   2.890  17.750  0.00  0.00    +0.000 C 
ATOM     29  C   UNL     1       2.467   2.115  17.818  0.00  0.00    +0.000 C 
ENDBRANCH  27  28
ENDBRANCH   6  27
TORSDOF 7
ENDMDL
MODEL 3
REMARK VINA RESULT:      -6.9      2.521      4.400
REMARK  Name = 
REMARK  10 active torsions:
REMARK  status: ('A' for Active; 'I' for Inactive)
REMARK    1  A    between atoms: C_1  and  C_2
REMARK    2  A    between atoms: C_2  and  O_3
REMARK    3  A    between atoms: O_3  and  C_4
REMARK    4  A    between atoms: C_6  and  C_7
REMARK    5  A    between atoms: C_22  and  O_23
REMARK    6  A    between atoms: O_23  and  C_24
REMARK    7  A    between atoms: C_24  and  C_25
REMARK    8  A    between atoms: C_26  and  O_27
REMARK    9  A    between atoms: O_27  and  C_28
REMARK   10  A    between atoms: C_28  and  C_29
REMARK                            x       y       z     vdW  Elec       q    Type
REMARK                         _______ _______ _______ _____ _____    ______ ____
ROOT
ATOM      1  C   UNL     1       2.784   4.086  18.880  0.00  0.00    +0.000 A 
ATOM      2  C   UNL     1       2.285   5.384  18.716  0.00  0.00    +0.000 A 
ATOM      3  C   UNL     1       3.157   6.465  18.607  0.00  0.00    +0.000 A 
ATOM      4  C   UNL     1       4.481   6.298  19.005  0.00  0.00    +0.000 A 
ATOM      5  C   UNL     1       4.962   5.035  19.377  0.00  0.00    +0.000 A 
ATOM      6  C   UNL     1       4.140   3.899  19.224  0.00  0.00    +0.000 A 
ENDROOT
BRANCH   3   7
ATOM      7  C   UNL     1       2.745   7.782  18.047  0.00  0.00    +0.000 C 
ATOM      8  O   UNL     1       3.034   8.006  16.869  0.00  0.00    +0.000 OA
ATOM      9  N   UNL     1       1.972   8.669  18.809  0.00  0.00    +0.000 N 
ATOM     10  C   UNL     1       1.498   9.914  18.162  0.00  0.00    +0.000 C 
ATOM     11  C   UNL     1       0.078  10.328  18.637  0.00  0.00    +0.000 C 
ATOM     12  N   UNL     1       0.124  10.412  20.105  0.00  0.00    +0.000 N 
ATOM     13  C   UNL     1      -0.780  11.227  20.767  0.00  0.00    +0.000 A 
ATOM     14  C   UNL     1      -0.450  11.662  22.055  0.00  0.00    +0.000 A 
ATOM     15  C   UNL     1      -1.293  12.528  22.741  0.00  0.00    +0.000 A 
ATOM     16  C   UNL     1      -2.463  12.941  22.124  0.00  0.00    +0.000 A 
ATOM     17  C   UNL     1      -2.727  12.465  20.849  0.00  0.00    +0.000 A 
ATOM     18  N   UNL     1      -1.912  11.630  20.161  0.00  0.00    +0.000 NA
ATOM     19  C   UNL     1       0.378   9.109  20.718  0.00  0.00    +0.000 C 
ATOM     20  C   UNL     1       1.764   8.634  20.271  0.00  0.00    +0.000 C 
ENDBRANCH   3   7
BRANCH   1  21
ATOM     21  O   UNL     1       1.942   3.005  18.722  0.00  0.00    +0.000 OA
BRANCH  21  23
ATOM     22  C   UNL     1       1.121   3.009  21.004  0.00  0.00    +0.000 C 
ATOM     23  C   UNL     1       0.756   3.076  19.534  0.00  0.00    +0.000 C 
ENDBRANCH  21  23
ENDBRANCH   1  21
BRANCH   5  24
ATOM     24  O   UNL     1       6.279   5.053  19.765  0.00  0.00    +0.000 OA
BRANCH  24  25
ATOM     25  C   UNL     1       7.201   5.654  18.855  0.00  0.00    +0.000 C 
ATOM     26  C   UNL     1       7.518   4.646  17.760  0.00  0.00    +0.000 C 
ENDBRANCH  24  25
ENDBRANCH   5  24
BRANCH   6  27
ATOM     27  O   UNL     1       4.725   2.672  19.422  0.00  0.00    +0.000 OA
BRANCH  27  28
ATOM     28  C   UNL     1       4.373   1.999  20.635  0.00  0.00    +0.000 C 
ATOM     29  C   UNL     1       5.459   0.997  20.977  0.00  0.00    +0.000 C 
ENDBRANCH  27  28
ENDBRANCH   6  27
TORSDOF 7
ENDMDL
MODEL 4
REMARK VINA RESULT:      -6.9      2.142      4.245
REMARK  Name = 
REMARK  10 active torsions:
REMARK  status: ('A' for Active; 'I' for Inactive)
REMARK    1  A    between atoms: C_1  and  C_2
REMARK    2  A    between atoms: C_2  and  O_3
REMARK    3  A    between atoms: O_3  and  C_4
REMARK    4  A    between atoms: C_6  and  C_7
REMARK    5  A    between atoms: C_22  and  O_23
REMARK    6  A    between atoms: O_23  and  C_24
REMARK    7  A    between atoms: C_24  and  C_25
REMARK    8  A    between atoms: C_26  and  O_27
REMARK    9  A    between atoms: O_27  and  C_28
REMARK   10  A    between atoms: C_28  and  C_29
REMARK                            x       y       z     vdW  Elec       q    Type
REMARK                         _______ _______ _______ _____ _____    ______ ____
ROOT
ATOM      1  C   UNL     1       2.239   4.265  18.525  0.00  0.00    +0.000 A 
ATOM      2  C   UNL     1       2.178   5.658  18.648  0.00  0.00    +0.000 A 
ATOM      3  C   UNL     1       3.080   6.466  17.960  0.00  0.00    +0.000 A 
ATOM      4  C   UNL     1       4.235   5.885  17.440  0.00  0.00    +0.000 A 
ATOM      5  C   UNL     1       4.421   4.496  17.489  0.00  0.00    +0.000 A 
ATOM      6  C   UNL     1       3.377   3.666  17.945  0.00  0.00    +0.000 A 
ENDROOT
BRANCH   3   7
ATOM      7  C   UNL     1       2.846   7.917  17.720  0.00  0.00    +0.000 C 
ATOM      8  O   UNL     1       3.281   8.389  16.666  0.00  0.00    +0.000 OA
ATOM      9  N   UNL     1       2.073   8.670  18.614  0.00  0.00    +0.000 N 
ATOM     10  C   UNL     1       1.781  10.081  18.267  0.00  0.00    +0.000 C 
ATOM     11  C   UNL     1       0.359  10.519  18.711  0.00  0.00    +0.000 C 
ATOM     12  N   UNL     1       0.251  10.237  20.151  0.00  0.00    +0.000 N 
ATOM     13  C   UNL     1      -0.646  10.959  20.919  0.00  0.00    +0.000 A 
ATOM     14  C   UNL     1      -0.423  11.028  22.299  0.00  0.00    +0.000 A 
ATOM     15  C   UNL     1      -1.259  11.787  23.108  0.00  0.00    +0.000 A 
ATOM     16  C   UNL     1      -2.314  12.464  22.520  0.00  0.00    +0.000 A 
ATOM     17  C   UNL     1      -2.477  12.347  21.149  0.00  0.00    +0.000 A 
ATOM     18  N   UNL     1      -1.667  11.621  20.342  0.00  0.00    +0.000 NA
ATOM     19  C   UNL     1       0.324   8.804  20.431  0.00  0.00    +0.000 C 
ATOM     20  C   UNL     1       1.705   8.303  19.996  0.00  0.00    +0.000 C 
ENDBRANCH   3   7
BRANCH   1  21
ATOM     21  O   UNL     1       1.195   3.492  18.989  0.00  0.00    +0.000 OA
BRANCH  21  23
ATOM     22  C   UNL     1       1.282   2.918  21.344  0.00  0.00    +0.000 C 
ATOM     23  C   UNL     1       0.736   3.871  20.299  0.00  0.00    +0.000 C 
ENDBRANCH  21  23
ENDBRANCH   1  21
BRANCH   5  24
ATOM     24  O   UNL     1       5.621   4.095  16.957  0.00  0.00    +0.000 OA
BRANCH  24  25
ATOM     25  C   UNL     1       6.451   5.124  16.414  0.00  0.00    +0.000 C 
ATOM     26  C   UNL     1       6.799   4.749  14.981  0.00  0.00    +0.000 C 
ENDBRANCH  24  25
ENDBRANCH   5  24
BRANCH   6  27
ATOM     27  O   UNL     1       3.543   2.310  17.792  0.00  0.00    +0.000 OA
BRANCH  27  28
ATOM     28  C   UNL     1       3.610   1.546  19.000  0.00  0.00    +0.000 C 
ATOM     29  C   UNL     1       4.595   2.203  19.946  0.00  0.00    +0.000 C 
ENDBRANCH  27  28
ENDBRANCH   6  27
TORSDOF 7
ENDMDL
MODEL 5
REMARK VINA RESULT:      -6.9      2.686      4.427
REMARK  Name = 
REMARK  10 active torsions:
REMARK  status: ('A' for Active; 'I' for Inactive)
REMARK    1  A    between atoms: C_1  and  C_2
REMARK    2  A    between atoms: C_2  and  O_3
REMARK    3  A    between atoms: O_3  and  C_4
REMARK    4  A    between atoms: C_6  and  C_7
REMARK    5  A    between atoms: C_22  and  O_23
REMARK    6  A    between atoms: O_23  and  C_24
REMARK    7  A    between atoms: C_24  and  C_25
REMARK    8  A    between atoms: C_26  and  O_27
REMARK    9  A    between atoms: O_27  and  C_28
REMARK   10  A    between atoms: C_28  and  C_29
REMARK                            x       y       z     vdW  Elec       q    Type
REMARK                         _______ _______ _______ _____ _____    ______ ____
ROOT
ATOM      1  C   UNL     1       2.433   5.856  19.796  0.00  0.00    +0.000 A 
ATOM      2  C   UNL     1       2.226   7.239  19.718  0.00  0.00    +0.000 A 
ATOM      3  C   UNL     1       2.537   7.933  18.551  0.00  0.00    +0.000 A 
ATOM      4  C   UNL     1       3.361   7.321  17.609  0.00  0.00    +0.000 A 
ATOM      5  C   UNL     1       3.759   5.985  17.767  0.00  0.00    +0.000 A 
ATOM      6  C   UNL     1       3.217   5.213  18.814  0.00  0.00    +0.000 A 
ENDROOT
BRANCH   3   7
ATOM      7  C   UNL     1       1.994   9.286  18.246  0.00  0.00    +0.000 C 
ATOM      8  O   UNL     1       2.231   9.746  17.126  0.00  0.00    +0.000 OA
ATOM      9  N   UNL     1       1.166   9.944  19.166  0.00  0.00    +0.000 N 
ATOM     10  C   UNL     1       0.565  11.237  18.764  0.00  0.00    +0.000 C 
ATOM     11  C   UNL     1      -0.872  11.423  19.322  0.00  0.00    +0.000 C 
ATOM     12  N   UNL     1      -0.794  11.243  20.780  0.00  0.00    +0.000 N 
ATOM     13  C   UNL     1      -1.749  11.836  21.589  0.00  0.00    +0.000 A 
ATOM     14  C   UNL     1      -1.425  12.059  22.932  0.00  0.00    +0.000 A 
ATOM     15  C   UNL     1      -2.323  12.703  23.773  0.00  0.00    +0.000 A 
ATOM     16  C   UNL     1      -3.540  13.111  23.255  0.00  0.00    +0.000 A 
ATOM     17  C   UNL     1      -3.795  12.853  21.917  0.00  0.00    +0.000 A 
ATOM     18  N   UNL     1      -2.929  12.237  21.079  0.00  0.00    +0.000 NA
ATOM     19  C   UNL     1      -0.409   9.879  21.140  0.00  0.00    +0.000 C 
ATOM     20  C   UNL     1       1.002   9.624  20.599  0.00  0.00    +0.000 C 
ENDBRANCH   3   7
BRANCH   1  21
ATOM     21  O   UNL     1       1.885   5.141  20.840  0.00  0.00    +0.000 OA
BRANCH  21  23
ATOM     22  C   UNL     1       1.170   2.856  21.223  0.00  0.00    +0.000 C 
ATOM     23  C   UNL     1       0.961   4.123  20.418  0.00  0.00    +0.000 C 
ENDBRANCH  21  23
ENDBRANCH   1  21
BRANCH   5  24
ATOM     24  O   UNL     1       4.589   5.549  16.764  0.00  0.00    +0.000 OA
BRANCH  24  25
ATOM     25  C   UNL     1       5.971   5.888  16.891  0.00  0.00    +0.000 C 
ATOM     26  C   UNL     1       6.798   4.664  16.527  0.00  0.00    +0.000 C 
ENDBRANCH  24  25
ENDBRANCH   5  24
BRANCH   6  27
ATOM     27  O   UNL     1       3.492   3.866  18.806  0.00  0.00    +0.000 OA
BRANCH  27  28
ATOM     28  C   UNL     1       4.705   3.471  19.456  0.00  0.00    +0.000 C 
ATOM     29  C   UNL     1       4.500   2.115  20.101  0.00  0.00    +0.000 C 
ENDBRANCH  27  28
ENDBRANCH   6  27
TORSDOF 7
ENDMDL
MODEL 6
REMARK VINA RESULT:      -6.7      2.474      4.266
REMARK  Name = 
REMARK  10 active torsions:
REMARK  status: ('A' for Active; 'I' for Inactive)
REMARK    1  A    between atoms: C_1  and  C_2
REMARK    2  A    between atoms: C_2  and  O_3
REMARK    3  A    between atoms: O_3  and  C_4
REMARK    4  A    between atoms: C_6  and  C_7
REMARK    5  A    between atoms: C_22  and  O_23
REMARK    6  A    between atoms: O_23  and  C_24
REMARK    7  A    between atoms: C_24  and  C_25
REMARK    8  A    between atoms: C_26  and  O_27
REMARK    9  A    between atoms: O_27  and  C_28
REMARK   10  A    between atoms: C_28  and  C_29
REMARK                            x       y       z     vdW  Elec       q    Type
REMARK                         _______ _______ _______ _____ _____    ______ ____
ROOT
ATOM      1  C   UNL     1       2.267   4.300  19.515  0.00  0.00    +0.000 A 
ATOM      2  C   UNL     1       1.928   5.649  19.354  0.00  0.00    +0.000 A 
ATOM      3  C   UNL     1       2.856   6.551  18.840  0.00  0.00    +0.000 A 
ATOM      4  C   UNL     1       4.200   6.187  18.817  0.00  0.00    +0.000 A 
ATOM      5  C   UNL     1       4.596   4.890  19.176  0.00  0.00    +0.000 A 
ATOM      6  C   UNL     1       3.620   3.907  19.434  0.00  0.00    +0.000 A 
ENDROOT
BRANCH   3   7
ATOM      7  C   UNL     1       2.470   7.875  18.277  0.00  0.00    +0.000 C 
ATOM      8  O   UNL     1       2.759   8.088  17.096  0.00  0.00    +0.000 OA
ATOM      9  N   UNL     1       1.718   8.780  19.038  0.00  0.00    +0.000 N 
ATOM     10  C   UNL     1       1.268  10.033  18.388  0.00  0.00    +0.000 C 
ATOM     11  C   UNL     1      -0.141  10.478  18.868  0.00  0.00    +0.000 C 
ATOM     12  N   UNL     1      -0.087  10.567  20.336  0.00  0.00    +0.000 N 
ATOM     13  C   UNL     1      -0.971  11.402  20.998  0.00  0.00    +0.000 A 
ATOM     14  C   UNL     1      -0.627  11.836  22.283  0.00  0.00    +0.000 A 
ATOM     15  C   UNL     1      -1.449  12.721  22.969  0.00  0.00    +0.000 A 
ATOM     16  C   UNL     1      -2.611  13.157  22.355  0.00  0.00    +0.000 A 
ATOM     17  C   UNL     1      -2.891  12.682  21.083  0.00  0.00    +0.000 A 
ATOM     18  N   UNL     1      -2.097  11.828  20.395  0.00  0.00    +0.000 NA
ATOM     19  C   UNL     1       0.142   9.261  20.952  0.00  0.00    +0.000 C 
ATOM     20  C   UNL     1       1.516   8.755  20.501  0.00  0.00    +0.000 C 
ENDBRANCH   3   7
BRANCH   1  21
ATOM     21  O   UNL     1       1.278   3.373  19.769  0.00  0.00    +0.000 OA
BRANCH  21  23
ATOM     22  C   UNL     1       1.608   2.289  21.913  0.00  0.00    +0.000 C 
ATOM     23  C   UNL     1       0.849   3.350  21.142  0.00  0.00    +0.000 C 
ENDBRANCH  21  23
ENDBRANCH   1  21
BRANCH   5  24
ATOM     24  O   UNL     1       5.956   4.709  19.123  0.00  0.00    +0.000 OA
BRANCH  24  25
ATOM     25  C   UNL     1       6.668   5.512  18.180  0.00  0.00    +0.000 C 
ATOM     26  C   UNL     1       7.579   4.603  17.369  0.00  0.00    +0.000 C 
ENDBRANCH  24  25
ENDBRANCH   5  24
BRANCH   6  27
ATOM     27  O   UNL     1       4.059   2.614  19.591  0.00  0.00    +0.000 OA
BRANCH  27  28
ATOM     28  C   UNL     1       3.662   1.689  18.574  0.00  0.00    +0.000 C 
ATOM     29  C   UNL     1       3.829   2.345  17.217  0.00  0.00    +0.000 C 
ENDBRANCH  27  28
ENDBRANCH   6  27
TORSDOF 7
ENDMDL
MODEL 7
REMARK VINA RESULT:      -6.7      2.384      3.316
REMARK  Name = 
REMARK  10 active torsions:
REMARK  status: ('A' for Active; 'I' for Inactive)
REMARK    1  A    between atoms: C_1  and  C_2
REMARK    2  A    between atoms: C_2  and  O_3
REMARK    3  A    between atoms: O_3  and  C_4
REMARK    4  A    between atoms: C_6  and  C_7
REMARK    5  A    between atoms: C_22  and  O_23
REMARK    6  A    between atoms: O_23  and  C_24
REMARK    7  A    between atoms: C_24  and  C_25
REMARK    8  A    between atoms: C_26  and  O_27
REMARK    9  A    between atoms: O_27  and  C_28
REMARK   10  A    between atoms: C_28  and  C_29
REMARK                            x       y       z     vdW  Elec       q    Type
REMARK                         _______ _______ _______ _____ _____    ______ ____
ROOT
ATOM      1  C   UNL     1       4.889   4.673  18.590  0.00  0.00    +0.000 A 
ATOM      2  C   UNL     1       4.512   5.833  17.902  0.00  0.00    +0.000 A 
ATOM      3  C   UNL     1       3.257   6.400  18.114  0.00  0.00    +0.000 A 
ATOM      4  C   UNL     1       2.272   5.633  18.731  0.00  0.00    +0.000 A 
ATOM      5  C   UNL     1       2.574   4.366  19.252  0.00  0.00    +0.000 A 
ATOM      6  C   UNL     1       3.911   3.918  19.272  0.00  0.00    +0.000 A 
ENDROOT
BRANCH   3   7
ATOM      7  C   UNL     1       2.934   7.806  17.744  0.00  0.00    +0.000 C 
ATOM      8  O   UNL     1       3.296   8.191  16.630  0.00  0.00    +0.000 OA
ATOM      9  N   UNL     1       2.160   8.606  18.597  0.00  0.00    +0.000 N 
ATOM     10  C   UNL     1       1.776   9.958  18.128  0.00  0.00    +0.000 C 
ATOM     11  C   UNL     1       0.352  10.366  18.594  0.00  0.00    +0.000 C 
ATOM     12  N   UNL     1       0.322  10.225  20.058  0.00  0.00    +0.000 N 
ATOM     13  C   UNL     1      -0.580  10.974  20.795  0.00  0.00    +0.000 A 
ATOM     14  C   UNL     1      -0.302  11.192  22.149  0.00  0.00    +0.000 A 
ATOM     15  C   UNL     1      -1.143  11.986  22.919  0.00  0.00    +0.000 A 
ATOM     16  C   UNL     1      -2.258  12.547  22.319  0.00  0.00    +0.000 A 
ATOM     17  C   UNL     1      -2.473  12.284  20.975  0.00  0.00    +0.000 A 
ATOM     18  N   UNL     1      -1.659  11.523  20.206  0.00  0.00    +0.000 NA
ATOM     19  C   UNL     1       0.486   8.832  20.474  0.00  0.00    +0.000 C 
ATOM     20  C   UNL     1       1.872   8.360  20.024  0.00  0.00    +0.000 C 
ENDBRANCH   3   7
BRANCH   1  21
ATOM     21  O   UNL     1       6.208   4.271  18.579  0.00  0.00    +0.000 OA
BRANCH  21  23
ATOM     22  C   UNL     1       7.865   5.947  19.150  0.00  0.00    +0.000 C 
ATOM     23  C   UNL     1       7.105   5.256  18.035  0.00  0.00    +0.000 C 
ENDBRANCH  21  23
ENDBRANCH   1  21
BRANCH   5  24
ATOM     24  O   UNL     1       1.485   3.737  19.802  0.00  0.00    +0.000 OA
BRANCH  24  25
ATOM     25  C   UNL     1       1.355   3.816  21.223  0.00  0.00    +0.000 C 
ATOM     26  C   UNL     1       1.442   2.407  21.789  0.00  0.00    +0.000 C 
ENDBRANCH  24  25
ENDBRANCH   5  24
BRANCH   6  27
ATOM     27  O   UNL     1       4.172   2.759  19.963  0.00  0.00    +0.000 OA
BRANCH  27  28
ATOM     28  C   UNL     1       4.235   1.563  19.180  0.00  0.00    +0.000 C 
ATOM     29  C   UNL     1       3.444   1.766  17.903  0.00  0.00    +0.000 C 
ENDBRANCH  27  28
ENDBRANCH   6  27
TORSDOF 7
ENDMDL
MODEL 8
REMARK VINA RESULT:      -6.6      2.566      3.662
REMARK  Name = 
REMARK  10 active torsions:
REMARK  status: ('A' for Active; 'I' for Inactive)
REMARK    1  A    between atoms: C_1  and  C_2
REMARK    2  A    between atoms: C_2  and  O_3
REMARK    3  A    between atoms: O_3  and  C_4
REMARK    4  A    between atoms: C_6  and  C_7
REMARK    5  A    between atoms: C_22  and  O_23
REMARK    6  A    between atoms: O_23  and  C_24
REMARK    7  A    between atoms: C_24  and  C_25
REMARK    8  A    between atoms: C_26  and  O_27
REMARK    9  A    between atoms: O_27  and  C_28
REMARK   10  A    between atoms: C_28  and  C_29
REMARK                            x       y       z     vdW  Elec       q    Type
REMARK                         _______ _______ _______ _____ _____    ______ ____
ROOT
ATOM      1  C   UNL     1       4.301   5.712  18.116  0.00  0.00    +0.000 A 
ATOM      2  C   UNL     1       3.642   6.845  17.623  0.00  0.00    +0.000 A 
ATOM      3  C   UNL     1       2.682   7.493  18.397  0.00  0.00    +0.000 A 
ATOM      4  C   UNL     1       2.142   6.823  19.493  0.00  0.00    +0.000 A 
ATOM      5  C   UNL     1       2.650   5.577  19.890  0.00  0.00    +0.000 A 
ATOM      6  C   UNL     1       3.800   5.057  19.261  0.00  0.00    +0.000 A 
ENDROOT
BRANCH   3   7
ATOM      7  C   UNL     1       2.235   8.888  18.129  0.00  0.00    +0.000 C 
ATOM      8  O   UNL     1       2.539   9.375  17.037  0.00  0.00    +0.000 OA
ATOM      9  N   UNL     1       1.418   9.562  19.047  0.00  0.00    +0.000 N 
ATOM     10  C   UNL     1       0.913  10.905  18.676  0.00  0.00    +0.000 C 
ATOM     11  C   UNL     1      -0.529  11.161  19.194  0.00  0.00    +0.000 C 
ATOM     12  N   UNL     1      -0.513  10.922  20.645  0.00  0.00    +0.000 N 
ATOM     13  C   UNL     1      -1.457  11.543  21.446  0.00  0.00    +0.000 A 
ATOM     14  C   UNL     1      -1.167  11.695  22.806  0.00  0.00    +0.000 A 
ATOM     15  C   UNL     1      -2.053  12.362  23.643  0.00  0.00    +0.000 A 
ATOM     16  C   UNL     1      -3.224  12.866  23.101  0.00  0.00    +0.000 A 
ATOM     17  C   UNL     1      -3.447  12.676  21.746  0.00  0.00    +0.000 A 
ATOM     18  N   UNL     1      -2.591  12.037  20.914  0.00  0.00    +0.000 NA
ATOM     19  C   UNL     1      -0.226   9.524  20.963  0.00  0.00    +0.000 C 
ATOM     20  C   UNL     1       1.184   9.200  20.459  0.00  0.00    +0.000 C 
ENDBRANCH   3   7
BRANCH   1  21
ATOM     21  O   UNL     1       5.422   5.238  17.467  0.00  0.00    +0.000 OA
BRANCH  21  23
ATOM     22  C   UNL     1       6.379   4.909  15.263  0.00  0.00    +0.000 C 
ATOM     23  C   UNL     1       5.154   4.746  16.141  0.00  0.00    +0.000 C 
ENDBRANCH  21  23
ENDBRANCH   1  21
BRANCH   5  24
ATOM     24  O   UNL     1       1.988   5.046  20.969  0.00  0.00    +0.000 OA
BRANCH  24  25
ATOM     25  C   UNL     1       1.048   4.007  20.689  0.00  0.00    +0.000 C 
ATOM     26  C   UNL     1       1.405   2.797  21.539  0.00  0.00    +0.000 C 
ENDBRANCH  24  25
ENDBRANCH   5  24
BRANCH   6  27
ATOM     27  O   UNL     1       4.363   3.933  19.816  0.00  0.00    +0.000 OA
BRANCH  27  28
ATOM     28  C   UNL     1       4.112   2.703  19.130  0.00  0.00    +0.000 C 
ATOM     29  C   UNL     1       4.641   1.554  19.965  0.00  0.00    +0.000 C 
ENDBRANCH  27  28
ENDBRANCH   6  27
TORSDOF 7
ENDMDL
MODEL 9
REMARK VINA RESULT:      -6.6      3.836      9.336
REMARK  Name = 
REMARK  10 active torsions:
REMARK  status: ('A' for Active; 'I' for Inactive)
REMARK    1  A    between atoms: C_1  and  C_2
REMARK    2  A    between atoms: C_2  and  O_3
REMARK    3  A    between atoms: O_3  and  C_4
REMARK    4  A    between atoms: C_6  and  C_7
REMARK    5  A    between atoms: C_22  and  O_23
REMARK    6  A    between atoms: O_23  and  C_24
REMARK    7  A    between atoms: C_24  and  C_25
REMARK    8  A    between atoms: C_26  and  O_27
REMARK    9  A    between atoms: O_27  and  C_28
REMARK   10  A    between atoms: C_28  and  C_29
REMARK                            x       y       z     vdW  Elec       q    Type
REMARK                         _______ _______ _______ _____ _____    ______ ____
ROOT
ATOM      1  C   UNL     1      -1.852  11.275  18.911  0.00  0.00    +0.000 A 
ATOM      2  C   UNL     1      -0.786  10.438  19.259  0.00  0.00    +0.000 A 
ATOM      3  C   UNL     1      -0.416  10.287  20.593  0.00  0.00    +0.000 A 
ATOM      4  C   UNL     1      -0.871  11.220  21.522  0.00  0.00    +0.000 A 
ATOM      5  C   UNL     1      -1.792  12.210  21.150  0.00  0.00    +0.000 A 
ATOM      6  C   UNL     1      -2.364  12.184  19.861  0.00  0.00    +0.000 A 
ENDROOT
BRANCH   3   7
ATOM      7  C   UNL     1       0.414   9.149  21.078  0.00  0.00    +0.000 C 
ATOM      8  O   UNL     1       0.201   8.748  22.226  0.00  0.00    +0.000 OA
ATOM      9  N   UNL     1       1.316   8.509  20.217  0.00  0.00    +0.000 N 
ATOM     10  C   UNL     1       2.032   7.313  20.721  0.00  0.00    +0.000 C 
ATOM     11  C   UNL     1       2.242   6.239  19.619  0.00  0.00    +0.000 C 
ATOM     12  N   UNL     1       2.927   6.902  18.498  0.00  0.00    +0.000 N 
ATOM     13  C   UNL     1       3.692   6.145  17.626  0.00  0.00    +0.000 A 
ATOM     14  C   UNL     1       4.682   6.798  16.884  0.00  0.00    +0.000 A 
ATOM     15  C   UNL     1       5.516   6.078  16.039  0.00  0.00    +0.000 A 
ATOM     16  C   UNL     1       5.342   4.707  15.947  0.00  0.00    +0.000 A 
ATOM     17  C   UNL     1       4.340   4.127  16.709  0.00  0.00    +0.000 A 
ATOM     18  N   UNL     1       3.523   4.811  17.545  0.00  0.00    +0.000 NA
ATOM     19  C   UNL     1       2.092   7.933  17.884  0.00  0.00    +0.000 C 
ATOM     20  C   UNL     1       1.831   9.020  18.931  0.00  0.00    +0.000 C 
ENDBRANCH   3   7
BRANCH   1  21
ATOM     21  O   UNL     1      -2.379  11.217  17.637  0.00  0.00    +0.000 OA
BRANCH  21  23
ATOM     22  C   UNL     1      -2.797   9.951  15.611  0.00  0.00    +0.000 C 
ATOM     23  C   UNL     1      -2.314   9.906  17.047  0.00  0.00    +0.000 C 
ENDBRANCH  21  23
ENDBRANCH   1  21
BRANCH   5  24
ATOM     24  O   UNL     1      -2.113  13.060  22.178  0.00  0.00    +0.000 OA
BRANCH  24  25
ATOM     25  C   UNL     1      -2.748  12.470  23.315  0.00  0.00    +0.000 C 
ATOM     26  C   UNL     1      -3.678  13.504  23.932  0.00  0.00    +0.000 C 
ENDBRANCH  24  25
ENDBRANCH   5  24
BRANCH   6  27
ATOM     27  O   UNL     1      -3.396  13.057  19.618  0.00  0.00    +0.000 OA
BRANCH  27  28
ATOM     28  C   UNL     1      -4.701  12.605  19.991  0.00  0.00    +0.000 C 
ATOM     29  C   UNL     1      -5.497  12.300  18.737  0.00  0.00    +0.000 C 
ENDBRANCH  27  28
ENDBRANCH   6  27
TORSDOF 7
ENDMDL
