MODEL 1
REMARK VINA RESULT:      -9.0      0.000      0.000
REMARK  Name = 
REMARK  7 active torsions:
REMARK  status: ('A' for Active; 'I' for Inactive)
REMARK    1  A    between atoms: C_2  and  C_7
REMARK    2  A    between atoms: N_3  and  C_4
REMARK    3  A    between atoms: C_4  and  C_5
REMARK    4  A    between atoms: C_5  and  O_6
REMARK    5  A    between atoms: C_18  and  C_19
REMARK    6  A    between atoms: C_19  and  C_20
REMARK    7  A    between atoms: C_25  and  C_26
REMARK                            x       y       z     vdW  Elec       q    Type
REMARK                         _______ _______ _______ _____ _____    ______ ____
ROOT
ATOM      1  C   UNL     1       0.518  11.107  20.044  0.00  0.00    +0.000 A 
ATOM      2  C   UNL     1       0.061  10.992  21.365  0.00  0.00    +0.000 A 
ATOM      3  C   UNL     1       0.225   9.796  22.070  0.00  0.00    +0.000 A 
ATOM      4  C   UNL     1       0.839   8.697  21.464  0.00  0.00    +0.000 A 
ATOM      5  C   UNL     1       1.280   8.792  20.151  0.00  0.00    +0.000 A 
ATOM      6  C   UNL     1       1.108   9.994  19.448  0.00  0.00    +0.000 A 
ATOM      7  C   UNL     1       1.730   9.867  18.099  0.00  0.00    +0.000 C 
ATOM      8  C   UNL     1       2.023   8.360  18.020  0.00  0.00    +0.000 C 
ATOM      9  N   UNL     1       1.933   7.803  19.378  0.00  0.00    +0.000 N 
ATOM     10  C   UNL     1       2.192   6.458  19.649  0.00  0.00    +0.000 A 
ATOM     11  C   UNL     1       2.699   5.594  18.676  0.00  0.00    +0.000 A 
ATOM     12  C   UNL     1       2.945   4.242  18.959  0.00  0.00    +0.000 A 
ATOM     13  C   UNL     1       2.652   3.800  20.234  0.00  0.00    +0.000 A 
ATOM     14  N   UNL     1       2.184   4.623  21.183  0.00  0.00    +0.000 NA
ATOM     15  N   UNL     1       1.966   5.950  20.880  0.00  0.00    +0.000 NA
ENDROOT
BRANCH   1  17
ATOM     16  O   UNL     1      -0.557  12.606  18.561  0.00  0.00    +0.000 OA
ATOM     17  C   UNL     1       0.383  12.401  19.315  0.00  0.00    +0.000 C 
ATOM     18  N   UNL     1       1.394  13.307  19.549  0.00  0.00    +0.000 N 
ATOM     19  H   UNL     1       2.216  13.015  20.059  0.00  0.00    +0.000 HD
BRANCH  18  20
ATOM     20  C   UNL     1       1.438  14.605  18.894  0.00  0.00    +0.000 C 
BRANCH  20  21
ATOM     21  C   UNL     1       0.420  15.581  19.483  0.00  0.00    +0.000 C 
BRANCH  21  22
ATOM     22  O   UNL     1      -0.728  15.666  18.637  0.00  0.00    +0.000 OA
ATOM     23  H   UNL     1      -1.378  16.201  19.124  0.00  0.00    +0.000 HD
ENDBRANCH  21  22
ENDBRANCH  20  21
ENDBRANCH  18  20
ENDBRANCH   1  17
BRANCH  12  24
ATOM     24  C   UNL     1       3.503   3.312  17.915  0.00  0.00    +0.000 C 
BRANCH  24  25
ATOM     25  C   UNL     1       4.785   3.797  17.277  0.00  0.00    +0.000 A 
ATOM     26  C   UNL     1       5.846   4.252  18.071  0.00  0.00    +0.000 A 
ATOM     27  C   UNL     1       7.016   4.713  17.473  0.00  0.00    +0.000 A 
ATOM     28  F   UNL     1       8.020   5.148  18.244  0.00  0.00    +0.000 F 
ATOM     29  C   UNL     1       7.162   4.725  16.093  0.00  0.00    +0.000 A 
ATOM     30  C   UNL     1       6.121   4.264  15.276  0.00  0.00    +0.000 A 
ATOM     31  C   UNL     1       4.934   3.807  15.880  0.00  0.00    +0.000 A 
BRANCH  30  32
ATOM     32  C   UNL     1       6.267   4.245  13.773  0.00  0.00    +0.000 C 
ATOM     33  F   UNL     1       5.093   4.436  13.110  0.00  0.00    +0.000 F 
ATOM     34  F   UNL     1       7.110   5.216  13.325  0.00  0.00    +0.000 F 
ATOM     35  F   UNL     1       6.771   3.068  13.315  0.00  0.00    +0.000 F 
ENDBRANCH  30  32
ENDBRANCH  24  25
ENDBRANCH  12  24
TORSDOF 7
ENDMDL
MODEL 2
REMARK VINA RESULT:      -8.9      0.805      1.089
REMARK  Name = 
REMARK  7 active torsions:
REMARK  status: ('A' for Active; 'I' for Inactive)
REMARK    1  A    between atoms: C_2  and  C_7
REMARK    2  A    between atoms: N_3  and  C_4
REMARK    3  A    between atoms: C_4  and  C_5
REMARK    4  A    between atoms: C_5  and  O_6
REMARK    5  A    between atoms: C_18  and  C_19
REMARK    6  A    between atoms: C_19  and  C_20
REMARK    7  A    between atoms: C_25  and  C_26
REMARK                            x       y       z     vdW  Elec       q    Type
REMARK                         _______ _______ _______ _____ _____    ______ ____
ROOT
ATOM      1  C   UNL     1       0.495  11.115  20.014  0.00  0.00    +0.000 A 
ATOM      2  C   UNL     1      -0.001  11.011  21.322  0.00  0.00    +0.000 A 
ATOM      3  C   UNL     1       0.141   9.821  22.041  0.00  0.00    +0.000 A 
ATOM      4  C   UNL     1       0.770   8.716  21.462  0.00  0.00    +0.000 A 
ATOM      5  C   UNL     1       1.250   8.800  20.162  0.00  0.00    +0.000 A 
ATOM      6  C   UNL     1       1.101   9.996  19.444  0.00  0.00    +0.000 A 
ATOM      7  C   UNL     1       1.761   9.859  18.115  0.00  0.00    +0.000 C 
ATOM      8  C   UNL     1       2.055   8.350  18.057  0.00  0.00    +0.000 C 
ATOM      9  N   UNL     1       1.925   7.804  19.416  0.00  0.00    +0.000 N 
ATOM     10  C   UNL     1       2.173   6.461  19.705  0.00  0.00    +0.000 A 
ATOM     11  C   UNL     1       2.707   5.589  18.754  0.00  0.00    +0.000 A 
ATOM     12  C   UNL     1       2.943   4.239  19.055  0.00  0.00    +0.000 A 
ATOM     13  C   UNL     1       2.612   3.807  20.324  0.00  0.00    +0.000 A 
ATOM     14  N   UNL     1       2.118   4.638  21.253  0.00  0.00    +0.000 NA
ATOM     15  N   UNL     1       1.911   5.963  20.934  0.00  0.00    +0.000 NA
ENDROOT
BRANCH   1  17
ATOM     16  O   UNL     1      -0.492  12.577  18.435  0.00  0.00    +0.000 OA
ATOM     17  C   UNL     1       0.383  12.403  19.271  0.00  0.00    +0.000 C 
ATOM     18  N   UNL     1       1.339  13.342  19.592  0.00  0.00    +0.000 N 
ATOM     19  H   UNL     1       2.121  13.078  20.174  0.00  0.00    +0.000 HD
BRANCH  18  20
ATOM     20  C   UNL     1       1.398  14.641  18.938  0.00  0.00    +0.000 C 
BRANCH  20  21
ATOM     21  C   UNL     1       2.836  15.097  18.695  0.00  0.00    +0.000 C 
BRANCH  21  22
ATOM     22  O   UNL     1       3.306  14.600  17.441  0.00  0.00    +0.000 OA
ATOM     23  H   UNL     1       4.064  14.027  17.649  0.00  0.00    +0.000 HD
ENDBRANCH  21  22
ENDBRANCH  20  21
ENDBRANCH  18  20
ENDBRANCH   1  17
BRANCH  12  24
ATOM     24  C   UNL     1       3.530   3.300  18.035  0.00  0.00    +0.000 C 
BRANCH  24  25
ATOM     25  C   UNL     1       4.806   3.800  17.398  0.00  0.00    +0.000 A 
ATOM     26  C   UNL     1       5.863   4.266  18.191  0.00  0.00    +0.000 A 
ATOM     27  C   UNL     1       7.027   4.740  17.594  0.00  0.00    +0.000 A 
ATOM     28  F   UNL     1       8.026   5.186  18.364  0.00  0.00    +0.000 F 
ATOM     29  C   UNL     1       7.172   4.756  16.213  0.00  0.00    +0.000 A 
ATOM     30  C   UNL     1       6.136   4.285  15.396  0.00  0.00    +0.000 A 
ATOM     31  C   UNL     1       4.954   3.814  16.000  0.00  0.00    +0.000 A 
BRANCH  30  32
ATOM     32  C   UNL     1       6.281   4.269  13.894  0.00  0.00    +0.000 C 
ATOM     33  F   UNL     1       6.658   3.059  13.395  0.00  0.00    +0.000 F 
ATOM     34  F   UNL     1       5.117   4.587  13.260  0.00  0.00    +0.000 F 
ATOM     35  F   UNL     1       7.206   5.163  13.451  0.00  0.00    +0.000 F 
ENDBRANCH  30  32
ENDBRANCH  24  25
ENDBRANCH  12  24
TORSDOF 7
ENDMDL
MODEL 3
REMARK VINA RESULT:      -8.9      1.234      2.452
REMARK  Name = 
REMARK  7 active torsions:
REMARK  status: ('A' for Active; 'I' for Inactive)
REMARK    1  A    between atoms: C_2  and  C_7
REMARK    2  A    between atoms: N_3  and  C_4
REMARK    3  A    between atoms: C_4  and  C_5
REMARK    4  A    between atoms: C_5  and  O_6
REMARK    5  A    between atoms: C_18  and  C_19
REMARK    6  A    between atoms: C_19  and  C_20
REMARK    7  A    between atoms: C_25  and  C_26
REMARK                            x       y       z     vdW  Elec       q    Type
REMARK                         _______ _______ _______ _____ _____    ______ ____
ROOT
ATOM      1  C   UNL     1       0.495  10.958  20.161  0.00  0.00    +0.000 A 
ATOM      2  C   UNL     1      -0.006  10.753  21.455  0.00  0.00    +0.000 A 
ATOM      3  C   UNL     1       0.165   9.522  22.094  0.00  0.00    +0.000 A 
ATOM      4  C   UNL     1       0.829   8.475  21.447  0.00  0.00    +0.000 A 
ATOM      5  C   UNL     1       1.313   8.660  20.159  0.00  0.00    +0.000 A 
ATOM      6  C   UNL     1       1.134   9.897  19.522  0.00  0.00    +0.000 A 
ATOM      7  C   UNL     1       1.806   9.867  18.192  0.00  0.00    +0.000 C 
ATOM      8  C   UNL     1       2.141   8.374  18.035  0.00  0.00    +0.000 C 
ATOM      9  N   UNL     1       2.019   7.735  19.354  0.00  0.00    +0.000 N 
ATOM     10  C   UNL     1       2.303   6.383  19.554  0.00  0.00    +0.000 A 
ATOM     11  C   UNL     1       2.866   5.591  18.550  0.00  0.00    +0.000 A 
ATOM     12  C   UNL     1       3.138   4.231  18.762  0.00  0.00    +0.000 A 
ATOM     13  C   UNL     1       2.812   3.706  19.997  0.00  0.00    +0.000 A 
ATOM     14  N   UNL     1       2.290   4.460  20.975  0.00  0.00    +0.000 NA
ATOM     15  N   UNL     1       2.048   5.796  20.744  0.00  0.00    +0.000 NA
ENDROOT
BRANCH   1  17
ATOM     16  O   UNL     1      -0.647  12.571  18.859  0.00  0.00    +0.000 OA
ATOM     17  C   UNL     1       0.351  12.289  19.505  0.00  0.00    +0.000 C 
ATOM     18  N   UNL     1       1.422  13.139  19.676  0.00  0.00    +0.000 N 
ATOM     19  H   UNL     1       2.276  12.787  20.087  0.00  0.00    +0.000 HD
BRANCH  18  20
ATOM     20  C   UNL     1       1.464  14.463  19.076  0.00  0.00    +0.000 C 
BRANCH  20  21
ATOM     21  C   UNL     1       2.749  14.695  18.281  0.00  0.00    +0.000 C 
BRANCH  21  22
ATOM     22  O   UNL     1       3.282  13.449  17.831  0.00  0.00    +0.000 OA
ATOM     23  H   UNL     1       2.523  12.845  17.758  0.00  0.00    +0.000 HD
ENDBRANCH  21  22
ENDBRANCH  20  21
ENDBRANCH  18  20
ENDBRANCH   1  17
BRANCH  12  24
ATOM     24  C   UNL     1       3.756   3.379  17.686  0.00  0.00    +0.000 C 
BRANCH  24  25
ATOM     25  C   UNL     1       4.896   4.045  16.949  0.00  0.00    +0.000 A 
ATOM     26  C   UNL     1       5.308   3.570  15.697  0.00  0.00    +0.000 A 
ATOM     27  C   UNL     1       6.369   4.179  15.034  0.00  0.00    +0.000 A 
ATOM     28  F   UNL     1       6.754   3.711  13.841  0.00  0.00    +0.000 F 
ATOM     29  C   UNL     1       7.033   5.266  15.587  0.00  0.00    +0.000 A 
ATOM     30  C   UNL     1       6.635   5.769  16.832  0.00  0.00    +0.000 A 
ATOM     31  C   UNL     1       5.567   5.147  17.507  0.00  0.00    +0.000 A 
BRANCH  30  32
ATOM     32  C   UNL     1       7.326   6.965  17.441  0.00  0.00    +0.000 C 
ATOM     33  F   UNL     1       6.472   7.959  17.810  0.00  0.00    +0.000 F 
ATOM     34  F   UNL     1       8.026   6.639  18.563  0.00  0.00    +0.000 F 
ATOM     35  F   UNL     1       8.223   7.535  16.592  0.00  0.00    +0.000 F 
ENDBRANCH  30  32
ENDBRANCH  24  25
ENDBRANCH  12  24
TORSDOF 7
ENDMDL
MODEL 4
REMARK VINA RESULT:      -8.8      1.223      2.728
REMARK  Name = 
REMARK  7 active torsions:
REMARK  status: ('A' for Active; 'I' for Inactive)
REMARK    1  A    between atoms: C_2  and  C_7
REMARK    2  A    between atoms: N_3  and  C_4
REMARK    3  A    between atoms: C_4  and  C_5
REMARK    4  A    between atoms: C_5  and  O_6
REMARK    5  A    between atoms: C_18  and  C_19
REMARK    6  A    between atoms: C_19  and  C_20
REMARK    7  A    between atoms: C_25  and  C_26
REMARK                            x       y       z     vdW  Elec       q    Type
REMARK                         _______ _______ _______ _____ _____    ______ ____
ROOT
ATOM      1  C   UNL     1       0.402  10.882  21.251  0.00  0.00    +0.000 A 
ATOM      2  C   UNL     1      -0.117  10.443  22.478  0.00  0.00    +0.000 A 
ATOM      3  C   UNL     1      -0.025   9.098  22.846  0.00  0.00    +0.000 A 
ATOM      4  C   UNL     1       0.576   8.170  21.992  0.00  0.00    +0.000 A 
ATOM      5  C   UNL     1       1.077   8.589  20.766  0.00  0.00    +0.000 A 
ATOM      6  C   UNL     1       0.978   9.939  20.401  0.00  0.00    +0.000 A 
ATOM      7  C   UNL     1       1.653  10.145  19.088  0.00  0.00    +0.000 C 
ATOM      8  C   UNL     1       1.897   8.699  18.622  0.00  0.00    +0.000 C 
ATOM      9  N   UNL     1       1.729   7.809  19.781  0.00  0.00    +0.000 N 
ATOM     10  C   UNL     1       1.929   6.430  19.694  0.00  0.00    +0.000 A 
ATOM     11  C   UNL     1       2.447   5.831  18.544  0.00  0.00    +0.000 A 
ATOM     12  C   UNL     1       2.633   4.442  18.466  0.00  0.00    +0.000 A 
ATOM     13  C   UNL     1       2.270   3.694  19.568  0.00  0.00    +0.000 A 
ATOM     14  N   UNL     1       1.790   4.258  20.685  0.00  0.00    +0.000 NA
ATOM     15  N   UNL     1       1.632   5.626  20.738  0.00  0.00    +0.000 NA
ENDROOT
BRANCH   1  17
ATOM     16  O   UNL     1       1.285  13.073  21.109  0.00  0.00    +0.000 OA
ATOM     17  C   UNL     1       0.343  12.326  20.886  0.00  0.00    +0.000 C 
ATOM     18  N   UNL     1      -0.840  12.732  20.310  0.00  0.00    +0.000 N 
ATOM     19  H   UNL     1      -1.630  12.101  20.297  0.00  0.00    +0.000 HD
BRANCH  18  20
ATOM     20  C   UNL     1      -1.081  14.113  19.924  0.00  0.00    +0.000 C 
BRANCH  20  21
ATOM     21  C   UNL     1      -0.429  14.459  18.586  0.00  0.00    +0.000 C 
BRANCH  21  22
ATOM     22  O   UNL     1      -0.693  13.433  17.629  0.00  0.00    +0.000 OA
ATOM     23  H   UNL     1       0.116  12.894  17.586  0.00  0.00    +0.000 HD
ENDBRANCH  21  22
ENDBRANCH  20  21
ENDBRANCH  18  20
ENDBRANCH   1  17
BRANCH  12  24
ATOM     24  C   UNL     1       3.204   3.796  17.232  0.00  0.00    +0.000 C 
BRANCH  24  25
ATOM     25  C   UNL     1       4.633   4.188  16.934  0.00  0.00    +0.000 A 
ATOM     26  C   UNL     1       5.153   4.049  15.641  0.00  0.00    +0.000 A 
ATOM     27  C   UNL     1       6.476   4.396  15.380  0.00  0.00    +0.000 A 
ATOM     28  F   UNL     1       6.960   4.256  14.140  0.00  0.00    +0.000 F 
ATOM     29  C   UNL     1       7.301   4.890  16.382  0.00  0.00    +0.000 A 
ATOM     30  C   UNL     1       6.803   5.049  17.682  0.00  0.00    +0.000 A 
ATOM     31  C   UNL     1       5.468   4.689  17.948  0.00  0.00    +0.000 A 
BRANCH  30  32
ATOM     32  C   UNL     1       7.674   5.606  18.781  0.00  0.00    +0.000 C 
ATOM     33  F   UNL     1       8.200   6.829  18.493  0.00  0.00    +0.000 F 
ATOM     34  F   UNL     1       6.993   5.760  19.950  0.00  0.00    +0.000 F 
ATOM     35  F   UNL     1       8.732   4.799  19.066  0.00  0.00    +0.000 F 
ENDBRANCH  30  32
ENDBRANCH  24  25
ENDBRANCH  12  24
TORSDOF 7
ENDMDL
MODEL 5
REMARK VINA RESULT:      -8.8      1.097      2.661
REMARK  Name = 
REMARK  7 active torsions:
REMARK  status: ('A' for Active; 'I' for Inactive)
REMARK    1  A    between atoms: C_2  and  C_7
REMARK    2  A    between atoms: N_3  and  C_4
REMARK    3  A    between atoms: C_4  and  C_5
REMARK    4  A    between atoms: C_5  and  O_6
REMARK    5  A    between atoms: C_18  and  C_19
REMARK    6  A    between atoms: C_19  and  C_20
REMARK    7  A    between atoms: C_25  and  C_26
REMARK                            x       y       z     vdW  Elec       q    Type
REMARK                         _______ _______ _______ _____ _____    ______ ____
ROOT
ATOM      1  C   UNL     1       0.470  11.650  20.006  0.00  0.00    +0.000 A 
ATOM      2  C   UNL     1      -0.076  11.472  21.286  0.00  0.00    +0.000 A 
ATOM      3  C   UNL     1      -0.017  10.226  21.915  0.00  0.00    +0.000 A 
ATOM      4  C   UNL     1       0.579   9.137  21.273  0.00  0.00    +0.000 A 
ATOM      5  C   UNL     1       1.107   9.296  19.998  0.00  0.00    +0.000 A 
ATOM      6  C   UNL     1       1.041  10.548  19.371  0.00  0.00    +0.000 A 
ATOM      7  C   UNL     1       1.741  10.478  18.056  0.00  0.00    +0.000 C 
ATOM      8  C   UNL     1       1.963   8.966  17.891  0.00  0.00    +0.000 C 
ATOM      9  N   UNL     1       1.759   8.326  19.199  0.00  0.00    +0.000 N 
ATOM     10  C   UNL     1       1.933   6.953  19.391  0.00  0.00    +0.000 A 
ATOM     11  C   UNL     1       2.457   6.130  18.393  0.00  0.00    +0.000 A 
ATOM     12  C   UNL     1       2.618   4.751  18.596  0.00  0.00    +0.000 A 
ATOM     13  C   UNL     1       2.223   4.242  19.817  0.00  0.00    +0.000 A 
ATOM     14  N   UNL     1       1.736   5.024  20.791  0.00  0.00    +0.000 NA
ATOM     15  N   UNL     1       1.604   6.378  20.569  0.00  0.00    +0.000 NA
ENDROOT
BRANCH   1  17
ATOM     16  O   UNL     1      -0.342  13.251  18.463  0.00  0.00    +0.000 OA
ATOM     17  C   UNL     1       0.446  12.994  19.362  0.00  0.00    +0.000 C 
ATOM     18  N   UNL     1       1.378  13.886  19.846  0.00  0.00    +0.000 N 
ATOM     19  H   UNL     1       2.097  13.561  20.477  0.00  0.00    +0.000 HD
BRANCH  18  20
ATOM     20  C   UNL     1       1.516  15.230  19.308  0.00  0.00    +0.000 C 
BRANCH  20  21
ATOM     21  C   UNL     1       2.867  15.441  18.625  0.00  0.00    +0.000 C 
BRANCH  21  22
ATOM     22  O   UNL     1       2.766  16.470  17.639  0.00  0.00    +0.000 OA
ATOM     23  H   UNL     1       2.316  16.065  16.878  0.00  0.00    +0.000 HD
ENDBRANCH  21  22
ENDBRANCH  20  21
ENDBRANCH  18  20
ENDBRANCH   1  17
BRANCH  12  24
ATOM     24  C   UNL     1       3.195   3.864  17.526  0.00  0.00    +0.000 C 
BRANCH  24  25
ATOM     25  C   UNL     1       4.629   4.179  17.168  0.00  0.00    +0.000 A 
ATOM     26  C   UNL     1       5.108   3.940  15.873  0.00  0.00    +0.000 A 
ATOM     27  C   UNL     1       6.435   4.218  15.558  0.00  0.00    +0.000 A 
ATOM     28  F   UNL     1       6.880   3.982  14.318  0.00  0.00    +0.000 F 
ATOM     29  C   UNL     1       7.305   4.740  16.506  0.00  0.00    +0.000 A 
ATOM     30  C   UNL     1       6.850   4.998  17.805  0.00  0.00    +0.000 A 
ATOM     31  C   UNL     1       5.510   4.709  18.127  0.00  0.00    +0.000 A 
BRANCH  30  32
ATOM     32  C   UNL     1       7.771   5.588  18.846  0.00  0.00    +0.000 C 
ATOM     33  F   UNL     1       8.875   4.828  19.090  0.00  0.00    +0.000 F 
ATOM     34  F   UNL     1       8.236   6.816  18.485  0.00  0.00    +0.000 F 
ATOM     35  F   UNL     1       7.157   5.757  20.048  0.00  0.00    +0.000 F 
ENDBRANCH  30  32
ENDBRANCH  24  25
ENDBRANCH  12  24
TORSDOF 7
ENDMDL
MODEL 6
REMARK VINA RESULT:      -8.6      1.184      2.669
REMARK  Name = 
REMARK  7 active torsions:
REMARK  status: ('A' for Active; 'I' for Inactive)
REMARK    1  A    between atoms: C_2  and  C_7
REMARK    2  A    between atoms: N_3  and  C_4
REMARK    3  A    between atoms: C_4  and  C_5
REMARK    4  A    between atoms: C_5  and  O_6
REMARK    5  A    between atoms: C_18  and  C_19
REMARK    6  A    between atoms: C_19  and  C_20
REMARK    7  A    between atoms: C_25  and  C_26
REMARK                            x       y       z     vdW  Elec       q    Type
REMARK                         _______ _______ _______ _____ _____    ______ ____
ROOT
ATOM      1  C   UNL     1       0.468  11.060  20.925  0.00  0.00    +0.000 A 
ATOM      2  C   UNL     1      -0.043  10.696  22.180  0.00  0.00    +0.000 A 
ATOM      3  C   UNL     1       0.048   9.375  22.626  0.00  0.00    +0.000 A 
ATOM      4  C   UNL     1       0.640   8.396  21.823  0.00  0.00    +0.000 A 
ATOM      5  C   UNL     1       1.133   8.740  20.572  0.00  0.00    +0.000 A 
ATOM      6  C   UNL     1       1.035  10.067  20.128  0.00  0.00    +0.000 A 
ATOM      7  C   UNL     1       1.702  10.193  18.801  0.00  0.00    +0.000 C 
ATOM      8  C   UNL     1       1.938   8.722  18.419  0.00  0.00    +0.000 C 
ATOM      9  N   UNL     1       1.776   7.902  19.629  0.00  0.00    +0.000 N 
ATOM     10  C   UNL     1       1.971   6.519  19.622  0.00  0.00    +0.000 A 
ATOM     11  C   UNL     1       2.480   5.852  18.506  0.00  0.00    +0.000 A 
ATOM     12  C   UNL     1       2.662   4.461  18.508  0.00  0.00    +0.000 A 
ATOM     13  C   UNL     1       2.304   3.780  19.655  0.00  0.00    +0.000 A 
ATOM     14  N   UNL     1       1.834   4.410  20.740  0.00  0.00    +0.000 NA
ATOM     15  N   UNL     1       1.680   5.780  20.714  0.00  0.00    +0.000 NA
ENDROOT
BRANCH   1  17
ATOM     16  O   UNL     1       1.300  13.270  20.764  0.00  0.00    +0.000 OA
ATOM     17  C   UNL     1       0.411  12.481  20.477  0.00  0.00    +0.000 C 
ATOM     18  N   UNL     1      -0.709  12.815  19.749  0.00  0.00    +0.000 N 
ATOM     19  H   UNL     1      -1.474  12.158  19.682  0.00  0.00    +0.000 HD
BRANCH  18  20
ATOM     20  C   UNL     1      -0.943  14.166  19.262  0.00  0.00    +0.000 C 
BRANCH  20  21
ATOM     21  C   UNL     1      -1.640  15.040  20.304  0.00  0.00    +0.000 C 
BRANCH  21  22
ATOM     22  O   UNL     1      -1.946  16.320  19.748  0.00  0.00    +0.000 OA
ATOM     23  H   UNL     1      -1.796  16.237  18.791  0.00  0.00    +0.000 HD
ENDBRANCH  21  22
ENDBRANCH  20  21
ENDBRANCH  18  20
ENDBRANCH   1  17
BRANCH  12  24
ATOM     24  C   UNL     1       3.221   3.742  17.311  0.00  0.00    +0.000 C 
BRANCH  24  25
ATOM     25  C   UNL     1       4.643   4.124  16.969  0.00  0.00    +0.000 A 
ATOM     26  C   UNL     1       5.125   3.976  15.662  0.00  0.00    +0.000 A 
ATOM     27  C   UNL     1       6.441   4.314  15.360  0.00  0.00    +0.000 A 
ATOM     28  F   UNL     1       6.888   4.164  14.108  0.00  0.00    +0.000 F 
ATOM     29  C   UNL     1       7.297   4.810  16.335  0.00  0.00    +0.000 A 
ATOM     30  C   UNL     1       6.838   4.979  17.647  0.00  0.00    +0.000 A 
ATOM     31  C   UNL     1       5.510   4.628  17.954  0.00  0.00    +0.000 A 
BRANCH  30  32
ATOM     32  C   UNL     1       7.744   5.539  18.718  0.00  0.00    +0.000 C 
ATOM     33  F   UNL     1       7.123   5.720  19.916  0.00  0.00    +0.000 F 
ATOM     34  F   UNL     1       8.809   4.728  18.968  0.00  0.00    +0.000 F 
ATOM     35  F   UNL     1       8.265   6.749  18.378  0.00  0.00    +0.000 F 
ENDBRANCH  30  32
ENDBRANCH  24  25
ENDBRANCH  12  24
TORSDOF 7
ENDMDL
MODEL 7
REMARK VINA RESULT:      -8.5      1.147      2.365
REMARK  Name = 
REMARK  7 active torsions:
REMARK  status: ('A' for Active; 'I' for Inactive)
REMARK    1  A    between atoms: C_2  and  C_7
REMARK    2  A    between atoms: N_3  and  C_4
REMARK    3  A    between atoms: C_4  and  C_5
REMARK    4  A    between atoms: C_5  and  O_6
REMARK    5  A    between atoms: C_18  and  C_19
REMARK    6  A    between atoms: C_19  and  C_20
REMARK    7  A    between atoms: C_25  and  C_26
REMARK                            x       y       z     vdW  Elec       q    Type
REMARK                         _______ _______ _______ _____ _____    ______ ____
ROOT
ATOM      1  C   UNL     1       0.353  10.922  19.926  0.00  0.00    +0.000 A 
ATOM      2  C   UNL     1      -0.197  10.746  21.204  0.00  0.00    +0.000 A 
ATOM      3  C   UNL     1      -0.023   9.541  21.891  0.00  0.00    +0.000 A 
ATOM      4  C   UNL     1       0.694   8.493  21.308  0.00  0.00    +0.000 A 
ATOM      5  C   UNL     1       1.229   8.648  20.037  0.00  0.00    +0.000 A 
ATOM      6  C   UNL     1       1.047   9.858  19.351  0.00  0.00    +0.000 A 
ATOM      7  C   UNL     1       1.776   9.803  18.052  0.00  0.00    +0.000 C 
ATOM      8  C   UNL     1       2.156   8.315  17.960  0.00  0.00    +0.000 C 
ATOM      9  N   UNL     1       1.992   7.717  19.293  0.00  0.00    +0.000 N 
ATOM     10  C   UNL     1       2.302   6.379  19.551  0.00  0.00    +0.000 A 
ATOM     11  C   UNL     1       2.928   5.571  18.600  0.00  0.00    +0.000 A 
ATOM     12  C   UNL     1       3.225   4.226  18.868  0.00  0.00    +0.000 A 
ATOM     13  C   UNL     1       2.860   3.734  20.105  0.00  0.00    +0.000 A 
ATOM     14  N   UNL     1       2.277   4.504  21.035  0.00  0.00    +0.000 NA
ATOM     15  N   UNL     1       2.011   5.826  20.748  0.00  0.00    +0.000 NA
ENDROOT
BRANCH   1  17
ATOM     16  O   UNL     1      -0.750  12.444  18.488  0.00  0.00    +0.000 OA
ATOM     17  C   UNL     1       0.204  12.227  19.220  0.00  0.00    +0.000 C 
ATOM     18  N   UNL     1       1.220  13.129  19.449  0.00  0.00    +0.000 N 
ATOM     19  H   UNL     1       2.052  12.829  19.937  0.00  0.00    +0.000 HD
BRANCH  18  20
ATOM     20  C   UNL     1       1.251  14.437  18.813  0.00  0.00    +0.000 C 
BRANCH  20  21
ATOM     21  C   UNL     1       0.632  15.521  19.696  0.00  0.00    +0.000 C 
BRANCH  21  22
ATOM     22  O   UNL     1       1.495  15.814  20.795  0.00  0.00    +0.000 OA
ATOM     23  H   UNL     1       1.622  14.972  21.266  0.00  0.00    +0.000 HD
ENDBRANCH  21  22
ENDBRANCH  20  21
ENDBRANCH  18  20
ENDBRANCH   1  17
BRANCH  12  24
ATOM     24  C   UNL     1       3.911   3.357  17.849  0.00  0.00    +0.000 C 
BRANCH  24  25
ATOM     25  C   UNL     1       4.999   4.059  17.070  0.00  0.00    +0.000 A 
ATOM     26  C   UNL     1       5.366   3.607  15.795  0.00  0.00    +0.000 A 
ATOM     27  C   UNL     1       6.381   4.250  15.093  0.00  0.00    +0.000 A 
ATOM     28  F   UNL     1       6.723   3.806  13.878  0.00  0.00    +0.000 F 
ATOM     29  C   UNL     1       7.043   5.347  15.628  0.00  0.00    +0.000 A 
ATOM     30  C   UNL     1       6.689   5.827  16.896  0.00  0.00    +0.000 A 
ATOM     31  C   UNL     1       5.668   5.171  17.611  0.00  0.00    +0.000 A 
BRANCH  30  32
ATOM     32  C   UNL     1       7.378   7.032  17.488  0.00  0.00    +0.000 C 
ATOM     33  F   UNL     1       8.279   7.612  16.647  0.00  0.00    +0.000 F 
ATOM     34  F   UNL     1       6.497   8.015  17.826  0.00  0.00    +0.000 F 
ATOM     35  F   UNL     1       8.062   6.734  18.625  0.00  0.00    +0.000 F 
ENDBRANCH  30  32
ENDBRANCH  24  25
ENDBRANCH  12  24
TORSDOF 7
ENDMDL
MODEL 8
REMARK VINA RESULT:      -8.5      1.093      2.616
REMARK  Name = 
REMARK  7 active torsions:
REMARK  status: ('A' for Active; 'I' for Inactive)
REMARK    1  A    between atoms: C_2  and  C_7
REMARK    2  A    between atoms: N_3  and  C_4
REMARK    3  A    between atoms: C_4  and  C_5
REMARK    4  A    between atoms: C_5  and  O_6
REMARK    5  A    between atoms: C_18  and  C_19
REMARK    6  A    between atoms: C_19  and  C_20
REMARK    7  A    between atoms: C_25  and  C_26
REMARK                            x       y       z     vdW  Elec       q    Type
REMARK                         _______ _______ _______ _____ _____    ______ ____
ROOT
ATOM      1  C   UNL     1       0.360  11.268  20.505  0.00  0.00    +0.000 A 
ATOM      2  C   UNL     1      -0.138  10.984  21.785  0.00  0.00    +0.000 A 
ATOM      3  C   UNL     1      -0.018   9.699  22.323  0.00  0.00    +0.000 A 
ATOM      4  C   UNL     1       0.590   8.679  21.588  0.00  0.00    +0.000 A 
ATOM      5  C   UNL     1       1.071   8.943  20.312  0.00  0.00    +0.000 A 
ATOM      6  C   UNL     1       0.944  10.233  19.777  0.00  0.00    +0.000 A 
ATOM      7  C   UNL     1       1.601  10.278  18.439  0.00  0.00    +0.000 C 
ATOM      8  C   UNL     1       1.866   8.789  18.162  0.00  0.00    +0.000 C 
ATOM      9  N   UNL     1       1.726   8.054  19.427  0.00  0.00    +0.000 N 
ATOM     10  C   UNL     1       1.950   6.678  19.516  0.00  0.00    +0.000 A 
ATOM     11  C   UNL     1       2.466   5.944  18.447  0.00  0.00    +0.000 A 
ATOM     12  C   UNL     1       2.677   4.561  18.547  0.00  0.00    +0.000 A 
ATOM     13  C   UNL     1       2.339   3.955  19.741  0.00  0.00    +0.000 A 
ATOM     14  N   UNL     1       1.860   4.651  20.782  0.00  0.00    +0.000 NA
ATOM     15  N   UNL     1       1.678   6.012  20.660  0.00  0.00    +0.000 NA
ENDROOT
BRANCH   1  17
ATOM     16  O   UNL     1      -0.167  12.863  18.837  0.00  0.00    +0.000 OA
ATOM     17  C   UNL     1       0.272  12.653  19.958  0.00  0.00    +0.000 C 
ATOM     18  N   UNL     1       0.734  13.640  20.801  0.00  0.00    +0.000 N 
ATOM     19  H   UNL     1       1.225  13.383  21.646  0.00  0.00    +0.000 HD
BRANCH  18  20
ATOM     20  C   UNL     1       0.754  15.042  20.414  0.00  0.00    +0.000 C 
BRANCH  20  21
ATOM     21  C   UNL     1       0.881  15.970  21.621  0.00  0.00    +0.000 C 
BRANCH  21  22
ATOM     22  O   UNL     1       1.188  17.297  21.193  0.00  0.00    +0.000 OA
ATOM     23  H   UNL     1       2.060  17.243  20.764  0.00  0.00    +0.000 HD
ENDBRANCH  21  22
ENDBRANCH  20  21
ENDBRANCH  18  20
ENDBRANCH   1  17
BRANCH  12  24
ATOM     24  C   UNL     1       3.246   3.770  17.400  0.00  0.00    +0.000 C 
BRANCH  24  25
ATOM     25  C   UNL     1       4.667   4.138  17.039  0.00  0.00    +0.000 A 
ATOM     26  C   UNL     1       5.138   3.958  15.732  0.00  0.00    +0.000 A 
ATOM     27  C   UNL     1       6.453   4.285  15.414  0.00  0.00    +0.000 A 
ATOM     28  F   UNL     1       6.891   4.105  14.162  0.00  0.00    +0.000 F 
ATOM     29  C   UNL     1       7.319   4.798  16.371  0.00  0.00    +0.000 A 
ATOM     30  C   UNL     1       6.870   4.999  17.683  0.00  0.00    +0.000 A 
ATOM     31  C   UNL     1       5.542   4.660  18.007  0.00  0.00    +0.000 A 
BRANCH  30  32
ATOM     32  C   UNL     1       7.785   5.578  18.734  0.00  0.00    +0.000 C 
ATOM     33  F   UNL     1       8.332   6.775  18.381  0.00  0.00    +0.000 F 
ATOM     34  F   UNL     1       7.142   5.796  19.915  0.00  0.00    +0.000 F 
ATOM     35  F   UNL     1       8.831   4.757  19.023  0.00  0.00    +0.000 F 
ENDBRANCH  30  32
ENDBRANCH  24  25
ENDBRANCH  12  24
TORSDOF 7
ENDMDL
MODEL 9
REMARK VINA RESULT:      -8.5      3.060      4.503
REMARK  Name = 
REMARK  7 active torsions:
REMARK  status: ('A' for Active; 'I' for Inactive)
REMARK    1  A    between atoms: C_2  and  C_7
REMARK    2  A    between atoms: N_3  and  C_4
REMARK    3  A    between atoms: C_4  and  C_5
REMARK    4  A    between atoms: C_5  and  O_6
REMARK    5  A    between atoms: C_18  and  C_19
REMARK    6  A    between atoms: C_19  and  C_20
REMARK    7  A    between atoms: C_25  and  C_26
REMARK                            x       y       z     vdW  Elec       q    Type
REMARK                         _______ _______ _______ _____ _____    ______ ____
ROOT
ATOM      1  C   UNL     1      -1.863  12.863  22.089  0.00  0.00    +0.000 A 
ATOM      2  C   UNL     1      -1.905  13.666  20.940  0.00  0.00    +0.000 A 
ATOM      3  C   UNL     1      -1.291  13.242  19.757  0.00  0.00    +0.000 A 
ATOM      4  C   UNL     1      -0.620  12.018  19.708  0.00  0.00    +0.000 A 
ATOM      5  C   UNL     1      -0.557  11.222  20.844  0.00  0.00    +0.000 A 
ATOM      6  C   UNL     1      -1.171  11.655  22.028  0.00  0.00    +0.000 A 
ATOM      7  C   UNL     1      -1.030  10.598  23.071  0.00  0.00    +0.000 C 
ATOM      8  C   UNL     1      -0.019   9.639  22.420  0.00  0.00    +0.000 C 
ATOM      9  N   UNL     1       0.057   9.954  20.986  0.00  0.00    +0.000 N 
ATOM     10  C   UNL     1       0.860   9.226  20.106  0.00  0.00    +0.000 A 
ATOM     11  C   UNL     1       1.520   8.061  20.502  0.00  0.00    +0.000 A 
ATOM     12  C   UNL     1       2.332   7.345  19.609  0.00  0.00    +0.000 A 
ATOM     13  C   UNL     1       2.460   7.847  18.330  0.00  0.00    +0.000 A 
ATOM     14  N   UNL     1       1.816   8.953  17.931  0.00  0.00    +0.000 NA
ATOM     15  N   UNL     1       1.013   9.628  18.825  0.00  0.00    +0.000 NA
ENDROOT
BRANCH   1  17
ATOM     16  O   UNL     1      -3.576  12.737  23.718  0.00  0.00    +0.000 OA
ATOM     17  C   UNL     1      -2.561  13.299  23.332  0.00  0.00    +0.000 C 
ATOM     18  N   UNL     1      -1.985  14.372  23.975  0.00  0.00    +0.000 N 
ATOM     19  H   UNL     1      -1.242  14.884  23.520  0.00  0.00    +0.000 HD
BRANCH  18  20
ATOM     20  C   UNL     1      -2.554  14.949  25.183  0.00  0.00    +0.000 C 
BRANCH  20  21
ATOM     21  C   UNL     1      -3.605  16.014  24.872  0.00  0.00    +0.000 C 
BRANCH  21  22
ATOM     22  O   UNL     1      -4.891  15.410  24.726  0.00  0.00    +0.000 OA
ATOM     23  H   UNL     1      -4.881  14.621  25.295  0.00  0.00    +0.000 HD
ENDBRANCH  21  22
ENDBRANCH  20  21
ENDBRANCH  18  20
ENDBRANCH   1  17
BRANCH  12  24
ATOM     24  C   UNL     1       3.034   6.082  20.031  0.00  0.00    +0.000 C 
BRANCH  24  25
ATOM     25  C   UNL     1       3.617   5.287  18.885  0.00  0.00    +0.000 A 
ATOM     26  C   UNL     1       2.828   4.367  18.183  0.00  0.00    +0.000 A 
ATOM     27  C   UNL     1       3.379   3.627  17.141  0.00  0.00    +0.000 A 
ATOM     28  F   UNL     1       2.613   2.750  16.481  0.00  0.00    +0.000 F 
ATOM     29  C   UNL     1       4.707   3.786  16.770  0.00  0.00    +0.000 A 
ATOM     30  C   UNL     1       5.516   4.707  17.447  0.00  0.00    +0.000 A 
ATOM     31  C   UNL     1       4.962   5.449  18.508  0.00  0.00    +0.000 A 
BRANCH  30  32
ATOM     32  C   UNL     1       6.957   4.914  17.046  0.00  0.00    +0.000 C 
ATOM     33  F   UNL     1       7.327   6.224  17.004  0.00  0.00    +0.000 F 
ATOM     34  F   UNL     1       7.823   4.309  17.905  0.00  0.00    +0.000 F 
ATOM     35  F   UNL     1       7.232   4.406  15.814  0.00  0.00    +0.000 F 
ENDBRANCH  30  32
ENDBRANCH  24  25
ENDBRANCH  12  24
TORSDOF 7
ENDMDL
