MODEL 1
REMARK VINA RESULT:      -6.6      0.000      0.000
REMARK  Name = 
REMARK  2 active torsions:
REMARK  status: ('A' for Active; 'I' for Inactive)
REMARK    1  A    between atoms: C_2  and  C_4
REMARK    2  A    between atoms: C_12  and  O_13
REMARK                            x       y       z     vdW  Elec       q    Type
REMARK                         _______ _______ _______ _____ _____    ______ ____
ROOT
ATOM      1  C   UNL     1       5.010   4.476  18.708  0.00  0.00    +0.000 A 
ATOM      2  C   UNL     1       4.228   5.445  18.054  0.00  0.00    +0.000 A 
ATOM      3  C   UNL     1       2.862   5.254  17.821  0.00  0.00    +0.000 A 
ATOM      4  C   UNL     1       2.325   4.044  18.249  0.00  0.00    +0.000 A 
ATOM      5  O   UNL     1       1.027   3.666  18.097  0.00  0.00    +0.000 OA
ATOM      6  C   UNL     1       0.910   2.423  18.631  0.00  0.00    +0.000 A 
ATOM      7  C   UNL     1       2.116   1.996  19.133  0.00  0.00    +0.000 A 
ATOM      8  C   UNL     1       3.051   3.046  18.891  0.00  0.00    +0.000 A 
ATOM      9  C   UNL     1       4.422   3.267  19.138  0.00  0.00    +0.000 A 
ENDROOT
BRANCH   1  11
ATOM     10  N   UNL     1       7.332   4.295  17.972  0.00  0.00    +0.000 N 
ATOM     11  C   UNL     1       6.455   4.799  18.888  0.00  0.00    +0.000 C 
ATOM     12  O   UNL     1       6.849   5.474  19.831  0.00  0.00    +0.000 OA
ATOM     13  H   UNL     1       8.296   4.594  18.026  0.00  0.00    +0.000 HD
ATOM     14  H   UNL     1       6.988   3.885  17.111  0.00  0.00    +0.000 HD
ENDBRANCH   1  11
BRANCH   9  15
ATOM     15  O   UNL     1       5.183   2.309  19.775  0.00  0.00    +0.000 OA
ATOM     16  H   UNL     1       5.709   1.848  19.100  0.00  0.00    +0.000 HD
ENDBRANCH   9  15
TORSDOF 2
ENDMDL
MODEL 2
REMARK VINA RESULT:      -6.4      2.015      2.267
REMARK  Name = 
REMARK  2 active torsions:
REMARK  status: ('A' for Active; 'I' for Inactive)
REMARK    1  A    between atoms: C_2  and  C_4
REMARK    2  A    between atoms: C_12  and  O_13
REMARK                            x       y       z     vdW  Elec       q    Type
REMARK                         _______ _______ _______ _____ _____    ______ ____
ROOT
ATOM      1  C   UNL     1       3.806   3.998  17.789  0.00  0.00    +0.000 A 
ATOM      2  C   UNL     1       2.470   4.236  17.417  0.00  0.00    +0.000 A 
ATOM      3  C   UNL     1       1.408   3.981  18.290  0.00  0.00    +0.000 A 
ATOM      4  C   UNL     1       1.742   3.458  19.536  0.00  0.00    +0.000 A 
ATOM      5  O   UNL     1       0.852   3.129  20.511  0.00  0.00    +0.000 OA
ATOM      6  C   UNL     1       1.571   2.645  21.557  0.00  0.00    +0.000 A 
ATOM      7  C   UNL     1       2.915   2.664  21.271  0.00  0.00    +0.000 A 
ATOM      8  C   UNL     1       3.043   3.194  19.954  0.00  0.00    +0.000 A 
ATOM      9  C   UNL     1       4.102   3.479  19.067  0.00  0.00    +0.000 A 
ENDROOT
BRANCH   1  11
ATOM     10  N   UNL     1       5.717   3.307  16.433  0.00  0.00    +0.000 N 
ATOM     11  C   UNL     1       4.845   4.304  16.763  0.00  0.00    +0.000 C 
ATOM     12  O   UNL     1       4.931   5.412  16.248  0.00  0.00    +0.000 OA
ATOM     13  H   UNL     1       6.355   3.472  15.667  0.00  0.00    +0.000 HD
ATOM     14  H   UNL     1       5.538   2.356  16.733  0.00  0.00    +0.000 HD
ENDBRANCH   1  11
BRANCH   9  15
ATOM     15  O   UNL     1       5.409   3.239  19.437  0.00  0.00    +0.000 OA
ATOM     16  H   UNL     1       5.452   2.343  19.813  0.00  0.00    +0.000 HD
ENDBRANCH   9  15
TORSDOF 2
ENDMDL
MODEL 3
REMARK VINA RESULT:      -6.4      1.728      1.775
REMARK  Name = 
REMARK  2 active torsions:
REMARK  status: ('A' for Active; 'I' for Inactive)
REMARK    1  A    between atoms: C_2  and  C_4
REMARK    2  A    between atoms: C_12  and  O_13
REMARK                            x       y       z     vdW  Elec       q    Type
REMARK                         _______ _______ _______ _____ _____    ______ ____
ROOT
ATOM      1  C   UNL     1       4.443   4.149  18.077  0.00  0.00    +0.000 A 
ATOM      2  C   UNL     1       3.390   4.957  17.610  0.00  0.00    +0.000 A 
ATOM      3  C   UNL     1       2.150   4.994  18.256  0.00  0.00    +0.000 A 
ATOM      4  C   UNL     1       2.006   4.170  19.369  0.00  0.00    +0.000 A 
ATOM      5  O   UNL     1       0.875   4.053  20.116  0.00  0.00    +0.000 OA
ATOM      6  C   UNL     1       1.138   3.148  21.093  0.00  0.00    +0.000 A 
ATOM      7  C   UNL     1       2.428   2.684  20.991  0.00  0.00    +0.000 A 
ATOM      8  C   UNL     1       3.009   3.345  19.869  0.00  0.00    +0.000 A 
ATOM      9  C   UNL     1       4.260   3.339  19.217  0.00  0.00    +0.000 A 
ENDROOT
BRANCH   1  11
ATOM     10  N   UNL     1       6.880   4.288  17.995  0.00  0.00    +0.000 N 
ATOM     11  C   UNL     1       5.712   4.196  17.294  0.00  0.00    +0.000 C 
ATOM     12  O   UNL     1       5.713   4.172  16.070  0.00  0.00    +0.000 OA
ATOM     13  H   UNL     1       7.746   4.215  17.480  0.00  0.00    +0.000 HD
ATOM     14  H   UNL     1       6.885   4.138  18.997  0.00  0.00    +0.000 HD
ENDBRANCH   1  11
BRANCH   9  15
ATOM     15  O   UNL     1       5.286   2.541  19.678  0.00  0.00    +0.000 OA
ATOM     16  H   UNL     1       5.903   3.106  20.175  0.00  0.00    +0.000 HD
ENDBRANCH   9  15
TORSDOF 2
ENDMDL
MODEL 4
REMARK VINA RESULT:      -6.3      2.310      2.526
REMARK  Name = 
REMARK  2 active torsions:
REMARK  status: ('A' for Active; 'I' for Inactive)
REMARK    1  A    between atoms: C_2  and  C_4
REMARK    2  A    between atoms: C_12  and  O_13
REMARK                            x       y       z     vdW  Elec       q    Type
REMARK                         _______ _______ _______ _____ _____    ______ ____
ROOT
ATOM      1  C   UNL     1       5.572   5.615  16.792  0.00  0.00    +0.000 A 
ATOM      2  C   UNL     1       4.832   6.692  17.313  0.00  0.00    +0.000 A 
ATOM      3  C   UNL     1       3.550   6.516  17.843  0.00  0.00    +0.000 A 
ATOM      4  C   UNL     1       3.037   5.223  17.805  0.00  0.00    +0.000 A 
ATOM      5  O   UNL     1       1.806   4.855  18.253  0.00  0.00    +0.000 OA
ATOM      6  C   UNL     1       1.684   3.522  18.027  0.00  0.00    +0.000 A 
ATOM      7  C   UNL     1       2.824   3.022  17.444  0.00  0.00    +0.000 A 
ATOM      8  C   UNL     1       3.719   4.123  17.294  0.00  0.00    +0.000 A 
ATOM      9  C   UNL     1       5.020   4.317  16.785  0.00  0.00    +0.000 A 
ENDROOT
BRANCH   1  11
ATOM     10  N   UNL     1       7.621   6.943  16.855  0.00  0.00    +0.000 N 
ATOM     11  C   UNL     1       6.924   5.938  16.250  0.00  0.00    +0.000 C 
ATOM     12  O   UNL     1       7.389   5.341  15.287  0.00  0.00    +0.000 OA
ATOM     13  H   UNL     1       8.576   7.098  16.564  0.00  0.00    +0.000 HD
ATOM     14  H   UNL     1       7.308   7.314  17.745  0.00  0.00    +0.000 HD
ENDBRANCH   1  11
BRANCH   9  15
ATOM     15  O   UNL     1       5.737   3.256  16.271  0.00  0.00    +0.000 OA
ATOM     16  H   UNL     1       5.808   2.581  16.968  0.00  0.00    +0.000 HD
ENDBRANCH   9  15
TORSDOF 2
ENDMDL
MODEL 5
REMARK VINA RESULT:      -6.2      2.226      4.695
REMARK  Name = 
REMARK  2 active torsions:
REMARK  status: ('A' for Active; 'I' for Inactive)
REMARK    1  A    between atoms: C_2  and  C_4
REMARK    2  A    between atoms: C_12  and  O_13
REMARK                            x       y       z     vdW  Elec       q    Type
REMARK                         _______ _______ _______ _____ _____    ______ ____
ROOT
ATOM      1  C   UNL     1       4.514   3.857  17.366  0.00  0.00    +0.000 A 
ATOM      2  C   UNL     1       4.459   4.610  16.179  0.00  0.00    +0.000 A 
ATOM      3  C   UNL     1       5.335   5.675  15.942  0.00  0.00    +0.000 A 
ATOM      4  C   UNL     1       6.246   5.963  16.954  0.00  0.00    +0.000 A 
ATOM      5  O   UNL     1       7.163   6.968  16.918  0.00  0.00    +0.000 OA
ATOM      6  C   UNL     1       7.845   6.924  18.091  0.00  0.00    +0.000 A 
ATOM      7  C   UNL     1       7.385   5.898  18.882  0.00  0.00    +0.000 A 
ATOM      8  C   UNL     1       6.339   5.260  18.150  0.00  0.00    +0.000 A 
ATOM      9  C   UNL     1       5.463   4.175  18.360  0.00  0.00    +0.000 A 
ENDROOT
BRANCH   1  11
ATOM     10  N   UNL     1       3.968   1.557  17.980  0.00  0.00    +0.000 N 
ATOM     11  C   UNL     1       3.520   2.752  17.498  0.00  0.00    +0.000 C 
ATOM     12  O   UNL     1       2.350   2.900  17.170  0.00  0.00    +0.000 OA
ATOM     13  H   UNL     1       3.284   0.838  18.172  0.00  0.00    +0.000 HD
ATOM     14  H   UNL     1       4.887   1.492  18.404  0.00  0.00    +0.000 HD
ENDBRANCH   1  11
BRANCH   9  15
ATOM     15  O   UNL     1       5.521   3.444  19.529  0.00  0.00    +0.000 OA
ATOM     16  H   UNL     1       5.298   4.041  20.264  0.00  0.00    +0.000 HD
ENDBRANCH   9  15
TORSDOF 2
ENDMDL
MODEL 6
REMARK VINA RESULT:      -6.1      2.810      3.962
REMARK  Name = 
REMARK  2 active torsions:
REMARK  status: ('A' for Active; 'I' for Inactive)
REMARK    1  A    between atoms: C_2  and  C_4
REMARK    2  A    between atoms: C_12  and  O_13
REMARK                            x       y       z     vdW  Elec       q    Type
REMARK                         _______ _______ _______ _____ _____    ______ ____
ROOT
ATOM      1  C   UNL     1       2.851   3.754  19.879  0.00  0.00    +0.000 A 
ATOM      2  C   UNL     1       2.062   4.797  19.361  0.00  0.00    +0.000 A 
ATOM      3  C   UNL     1       2.502   5.595  18.300  0.00  0.00    +0.000 A 
ATOM      4  C   UNL     1       3.771   5.316  17.800  0.00  0.00    +0.000 A 
ATOM      5  O   UNL     1       4.379   5.989  16.787  0.00  0.00    +0.000 OA
ATOM      6  C   UNL     1       5.600   5.424  16.611  0.00  0.00    +0.000 A 
ATOM      7  C   UNL     1       5.787   4.388  17.495  0.00  0.00    +0.000 A 
ATOM      8  C   UNL     1       4.598   4.304  18.279  0.00  0.00    +0.000 A 
ATOM      9  C   UNL     1       4.127   3.496  19.335  0.00  0.00    +0.000 A 
ENDROOT
BRANCH   1  11
ATOM     10  N   UNL     1       0.911   2.871  21.070  0.00  0.00    +0.000 N 
ATOM     11  C   UNL     1       2.269   2.983  21.016  0.00  0.00    +0.000 C 
ATOM     12  O   UNL     1       2.977   2.485  21.882  0.00  0.00    +0.000 OA
ATOM     13  H   UNL     1       0.515   2.264  21.776  0.00  0.00    +0.000 HD
ATOM     14  H   UNL     1       0.346   3.136  20.272  0.00  0.00    +0.000 HD
ENDBRANCH   1  11
BRANCH   9  15
ATOM     15  O   UNL     1       4.908   2.478  19.840  0.00  0.00    +0.000 OA
ATOM     16  H   UNL     1       5.808   2.591  19.488  0.00  0.00    +0.000 HD
ENDBRANCH   9  15
TORSDOF 2
ENDMDL
MODEL 7
REMARK VINA RESULT:      -6.1      2.790      4.489
REMARK  Name = 
REMARK  2 active torsions:
REMARK  status: ('A' for Active; 'I' for Inactive)
REMARK    1  A    between atoms: C_2  and  C_4
REMARK    2  A    between atoms: C_12  and  O_13
REMARK                            x       y       z     vdW  Elec       q    Type
REMARK                         _______ _______ _______ _____ _____    ______ ____
ROOT
ATOM      1  C   UNL     1       1.946   3.718  18.497  0.00  0.00    +0.000 A 
ATOM      2  C   UNL     1       1.918   5.111  18.692  0.00  0.00    +0.000 A 
ATOM      3  C   UNL     1       2.879   5.953  18.124  0.00  0.00    +0.000 A 
ATOM      4  C   UNL     1       3.878   5.336  17.375  0.00  0.00    +0.000 A 
ATOM      5  O   UNL     1       4.907   5.980  16.761  0.00  0.00    +0.000 OA
ATOM      6  C   UNL     1       5.662   5.030  16.152  0.00  0.00    +0.000 A 
ATOM      7  C   UNL     1       5.129   3.780  16.359  0.00  0.00    +0.000 A 
ATOM      8  C   UNL     1       3.961   3.964  17.157  0.00  0.00    +0.000 A 
ATOM      9  C   UNL     1       2.969   3.134  17.720  0.00  0.00    +0.000 A 
ENDROOT
BRANCH   1  11
ATOM     10  N   UNL     1       0.640   3.173  20.487  0.00  0.00    +0.000 N 
ATOM     11  C   UNL     1       0.868   2.932  19.164  0.00  0.00    +0.000 C 
ATOM     12  O   UNL     1       0.222   2.087  18.558  0.00  0.00    +0.000 OA
ATOM     13  H   UNL     1      -0.155   2.723  20.919  0.00  0.00    +0.000 HD
ATOM     14  H   UNL     1       1.055   3.982  20.936  0.00  0.00    +0.000 HD
ENDBRANCH   1  11
BRANCH   9  15
ATOM     15  O   UNL     1       3.007   1.769  17.527  0.00  0.00    +0.000 OA
ATOM     16  H   UNL     1       3.165   1.351  18.391  0.00  0.00    +0.000 HD
ENDBRANCH   9  15
TORSDOF 2
ENDMDL
MODEL 8
REMARK VINA RESULT:      -6.1      1.780      2.223
REMARK  Name = 
REMARK  2 active torsions:
REMARK  status: ('A' for Active; 'I' for Inactive)
REMARK    1  A    between atoms: C_2  and  C_4
REMARK    2  A    between atoms: C_12  and  O_13
REMARK                            x       y       z     vdW  Elec       q    Type
REMARK                         _______ _______ _______ _____ _____    ______ ____
ROOT
ATOM      1  C   UNL     1       5.835   4.534  17.412  0.00  0.00    +0.000 A 
ATOM      2  C   UNL     1       4.911   4.071  16.458  0.00  0.00    +0.000 A 
ATOM      3  C   UNL     1       3.570   3.839  16.783  0.00  0.00    +0.000 A 
ATOM      4  C   UNL     1       3.206   4.068  18.107  0.00  0.00    +0.000 A 
ATOM      5  O   UNL     1       1.960   3.883  18.620  0.00  0.00    +0.000 OA
ATOM      6  C   UNL     1       2.022   4.201  19.938  0.00  0.00    +0.000 A 
ATOM      7  C   UNL     1       3.292   4.597  20.282  0.00  0.00    +0.000 A 
ATOM      8  C   UNL     1       4.078   4.516  19.095  0.00  0.00    +0.000 A 
ATOM      9  C   UNL     1       5.421   4.766  18.741  0.00  0.00    +0.000 A 
ENDROOT
BRANCH   1  11
ATOM     10  N   UNL     1       7.423   5.542  15.855  0.00  0.00    +0.000 N 
ATOM     11  C   UNL     1       7.235   4.735  16.939  0.00  0.00    +0.000 C 
ATOM     12  O   UNL     1       8.182   4.183  17.484  0.00  0.00    +0.000 OA
ATOM     13  H   UNL     1       8.373   5.767  15.593  0.00  0.00    +0.000 HD
ATOM     14  H   UNL     1       6.665   6.124  15.517  0.00  0.00    +0.000 HD
ENDBRANCH   1  11
BRANCH   9  15
ATOM     15  O   UNL     1       6.321   5.215  19.684  0.00  0.00    +0.000 OA
ATOM     16  H   UNL     1       6.528   4.472  20.277  0.00  0.00    +0.000 HD
ENDBRANCH   9  15
TORSDOF 2
ENDMDL
MODEL 9
REMARK VINA RESULT:      -6.1      2.217      2.414
REMARK  Name = 
REMARK  2 active torsions:
REMARK  status: ('A' for Active; 'I' for Inactive)
REMARK    1  A    between atoms: C_2  and  C_4
REMARK    2  A    between atoms: C_12  and  O_13
REMARK                            x       y       z     vdW  Elec       q    Type
REMARK                         _______ _______ _______ _____ _____    ______ ____
ROOT
ATOM      1  C   UNL     1       4.606   5.376  16.902  0.00  0.00    +0.000 A 
ATOM      2  C   UNL     1       3.598   6.080  17.585  0.00  0.00    +0.000 A 
ATOM      3  C   UNL     1       2.643   5.424  18.369  0.00  0.00    +0.000 A 
ATOM      4  C   UNL     1       2.730   4.036  18.418  0.00  0.00    +0.000 A 
ATOM      5  O   UNL     1       1.886   3.222  19.107  0.00  0.00    +0.000 OA
ATOM      6  C   UNL     1       2.298   1.947  18.889  0.00  0.00    +0.000 A 
ATOM      7  C   UNL     1       3.403   1.927  18.072  0.00  0.00    +0.000 A 
ATOM      8  C   UNL     1       3.698   3.287  17.756  0.00  0.00    +0.000 A 
ATOM      9  C   UNL     1       4.666   3.969  16.989  0.00  0.00    +0.000 A 
ENDROOT
BRANCH   1  11
ATOM     10  N   UNL     1       6.881   6.116  16.415  0.00  0.00    +0.000 N 
ATOM     11  C   UNL     1       5.557   6.193  16.095  0.00  0.00    +0.000 C 
ATOM     12  O   UNL     1       5.170   6.922  15.191  0.00  0.00    +0.000 OA
ATOM     13  H   UNL     1       7.542   6.582  15.809  0.00  0.00    +0.000 HD
ATOM     14  H   UNL     1       7.211   5.392  17.043  0.00  0.00    +0.000 HD
ENDBRANCH   1  11
BRANCH   9  15
ATOM     15  O   UNL     1       5.648   3.269  16.319  0.00  0.00    +0.000 OA
ATOM     16  H   UNL     1       5.885   2.496  16.859  0.00  0.00    +0.000 HD
ENDBRANCH   9  15
TORSDOF 2
ENDMDL
