MODEL 1
REMARK VINA RESULT:      -7.6      0.000      0.000
REMARK  Name = 
REMARK  14 active torsions:
REMARK  status: ('A' for Active; 'I' for Inactive)
REMARK    1  A    between atoms: C_1  and  C_2
REMARK    2  A    between atoms: N_4  and  C_5
REMARK    3  A    between atoms: C_6  and  O_7
REMARK    4  A    between atoms: C_9  and  O_10
REMARK    5  A    between atoms: C_9  and  C_23
REMARK    6  A    between atoms: O_10  and  C_11
REMARK    7  A    between atoms: C_15  and  C_16
REMARK    8  A    between atoms: C_23  and  O_25
REMARK    9  A    between atoms: C_27  and  C_28
REMARK   10  A    between atoms: C_28  and  O_29
REMARK   11  A    between atoms: C_28  and  C_30
REMARK   12  A    between atoms: C_30  and  O_31
REMARK   13  A    between atoms: C_30  and  C_32
REMARK   14  A    between atoms: C_32  and  O_33
REMARK                            x       y       z     vdW  Elec       q    Type
REMARK                         _______ _______ _______ _____ _____    ______ ____
ROOT
ATOM      1  C   UNL     1      -0.886  11.821  19.190  0.00  0.00    +0.000 C 
ATOM      2  C   UNL     1      -1.082  10.314  18.966  0.00  0.00    +0.000 C 
ATOM      3  C   UNL     1      -0.746   9.461  20.186  0.00  0.00    +0.000 C 
ATOM      4  C   UNL     1       0.586   9.803  20.861  0.00  0.00    +0.000 C 
ATOM      5  O   UNL     1       0.683  11.262  21.046  0.00  0.00    +0.000 OA
ATOM      6  C   UNL     1       0.432  12.148  19.930  0.00  0.00    +0.000 C 
ENDROOT
BRANCH   1  10
ATOM      7  C   UNL     1      -4.406  13.007  20.123  0.00  0.00    +0.000 C 
ATOM      8  C   UNL     1      -3.326  12.324  19.328  0.00  0.00    +0.000 C 
ATOM      9  O   UNL     1      -3.566  11.711  18.293  0.00  0.00    +0.000 OA
ATOM     10  N   UNL     1      -2.055  12.433  19.861  0.00  0.00    +0.000 N 
ATOM     11  H   UNL     1      -1.915  13.047  20.654  0.00  0.00    +0.000 HD
ENDBRANCH   1  10
BRANCH   2  12
ATOM     12  O   UNL     1      -0.365   9.827  17.833  0.00  0.00    +0.000 OA
ATOM     13  H   UNL     1       0.132  10.558  17.420  0.00  0.00    +0.000 HD
ENDBRANCH   2  12
BRANCH   4  14
ATOM     14  C   UNL     1       0.559   9.410  22.370  0.00  0.00    +0.000 C 
ATOM     15  O   UNL     1       1.508   9.458  23.141  0.00  0.00    +0.000 OA
BRANCH  14  16
ATOM     16  O   UNL     1      -0.673   8.977  22.771  0.00  0.00    +0.000 OA
ATOM     17  H   UNL     1      -1.315   9.675  22.516  0.00  0.00    +0.000 HD
ENDBRANCH  14  16
ENDBRANCH   4  14
BRANCH   4  18
ATOM     18  O   UNL     1       1.767   9.291  20.247  0.00  0.00    +0.000 OA
BRANCH  18  19
ATOM     19  C   UNL     1       1.945   8.053  19.698  0.00  0.00    +0.000 A 
ATOM     20  C   UNL     1       2.372   7.724  18.414  0.00  0.00    +0.000 A 
ATOM     21  C   UNL     1       2.548   6.369  18.024  0.00  0.00    +0.000 A 
ATOM     22  C   UNL     1       2.344   5.314  18.923  0.00  0.00    +0.000 A 
ATOM     23  C   UNL     1       2.579   3.885  18.637  0.00  0.00    +0.000 A 
ATOM     24  C   UNL     1       2.717   3.331  17.248  0.00  0.00    +0.000 C 
ATOM     25  C   UNL     1       2.670   3.048  19.683  0.00  0.00    +0.000 A 
ATOM     26  C   UNL     1       2.422   3.464  21.071  0.00  0.00    +0.000 A 
ATOM     27  O   UNL     1       2.646   2.706  22.006  0.00  0.00    +0.000 OA
ATOM     28  O   UNL     1       1.847   4.712  21.240  0.00  0.00    +0.000 OA
ATOM     29  C   UNL     1       1.942   5.669  20.210  0.00  0.00    +0.000 A 
ATOM     30  C   UNL     1       1.704   6.999  20.586  0.00  0.00    +0.000 A 
ENDBRANCH  18  19
ENDBRANCH   4  18
BRANCH   6  31
ATOM     31  C   UNL     1       1.718  12.347  19.075  0.00  0.00    +0.000 C 
BRANCH  31  32
ATOM     32  O   UNL     1       1.762  11.385  18.021  0.00  0.00    +0.000 OA
ATOM     33  H   UNL     1       2.120  10.547  18.360  0.00  0.00    +0.000 HD
ENDBRANCH  31  32
BRANCH  31  34
ATOM     34  C   UNL     1       1.964  13.741  18.452  0.00  0.00    +0.000 C 
BRANCH  34  35
ATOM     35  O   UNL     1       0.957  14.656  18.894  0.00  0.00    +0.000 OA
ATOM     36  H   UNL     1       1.257  15.566  18.708  0.00  0.00    +0.000 HD
ENDBRANCH  34  35
BRANCH  34  37
ATOM     37  C   UNL     1       3.392  14.263  18.621  0.00  0.00    +0.000 C 
BRANCH  37  38
ATOM     38  O   UNL     1       3.939  14.637  17.363  0.00  0.00    +0.000 OA
ATOM     39  H   UNL     1       4.580  13.954  17.097  0.00  0.00    +0.000 HD
ENDBRANCH  37  38
ENDBRANCH  34  37
ENDBRANCH  31  34
ENDBRANCH   6  31
TORSDOF 12
ENDMDL
MODEL 2
REMARK VINA RESULT:      -7.5      1.117      1.407
REMARK  Name = 
REMARK  14 active torsions:
REMARK  status: ('A' for Active; 'I' for Inactive)
REMARK    1  A    between atoms: C_1  and  C_2
REMARK    2  A    between atoms: N_4  and  C_5
REMARK    3  A    between atoms: C_6  and  O_7
REMARK    4  A    between atoms: C_9  and  O_10
REMARK    5  A    between atoms: C_9  and  C_23
REMARK    6  A    between atoms: O_10  and  C_11
REMARK    7  A    between atoms: C_15  and  C_16
REMARK    8  A    between atoms: C_23  and  O_25
REMARK    9  A    between atoms: C_27  and  C_28
REMARK   10  A    between atoms: C_28  and  O_29
REMARK   11  A    between atoms: C_28  and  C_30
REMARK   12  A    between atoms: C_30  and  O_31
REMARK   13  A    between atoms: C_30  and  C_32
REMARK   14  A    between atoms: C_32  and  O_33
REMARK                            x       y       z     vdW  Elec       q    Type
REMARK                         _______ _______ _______ _____ _____    ______ ____
ROOT
ATOM      1  C   UNL     1      -0.768  12.064  19.455  0.00  0.00    +0.000 C 
ATOM      2  C   UNL     1      -1.014  10.593  19.086  0.00  0.00    +0.000 C 
ATOM      3  C   UNL     1      -0.822   9.625  20.249  0.00  0.00    +0.000 C 
ATOM      4  C   UNL     1       0.464   9.838  21.055  0.00  0.00    +0.000 C 
ATOM      5  O   UNL     1       0.612  11.269  21.374  0.00  0.00    +0.000 OA
ATOM      6  C   UNL     1       0.497  12.257  20.323  0.00  0.00    +0.000 C 
ENDROOT
BRANCH   1  10
ATOM      7  C   UNL     1      -3.288  14.505  20.992  0.00  0.00    +0.000 C 
ATOM      8  C   UNL     1      -2.013  14.035  20.344  0.00  0.00    +0.000 C 
ATOM      9  O   UNL     1      -1.100  14.806  20.064  0.00  0.00    +0.000 OA
ATOM     10  N   UNL     1      -1.960  12.679  20.082  0.00  0.00    +0.000 N 
ATOM     11  H   UNL     1      -2.699  12.088  20.441  0.00  0.00    +0.000 HD
ENDBRANCH   1  10
BRANCH   2  12
ATOM     12  O   UNL     1      -0.229  10.164  17.975  0.00  0.00    +0.000 OA
ATOM     13  H   UNL     1      -0.626   9.364  17.581  0.00  0.00    +0.000 HD
ENDBRANCH   2  12
BRANCH   4  14
ATOM     14  C   UNL     1       0.293   9.323  22.518  0.00  0.00    +0.000 C 
ATOM     15  O   UNL     1       1.043   9.563  23.454  0.00  0.00    +0.000 OA
BRANCH  14  16
ATOM     16  O   UNL     1      -0.813   8.535  22.663  0.00  0.00    +0.000 OA
ATOM     17  H   UNL     1      -1.594   9.125  22.584  0.00  0.00    +0.000 HD
ENDBRANCH  14  16
ENDBRANCH   4  14
BRANCH   4  18
ATOM     18  O   UNL     1       1.667   9.317  20.494  0.00  0.00    +0.000 OA
BRANCH  18  19
ATOM     19  C   UNL     1       1.844   8.102  19.897  0.00  0.00    +0.000 A 
ATOM     20  C   UNL     1       2.235   7.823  18.590  0.00  0.00    +0.000 A 
ATOM     21  C   UNL     1       2.416   6.485  18.148  0.00  0.00    +0.000 A 
ATOM     22  C   UNL     1       2.254   5.397  19.015  0.00  0.00    +0.000 A 
ATOM     23  C   UNL     1       2.499   3.982  18.672  0.00  0.00    +0.000 A 
ATOM     24  C   UNL     1       2.600   3.478  17.260  0.00  0.00    +0.000 C 
ATOM     25  C   UNL     1       2.634   3.110  19.685  0.00  0.00    +0.000 A 
ATOM     26  C   UNL     1       2.425   3.475  21.093  0.00  0.00    +0.000 A 
ATOM     27  O   UNL     1       2.687   2.688  21.994  0.00  0.00    +0.000 OA
ATOM     28  O   UNL     1       1.838   4.708  21.324  0.00  0.00    +0.000 OA
ATOM     29  C   UNL     1       1.889   5.701  20.326  0.00  0.00    +0.000 A 
ATOM     30  C   UNL     1       1.645   7.014  20.755  0.00  0.00    +0.000 A 
ENDBRANCH  18  19
ENDBRANCH   4  18
BRANCH   6  31
ATOM     31  C   UNL     1       1.858  12.458  19.594  0.00  0.00    +0.000 C 
BRANCH  31  32
ATOM     32  O   UNL     1       1.713  12.189  18.199  0.00  0.00    +0.000 OA
ATOM     33  H   UNL     1       1.706  11.227  18.053  0.00  0.00    +0.000 HD
ENDBRANCH  31  32
BRANCH  31  34
ATOM     34  C   UNL     1       2.561  13.828  19.738  0.00  0.00    +0.000 C 
BRANCH  34  35
ATOM     35  O   UNL     1       1.635  14.882  19.453  0.00  0.00    +0.000 OA
ATOM     36  H   UNL     1       1.288  14.757  18.548  0.00  0.00    +0.000 HD
ENDBRANCH  34  35
BRANCH  34  37
ATOM     37  C   UNL     1       3.320  14.011  21.054  0.00  0.00    +0.000 C 
BRANCH  37  38
ATOM     38  O   UNL     1       2.423  14.350  22.104  0.00  0.00    +0.000 OA
ATOM     39  H   UNL     1       1.996  15.195  21.874  0.00  0.00    +0.000 HD
ENDBRANCH  37  38
ENDBRANCH  34  37
ENDBRANCH  31  34
ENDBRANCH   6  31
TORSDOF 12
ENDMDL
MODEL 3
REMARK VINA RESULT:      -7.5      1.043      1.191
REMARK  Name = 
REMARK  14 active torsions:
REMARK  status: ('A' for Active; 'I' for Inactive)
REMARK    1  A    between atoms: C_1  and  C_2
REMARK    2  A    between atoms: N_4  and  C_5
REMARK    3  A    between atoms: C_6  and  O_7
REMARK    4  A    between atoms: C_9  and  O_10
REMARK    5  A    between atoms: C_9  and  C_23
REMARK    6  A    between atoms: O_10  and  C_11
REMARK    7  A    between atoms: C_15  and  C_16
REMARK    8  A    between atoms: C_23  and  O_25
REMARK    9  A    between atoms: C_27  and  C_28
REMARK   10  A    between atoms: C_28  and  O_29
REMARK   11  A    between atoms: C_28  and  C_30
REMARK   12  A    between atoms: C_30  and  O_31
REMARK   13  A    between atoms: C_30  and  C_32
REMARK   14  A    between atoms: C_32  and  O_33
REMARK                            x       y       z     vdW  Elec       q    Type
REMARK                         _______ _______ _______ _____ _____    ______ ____
ROOT
ATOM      1  C   UNL     1      -0.741  12.159  19.517  0.00  0.00    +0.000 C 
ATOM      2  C   UNL     1      -0.995  10.698  19.113  0.00  0.00    +0.000 C 
ATOM      3  C   UNL     1      -0.807   9.702  20.253  0.00  0.00    +0.000 C 
ATOM      4  C   UNL     1       0.481   9.889  21.063  0.00  0.00    +0.000 C 
ATOM      5  O   UNL     1       0.637  11.312  21.416  0.00  0.00    +0.000 OA
ATOM      6  C   UNL     1       0.526  12.325  20.388  0.00  0.00    +0.000 C 
ENDROOT
BRANCH   1  10
ATOM      7  C   UNL     1      -3.291  14.592  21.015  0.00  0.00    +0.000 C 
ATOM      8  C   UNL     1      -2.027  14.132  20.339  0.00  0.00    +0.000 C 
ATOM      9  O   UNL     1      -1.161  14.919  19.971  0.00  0.00    +0.000 OA
ATOM     10  N   UNL     1      -1.929  12.765  20.159  0.00  0.00    +0.000 N 
ATOM     11  H   UNL     1      -2.627  12.170  20.588  0.00  0.00    +0.000 HD
ENDBRANCH   1  10
BRANCH   2  12
ATOM     12  O   UNL     1      -0.213  10.293  17.991  0.00  0.00    +0.000 OA
ATOM     13  H   UNL     1      -0.780   9.832  17.345  0.00  0.00    +0.000 HD
ENDBRANCH   2  12
BRANCH   4  14
ATOM     14  C   UNL     1       0.308   9.341  22.513  0.00  0.00    +0.000 C 
ATOM     15  O   UNL     1       1.058   9.557  23.455  0.00  0.00    +0.000 OA
BRANCH  14  16
ATOM     16  O   UNL     1      -0.800   8.553  22.640  0.00  0.00    +0.000 OA
ATOM     17  H   UNL     1      -1.580   9.144  22.559  0.00  0.00    +0.000 HD
ENDBRANCH  14  16
ENDBRANCH   4  14
BRANCH   4  18
ATOM     18  O   UNL     1       1.681   9.376  20.489  0.00  0.00    +0.000 OA
BRANCH  18  19
ATOM     19  C   UNL     1       1.859   8.160  19.893  0.00  0.00    +0.000 A 
ATOM     20  C   UNL     1       2.265   7.880  18.591  0.00  0.00    +0.000 A 
ATOM     21  C   UNL     1       2.446   6.541  18.151  0.00  0.00    +0.000 A 
ATOM     22  C   UNL     1       2.268   5.453  19.016  0.00  0.00    +0.000 A 
ATOM     23  C   UNL     1       2.511   4.038  18.675  0.00  0.00    +0.000 A 
ATOM     24  C   UNL     1       2.627   3.533  17.265  0.00  0.00    +0.000 C 
ATOM     25  C   UNL     1       2.629   3.165  19.689  0.00  0.00    +0.000 A 
ATOM     26  C   UNL     1       2.403   3.530  21.095  0.00  0.00    +0.000 A 
ATOM     27  O   UNL     1       2.651   2.742  21.999  0.00  0.00    +0.000 OA
ATOM     28  O   UNL     1       1.820   4.766  21.319  0.00  0.00    +0.000 OA
ATOM     29  C   UNL     1       1.887   5.759  20.321  0.00  0.00    +0.000 A 
ATOM     30  C   UNL     1       1.644   7.073  20.748  0.00  0.00    +0.000 A 
ENDBRANCH  18  19
ENDBRANCH   4  18
BRANCH   6  31
ATOM     31  C   UNL     1       1.887  12.536  19.663  0.00  0.00    +0.000 C 
BRANCH  31  32
ATOM     32  O   UNL     1       1.776  12.162  18.289  0.00  0.00    +0.000 OA
ATOM     33  H   UNL     1       1.736  12.962  17.737  0.00  0.00    +0.000 HD
ENDBRANCH  31  32
BRANCH  31  34
ATOM     34  C   UNL     1       2.526  13.944  19.717  0.00  0.00    +0.000 C 
BRANCH  34  35
ATOM     35  O   UNL     1       3.590  13.958  20.674  0.00  0.00    +0.000 OA
ATOM     36  H   UNL     1       4.432  13.790  20.207  0.00  0.00    +0.000 HD
ENDBRANCH  34  35
BRANCH  34  37
ATOM     37  C   UNL     1       2.914  14.513  18.351  0.00  0.00    +0.000 C 
BRANCH  37  38
ATOM     38  O   UNL     1       4.038  13.819  17.823  0.00  0.00    +0.000 OA
ATOM     39  H   UNL     1       3.727  12.966  17.471  0.00  0.00    +0.000 HD
ENDBRANCH  37  38
ENDBRANCH  34  37
ENDBRANCH  31  34
ENDBRANCH   6  31
TORSDOF 12
ENDMDL
MODEL 4
REMARK VINA RESULT:      -7.2      0.556      1.028
REMARK  Name = 
REMARK  14 active torsions:
REMARK  status: ('A' for Active; 'I' for Inactive)
REMARK    1  A    between atoms: C_1  and  C_2
REMARK    2  A    between atoms: N_4  and  C_5
REMARK    3  A    between atoms: C_6  and  O_7
REMARK    4  A    between atoms: C_9  and  O_10
REMARK    5  A    between atoms: C_9  and  C_23
REMARK    6  A    between atoms: O_10  and  C_11
REMARK    7  A    between atoms: C_15  and  C_16
REMARK    8  A    between atoms: C_23  and  O_25
REMARK    9  A    between atoms: C_27  and  C_28
REMARK   10  A    between atoms: C_28  and  O_29
REMARK   11  A    between atoms: C_28  and  C_30
REMARK   12  A    between atoms: C_30  and  O_31
REMARK   13  A    between atoms: C_30  and  C_32
REMARK   14  A    between atoms: C_32  and  O_33
REMARK                            x       y       z     vdW  Elec       q    Type
REMARK                         _______ _______ _______ _____ _____    ______ ____
ROOT
ATOM      1  C   UNL     1      -0.810  11.794  18.883  0.00  0.00    +0.000 C 
ATOM      2  C   UNL     1      -0.965  10.296  18.580  0.00  0.00    +0.000 C 
ATOM      3  C   UNL     1      -0.822   9.400  19.806  0.00  0.00    +0.000 C 
ATOM      4  C   UNL     1       0.389   9.714  20.691  0.00  0.00    +0.000 C 
ATOM      5  O   UNL     1       0.453  11.166  20.940  0.00  0.00    +0.000 OA
ATOM      6  C   UNL     1       0.377  12.090  19.829  0.00  0.00    +0.000 C 
ENDROOT
BRANCH   1  10
ATOM      7  C   UNL     1      -4.481  12.708  19.479  0.00  0.00    +0.000 C 
ATOM      8  C   UNL     1      -3.295  12.008  18.870  0.00  0.00    +0.000 C 
ATOM      9  O   UNL     1      -3.418  11.161  17.991  0.00  0.00    +0.000 OA
ATOM     10  N   UNL     1      -2.070  12.387  19.385  0.00  0.00    +0.000 N 
ATOM     11  H   UNL     1      -2.036  13.170  20.025  0.00  0.00    +0.000 HD
ENDBRANCH   1  10
BRANCH   2  12
ATOM     12  O   UNL     1      -0.081   9.846  17.555  0.00  0.00    +0.000 OA
ATOM     13  H   UNL     1      -0.294  10.297  16.716  0.00  0.00    +0.000 HD
ENDBRANCH   2  12
BRANCH   4  14
ATOM     14  C   UNL     1       0.128   9.270  22.164  0.00  0.00    +0.000 C 
ATOM     15  O   UNL     1      -0.797   8.569  22.549  0.00  0.00    +0.000 OA
BRANCH  14  16
ATOM     16  O   UNL     1       1.064   9.766  23.027  0.00  0.00    +0.000 OA
ATOM     17  H   UNL     1       0.734   9.591  23.935  0.00  0.00    +0.000 HD
ENDBRANCH  14  16
ENDBRANCH   4  14
BRANCH   4  18
ATOM     18  O   UNL     1       1.652   9.219  20.251  0.00  0.00    +0.000 OA
BRANCH  18  19
ATOM     19  C   UNL     1       1.918   7.993  19.713  0.00  0.00    +0.000 A 
ATOM     20  C   UNL     1       2.457   7.688  18.466  0.00  0.00    +0.000 A 
ATOM     21  C   UNL     1       2.714   6.343  18.086  0.00  0.00    +0.000 A 
ATOM     22  C   UNL     1       2.479   5.275  18.963  0.00  0.00    +0.000 A 
ATOM     23  C   UNL     1       2.790   3.858  18.690  0.00  0.00    +0.000 A 
ATOM     24  C   UNL     1       3.057   3.318  17.314  0.00  0.00    +0.000 C 
ATOM     25  C   UNL     1       2.830   3.018  19.737  0.00  0.00    +0.000 A 
ATOM     26  C   UNL     1       2.459   3.416  21.103  0.00  0.00    +0.000 A 
ATOM     27  O   UNL     1       2.637   2.661  22.050  0.00  0.00    +0.000 OA
ATOM     28  O   UNL     1       1.825   4.640  21.231  0.00  0.00    +0.000 OA
ATOM     29  C   UNL     1       1.965   5.607  20.215  0.00  0.00    +0.000 A 
ATOM     30  C   UNL     1       1.648   6.924  20.576  0.00  0.00    +0.000 A 
ENDBRANCH  18  19
ENDBRANCH   4  18
BRANCH   6  31
ATOM     31  C   UNL     1       1.780  12.314  19.192  0.00  0.00    +0.000 C 
BRANCH  31  32
ATOM     32  O   UNL     1       1.926  11.502  18.026  0.00  0.00    +0.000 OA
ATOM     33  H   UNL     1       2.409  10.690  18.255  0.00  0.00    +0.000 HD
ENDBRANCH  31  32
BRANCH  31  34
ATOM     34  C   UNL     1       2.181  13.759  18.814  0.00  0.00    +0.000 C 
BRANCH  34  35
ATOM     35  O   UNL     1       2.819  13.766  17.532  0.00  0.00    +0.000 OA
ATOM     36  H   UNL     1       3.525  13.090  17.531  0.00  0.00    +0.000 HD
ENDBRANCH  34  35
BRANCH  34  37
ATOM     37  C   UNL     1       1.052  14.782  18.947  0.00  0.00    +0.000 C 
BRANCH  37  38
ATOM     38  O   UNL     1       1.544  16.099  18.735  0.00  0.00    +0.000 OA
ATOM     39  H   UNL     1       2.157  16.073  17.979  0.00  0.00    +0.000 HD
ENDBRANCH  37  38
ENDBRANCH  34  37
ENDBRANCH  31  34
ENDBRANCH   6  31
TORSDOF 12
ENDMDL
MODEL 5
REMARK VINA RESULT:      -6.9      2.372      4.233
REMARK  Name = 
REMARK  14 active torsions:
REMARK  status: ('A' for Active; 'I' for Inactive)
REMARK    1  A    between atoms: C_1  and  C_2
REMARK    2  A    between atoms: N_4  and  C_5
REMARK    3  A    between atoms: C_6  and  O_7
REMARK    4  A    between atoms: C_9  and  O_10
REMARK    5  A    between atoms: C_9  and  C_23
REMARK    6  A    between atoms: O_10  and  C_11
REMARK    7  A    between atoms: C_15  and  C_16
REMARK    8  A    between atoms: C_23  and  O_25
REMARK    9  A    between atoms: C_27  and  C_28
REMARK   10  A    between atoms: C_28  and  O_29
REMARK   11  A    between atoms: C_28  and  C_30
REMARK   12  A    between atoms: C_30  and  O_31
REMARK   13  A    between atoms: C_30  and  C_32
REMARK   14  A    between atoms: C_32  and  O_33
REMARK                            x       y       z     vdW  Elec       q    Type
REMARK                         _______ _______ _______ _____ _____    ______ ____
ROOT
ATOM      1  C   UNL     1      -0.065  14.605  20.018  0.00  0.00    +0.000 C 
ATOM      2  C   UNL     1       0.980  13.953  19.099  0.00  0.00    +0.000 C 
ATOM      3  C   UNL     1       0.429  12.812  18.250  0.00  0.00    +0.000 C 
ATOM      4  C   UNL     1      -0.419  11.792  19.018  0.00  0.00    +0.000 C 
ATOM      5  O   UNL     1      -1.398  12.503  19.860  0.00  0.00    +0.000 OA
ATOM      6  C   UNL     1      -0.956  13.566  20.738  0.00  0.00    +0.000 C 
ENDROOT
BRANCH   1  10
ATOM      7  C   UNL     1      -1.954  17.774  18.993  0.00  0.00    +0.000 C 
ATOM      8  C   UNL     1      -1.106  16.865  19.841  0.00  0.00    +0.000 C 
ATOM      9  O   UNL     1      -0.651  17.219  20.925  0.00  0.00    +0.000 OA
ATOM     10  N   UNL     1      -0.874  15.615  19.300  0.00  0.00    +0.000 N 
ATOM     11  H   UNL     1      -1.372  15.353  18.458  0.00  0.00    +0.000 HD
ENDBRANCH   1  10
BRANCH   2  12
ATOM     12  O   UNL     1       2.134  13.505  19.808  0.00  0.00    +0.000 OA
ATOM     13  H   UNL     1       2.900  14.063  19.574  0.00  0.00    +0.000 HD
ENDBRANCH   2  12
BRANCH   4  14
ATOM     14  C   UNL     1      -1.441  11.094  18.068  0.00  0.00    +0.000 C 
ATOM     15  O   UNL     1      -1.929   9.984  18.231  0.00  0.00    +0.000 OA
BRANCH  14  16
ATOM     16  O   UNL     1      -1.749  11.865  16.983  0.00  0.00    +0.000 OA
ATOM     17  H   UNL     1      -2.346  12.576  17.300  0.00  0.00    +0.000 HD
ENDBRANCH  14  16
ENDBRANCH   4  14
BRANCH   4  18
ATOM     18  O   UNL     1       0.286  10.813  19.777  0.00  0.00    +0.000 OA
BRANCH  18  19
ATOM     19  C   UNL     1       1.024   9.769  19.298  0.00  0.00    +0.000 A 
ATOM     20  C   UNL     1       1.946   9.761  18.254  0.00  0.00    +0.000 A 
ATOM     21  C   UNL     1       2.666   8.582  17.920  0.00  0.00    +0.000 A 
ATOM     22  C   UNL     1       2.513   7.396  18.649  0.00  0.00    +0.000 A 
ATOM     23  C   UNL     1       3.273   6.150  18.430  0.00  0.00    +0.000 A 
ATOM     24  C   UNL     1       4.046   5.862  17.175  0.00  0.00    +0.000 C 
ATOM     25  C   UNL     1       3.262   5.234  19.412  0.00  0.00    +0.000 A 
ATOM     26  C   UNL     1       2.435   5.361  20.621  0.00  0.00    +0.000 A 
ATOM     27  O   UNL     1       2.554   4.573  21.552  0.00  0.00    +0.000 OA
ATOM     28  O   UNL     1       1.472   6.354  20.601  0.00  0.00    +0.000 OA
ATOM     29  C   UNL     1       1.605   7.435  19.706  0.00  0.00    +0.000 A 
ATOM     30  C   UNL     1       0.843   8.574  20.004  0.00  0.00    +0.000 A 
ENDBRANCH  18  19
ENDBRANCH   4  18
BRANCH   6  31
ATOM     31  C   UNL     1      -0.460  12.996  22.099  0.00  0.00    +0.000 C 
BRANCH  31  32
ATOM     32  O   UNL     1       0.032  14.053  22.924  0.00  0.00    +0.000 OA
ATOM     33  H   UNL     1       0.553  13.679  23.655  0.00  0.00    +0.000 HD
ENDBRANCH  31  32
BRANCH  31  34
ATOM     34  C   UNL     1      -1.454  12.164  22.941  0.00  0.00    +0.000 C 
BRANCH  34  35
ATOM     35  O   UNL     1      -2.784  12.350  22.447  0.00  0.00    +0.000 OA
ATOM     36  H   UNL     1      -3.003  11.609  21.849  0.00  0.00    +0.000 HD
ENDBRANCH  34  35
BRANCH  34  37
ATOM     37  C   UNL     1      -1.059  10.697  23.116  0.00  0.00    +0.000 C 
BRANCH  37  38
ATOM     38  O   UNL     1       0.312  10.508  22.790  0.00  0.00    +0.000 OA
ATOM     39  H   UNL     1       0.363  10.202  21.867  0.00  0.00    +0.000 HD
ENDBRANCH  37  38
ENDBRANCH  34  37
ENDBRANCH  31  34
ENDBRANCH   6  31
TORSDOF 12
ENDMDL
MODEL 6
REMARK VINA RESULT:      -6.8      2.462      4.380
REMARK  Name = 
REMARK  14 active torsions:
REMARK  status: ('A' for Active; 'I' for Inactive)
REMARK    1  A    between atoms: C_1  and  C_2
REMARK    2  A    between atoms: N_4  and  C_5
REMARK    3  A    between atoms: C_6  and  O_7
REMARK    4  A    between atoms: C_9  and  O_10
REMARK    5  A    between atoms: C_9  and  C_23
REMARK    6  A    between atoms: O_10  and  C_11
REMARK    7  A    between atoms: C_15  and  C_16
REMARK    8  A    between atoms: C_23  and  O_25
REMARK    9  A    between atoms: C_27  and  C_28
REMARK   10  A    between atoms: C_28  and  O_29
REMARK   11  A    between atoms: C_28  and  C_30
REMARK   12  A    between atoms: C_30  and  O_31
REMARK   13  A    between atoms: C_30  and  C_32
REMARK   14  A    between atoms: C_32  and  O_33
REMARK                            x       y       z     vdW  Elec       q    Type
REMARK                         _______ _______ _______ _____ _____    ______ ____
ROOT
ATOM      1  C   UNL     1      -1.614  11.875  20.451  0.00  0.00    +0.000 C 
ATOM      2  C   UNL     1      -0.520  10.957  21.018  0.00  0.00    +0.000 C 
ATOM      3  C   UNL     1       0.878  11.264  20.489  0.00  0.00    +0.000 C 
ATOM      4  C   UNL     1       0.964  11.438  18.970  0.00  0.00    +0.000 C 
ATOM      5  O   UNL     1      -0.110  12.340  18.516  0.00  0.00    +0.000 OA
ATOM      6  C   UNL     1      -1.476  12.094  18.927  0.00  0.00    +0.000 C 
ENDROOT
BRANCH   1  10
ATOM      7  C   UNL     1      -2.809  15.054  22.220  0.00  0.00    +0.000 C 
ATOM      8  C   UNL     1      -2.902  13.747  21.480  0.00  0.00    +0.000 C 
ATOM      9  O   UNL     1      -3.980  13.245  21.175  0.00  0.00    +0.000 OA
ATOM     10  N   UNL     1      -1.687  13.159  21.184  0.00  0.00    +0.000 N 
ATOM     11  H   UNL     1      -0.840  13.683  21.364  0.00  0.00    +0.000 HD
ENDBRANCH   1  10
BRANCH   2  12
ATOM     12  O   UNL     1      -0.808   9.573  20.828  0.00  0.00    +0.000 OA
ATOM     13  H   UNL     1      -1.774   9.434  20.841  0.00  0.00    +0.000 HD
ENDBRANCH   2  12
BRANCH   4  14
ATOM     14  C   UNL     1       2.168  12.353  18.584  0.00  0.00    +0.000 C 
ATOM     15  O   UNL     1       2.770  13.102  19.341  0.00  0.00    +0.000 OA
BRANCH  14  16
ATOM     16  O   UNL     1       2.498  12.245  17.263  0.00  0.00    +0.000 OA
ATOM     17  H   UNL     1       2.587  13.159  16.917  0.00  0.00    +0.000 HD
ENDBRANCH  14  16
ENDBRANCH   4  14
BRANCH   4  18
ATOM     18  O   UNL     1       0.990  10.247  18.187  0.00  0.00    +0.000 OA
BRANCH  18  19
ATOM     19  C   UNL     1       1.703   9.109  18.434  0.00  0.00    +0.000 A 
ATOM     20  C   UNL     1       1.488   8.143  19.414  0.00  0.00    +0.000 A 
ATOM     21  C   UNL     1       2.309   6.987  19.496  0.00  0.00    +0.000 A 
ATOM     22  C   UNL     1       3.336   6.747  18.574  0.00  0.00    +0.000 A 
ATOM     23  C   UNL     1       4.185   5.541  18.529  0.00  0.00    +0.000 A 
ATOM     24  C   UNL     1       4.315   4.576  19.673  0.00  0.00    +0.000 C 
ATOM     25  C   UNL     1       4.875   5.307  17.400  0.00  0.00    +0.000 A 
ATOM     26  C   UNL     1       4.920   6.252  16.275  0.00  0.00    +0.000 A 
ATOM     27  O   UNL     1       5.448   5.944  15.214  0.00  0.00    +0.000 OA
ATOM     28  O   UNL     1       4.416   7.518  16.520  0.00  0.00    +0.000 OA
ATOM     29  C   UNL     1       3.516   7.715  17.586  0.00  0.00    +0.000 A 
ATOM     30  C   UNL     1       2.753   8.890  17.535  0.00  0.00    +0.000 A 
ENDBRANCH  18  19
ENDBRANCH   4  18
BRANCH   6  31
ATOM     31  C   UNL     1      -2.170  11.075  17.977  0.00  0.00    +0.000 C 
BRANCH  31  32
ATOM     32  O   UNL     1      -1.915   9.740  18.418  0.00  0.00    +0.000 OA
ATOM     33  H   UNL     1      -2.023   9.125  17.672  0.00  0.00    +0.000 HD
ENDBRANCH  31  32
BRANCH  31  34
ATOM     34  C   UNL     1      -3.694  11.213  17.754  0.00  0.00    +0.000 C 
BRANCH  34  35
ATOM     35  O   UNL     1      -4.158  12.442  18.322  0.00  0.00    +0.000 OA
ATOM     36  H   UNL     1      -4.249  13.103  17.608  0.00  0.00    +0.000 HD
ENDBRANCH  34  35
BRANCH  34  37
ATOM     37  C   UNL     1      -4.142  10.993  16.308  0.00  0.00    +0.000 C 
BRANCH  37  38
ATOM     38  O   UNL     1      -3.213  11.576  15.403  0.00  0.00    +0.000 OA
ATOM     39  H   UNL     1      -3.597  11.533  14.509  0.00  0.00    +0.000 HD
ENDBRANCH  37  38
ENDBRANCH  34  37
ENDBRANCH  31  34
ENDBRANCH   6  31
TORSDOF 12
ENDMDL
MODEL 7
REMARK VINA RESULT:      -6.6      2.256      4.276
REMARK  Name = 
REMARK  14 active torsions:
REMARK  status: ('A' for Active; 'I' for Inactive)
REMARK    1  A    between atoms: C_1  and  C_2
REMARK    2  A    between atoms: N_4  and  C_5
REMARK    3  A    between atoms: C_6  and  O_7
REMARK    4  A    between atoms: C_9  and  O_10
REMARK    5  A    between atoms: C_9  and  C_23
REMARK    6  A    between atoms: O_10  and  C_11
REMARK    7  A    between atoms: C_15  and  C_16
REMARK    8  A    between atoms: C_23  and  O_25
REMARK    9  A    between atoms: C_27  and  C_28
REMARK   10  A    between atoms: C_28  and  O_29
REMARK   11  A    between atoms: C_28  and  C_30
REMARK   12  A    between atoms: C_30  and  O_31
REMARK   13  A    between atoms: C_30  and  C_32
REMARK   14  A    between atoms: C_32  and  O_33
REMARK                            x       y       z     vdW  Elec       q    Type
REMARK                         _______ _______ _______ _____ _____    ______ ____
ROOT
ATOM      1  C   UNL     1      -1.206  12.825  21.024  0.00  0.00    +0.000 C 
ATOM      2  C   UNL     1      -0.168  11.848  21.598  0.00  0.00    +0.000 C 
ATOM      3  C   UNL     1       1.134  11.795  20.803  0.00  0.00    +0.000 C 
ATOM      4  C   UNL     1       0.955  11.664  19.287  0.00  0.00    +0.000 C 
ATOM      5  O   UNL     1      -0.046  12.642  18.824  0.00  0.00    +0.000 OA
ATOM      6  C   UNL     1      -1.330  12.727  19.486  0.00  0.00    +0.000 C 
ENDROOT
BRANCH   1  10
ATOM      7  C   UNL     1      -1.572  16.431  22.261  0.00  0.00    +0.000 C 
ATOM      8  C   UNL     1      -1.990  15.045  21.850  0.00  0.00    +0.000 C 
ATOM      9  O   UNL     1      -3.163  14.685  21.867  0.00  0.00    +0.000 OA
ATOM     10  N   UNL     1      -0.954  14.215  21.464  0.00  0.00    +0.000 N 
ATOM     11  H   UNL     1      -0.028  14.613  21.367  0.00  0.00    +0.000 HD
ENDBRANCH   1  10
BRANCH   2  12
ATOM     12  O   UNL     1      -0.682  10.528  21.758  0.00  0.00    +0.000 OA
ATOM     13  H   UNL     1      -1.456  10.547  22.352  0.00  0.00    +0.000 HD
ENDBRANCH   2  12
BRANCH   4  14
ATOM     14  C   UNL     1       2.182  12.259  18.530  0.00  0.00    +0.000 C 
ATOM     15  O   UNL     1       2.884  13.183  18.917  0.00  0.00    +0.000 OA
BRANCH  14  16
ATOM     16  O   UNL     1       2.407  11.634  17.336  0.00  0.00    +0.000 OA
ATOM     17  H   UNL     1       1.644  11.848  16.756  0.00  0.00    +0.000 HD
ENDBRANCH  14  16
ENDBRANCH   4  14
BRANCH   4  18
ATOM     18  O   UNL     1       0.660  10.362  18.786  0.00  0.00    +0.000 OA
BRANCH  18  19
ATOM     19  C   UNL     1       1.112   9.167  19.268  0.00  0.00    +0.000 A 
ATOM     20  C   UNL     1       0.718   8.489  20.418  0.00  0.00    +0.000 A 
ATOM     21  C   UNL     1       1.266   7.219  20.745  0.00  0.00    +0.000 A 
ATOM     22  C   UNL     1       2.188   6.579  19.906  0.00  0.00    +0.000 A 
ATOM     23  C   UNL     1       2.748   5.230  20.118  0.00  0.00    +0.000 A 
ATOM     24  C   UNL     1       2.696   4.509  21.434  0.00  0.00    +0.000 C 
ATOM     25  C   UNL     1       3.336   4.629  19.070  0.00  0.00    +0.000 A 
ATOM     26  C   UNL     1       3.555   5.296  17.779  0.00  0.00    +0.000 A 
ATOM     27  O   UNL     1       3.971   4.673  16.810  0.00  0.00    +0.000 OA
ATOM     28  O   UNL     1       3.349   6.665  17.756  0.00  0.00    +0.000 OA
ATOM     29  C   UNL     1       2.547   7.265  18.747  0.00  0.00    +0.000 A 
ATOM     30  C   UNL     1       2.060   8.546  18.448  0.00  0.00    +0.000 A 
ENDBRANCH  18  19
ENDBRANCH   4  18
BRANCH   6  31
ATOM     31  C   UNL     1      -2.331  11.689  18.899  0.00  0.00    +0.000 C 
BRANCH  31  32
ATOM     32  O   UNL     1      -3.656  11.975  19.347  0.00  0.00    +0.000 OA
ATOM     33  H   UNL     1      -3.846  12.920  19.216  0.00  0.00    +0.000 HD
ENDBRANCH  31  32
BRANCH  31  34
ATOM     34  C   UNL     1      -2.380  11.519  17.363  0.00  0.00    +0.000 C 
BRANCH  34  35
ATOM     35  O   UNL     1      -1.324  10.652  16.936  0.00  0.00    +0.000 OA
ATOM     36  H   UNL     1      -1.698   9.970  16.344  0.00  0.00    +0.000 HD
ENDBRANCH  34  35
BRANCH  34  37
ATOM     37  C   UNL     1      -3.755  11.134  16.815  0.00  0.00    +0.000 C 
BRANCH  37  38
ATOM     38  O   UNL     1      -4.599  12.276  16.740  0.00  0.00    +0.000 OA
ATOM     39  H   UNL     1      -4.914  12.477  17.640  0.00  0.00    +0.000 HD
ENDBRANCH  37  38
ENDBRANCH  34  37
ENDBRANCH  31  34
ENDBRANCH   6  31
TORSDOF 12
ENDMDL
MODEL 8
REMARK VINA RESULT:      -6.6      2.238      2.962
REMARK  Name = 
REMARK  14 active torsions:
REMARK  status: ('A' for Active; 'I' for Inactive)
REMARK    1  A    between atoms: C_1  and  C_2
REMARK    2  A    between atoms: N_4  and  C_5
REMARK    3  A    between atoms: C_6  and  O_7
REMARK    4  A    between atoms: C_9  and  O_10
REMARK    5  A    between atoms: C_9  and  C_23
REMARK    6  A    between atoms: O_10  and  C_11
REMARK    7  A    between atoms: C_15  and  C_16
REMARK    8  A    between atoms: C_23  and  O_25
REMARK    9  A    between atoms: C_27  and  C_28
REMARK   10  A    between atoms: C_28  and  O_29
REMARK   11  A    between atoms: C_28  and  C_30
REMARK   12  A    between atoms: C_30  and  O_31
REMARK   13  A    between atoms: C_30  and  C_32
REMARK   14  A    between atoms: C_32  and  O_33
REMARK                            x       y       z     vdW  Elec       q    Type
REMARK                         _______ _______ _______ _____ _____    ______ ____
ROOT
ATOM      1  C   UNL     1      -0.523  12.251  19.537  0.00  0.00    +0.000 C 
ATOM      2  C   UNL     1      -1.055  10.970  18.877  0.00  0.00    +0.000 C 
ATOM      3  C   UNL     1      -0.665   9.691  19.610  0.00  0.00    +0.000 C 
ATOM      4  C   UNL     1       0.814   9.599  19.999  0.00  0.00    +0.000 C 
ATOM      5  O   UNL     1       1.234  10.862  20.634  0.00  0.00    +0.000 OA
ATOM      6  C   UNL     1       0.952  12.123  19.983  0.00  0.00    +0.000 C 
ENDROOT
BRANCH   1  10
ATOM      7  C   UNL     1      -2.592  14.327  22.003  0.00  0.00    +0.000 C 
ATOM      8  C   UNL     1      -1.705  14.033  20.823  0.00  0.00    +0.000 C 
ATOM      9  O   UNL     1      -1.302  14.917  20.072  0.00  0.00    +0.000 OA
ATOM     10  N   UNL     1      -1.392  12.698  20.649  0.00  0.00    +0.000 N 
ATOM     11  H   UNL     1      -1.665  12.041  21.368  0.00  0.00    +0.000 HD
ENDBRANCH   1  10
BRANCH   2  12
ATOM     12  O   UNL     1      -0.685  10.863  17.503  0.00  0.00    +0.000 OA
ATOM     13  H   UNL     1      -0.260  11.692  17.212  0.00  0.00    +0.000 HD
ENDBRANCH   2  12
BRANCH   4  14
ATOM     14  C   UNL     1       1.005   8.677  21.243  0.00  0.00    +0.000 C 
ATOM     15  O   UNL     1       0.220   7.821  21.628  0.00  0.00    +0.000 OA
BRANCH  14  16
ATOM     16  O   UNL     1       2.176   8.929  21.900  0.00  0.00    +0.000 OA
ATOM     17  H   UNL     1       1.956   9.002  22.854  0.00  0.00    +0.000 HD
ENDBRANCH  14  16
ENDBRANCH   4  14
BRANCH   4  18
ATOM     18  O   UNL     1       1.727   9.222  18.970  0.00  0.00    +0.000 OA
BRANCH  18  19
ATOM     19  C   UNL     1       2.182   7.966  18.688  0.00  0.00    +0.000 A 
ATOM     20  C   UNL     1       1.594   6.740  18.986  0.00  0.00    +0.000 A 
ATOM     21  C   UNL     1       2.190   5.519  18.570  0.00  0.00    +0.000 A 
ATOM     22  C   UNL     1       3.365   5.498  17.807  0.00  0.00    +0.000 A 
ATOM     23  C   UNL     1       4.011   4.290  17.260  0.00  0.00    +0.000 A 
ATOM     24  C   UNL     1       3.714   2.900  17.745  0.00  0.00    +0.000 C 
ATOM     25  C   UNL     1       4.914   4.456  16.279  0.00  0.00    +0.000 A 
ATOM     26  C   UNL     1       5.372   5.777  15.824  0.00  0.00    +0.000 A 
ATOM     27  O   UNL     1       6.093   5.889  14.840  0.00  0.00    +0.000 OA
ATOM     28  O   UNL     1       5.015   6.854  16.617  0.00  0.00    +0.000 OA
ATOM     29  C   UNL     1       3.921   6.739  17.497  0.00  0.00    +0.000 A 
ATOM     30  C   UNL     1       3.376   7.946  17.958  0.00  0.00    +0.000 A 
ENDBRANCH  18  19
ENDBRANCH   4  18
BRANCH   6  31
ATOM     31  C   UNL     1       2.061  12.478  18.949  0.00  0.00    +0.000 C 
BRANCH  31  32
ATOM     32  O   UNL     1       1.484  12.665  17.656  0.00  0.00    +0.000 OA
ATOM     33  H   UNL     1       2.192  12.794  17.000  0.00  0.00    +0.000 HD
ENDBRANCH  31  32
BRANCH  31  34
ATOM     34  C   UNL     1       2.962  13.699  19.244  0.00  0.00    +0.000 C 
BRANCH  34  35
ATOM     35  O   UNL     1       3.788  13.979  18.109  0.00  0.00    +0.000 OA
ATOM     36  H   UNL     1       4.698  14.153  18.419  0.00  0.00    +0.000 HD
ENDBRANCH  34  35
BRANCH  34  37
ATOM     37  C   UNL     1       2.213  14.921  19.779  0.00  0.00    +0.000 C 
BRANCH  37  38
ATOM     38  O   UNL     1       1.295  15.408  18.809  0.00  0.00    +0.000 OA
ATOM     39  H   UNL     1       0.766  16.113  19.223  0.00  0.00    +0.000 HD
ENDBRANCH  37  38
ENDBRANCH  34  37
ENDBRANCH  31  34
ENDBRANCH   6  31
TORSDOF 12
ENDMDL
MODEL 9
REMARK VINA RESULT:      -6.5      1.449      2.030
REMARK  Name = 
REMARK  14 active torsions:
REMARK  status: ('A' for Active; 'I' for Inactive)
REMARK    1  A    between atoms: C_1  and  C_2
REMARK    2  A    between atoms: N_4  and  C_5
REMARK    3  A    between atoms: C_6  and  O_7
REMARK    4  A    between atoms: C_9  and  O_10
REMARK    5  A    between atoms: C_9  and  C_23
REMARK    6  A    between atoms: O_10  and  C_11
REMARK    7  A    between atoms: C_15  and  C_16
REMARK    8  A    between atoms: C_23  and  O_25
REMARK    9  A    between atoms: C_27  and  C_28
REMARK   10  A    between atoms: C_28  and  O_29
REMARK   11  A    between atoms: C_28  and  C_30
REMARK   12  A    between atoms: C_30  and  O_31
REMARK   13  A    between atoms: C_30  and  C_32
REMARK   14  A    between atoms: C_32  and  O_33
REMARK                            x       y       z     vdW  Elec       q    Type
REMARK                         _______ _______ _______ _____ _____    ______ ____
ROOT
ATOM      1  C   UNL     1      -0.991  11.851  18.918  0.00  0.00    +0.000 C 
ATOM      2  C   UNL     1      -1.249  10.370  18.599  0.00  0.00    +0.000 C 
ATOM      3  C   UNL     1      -1.018   9.434  19.781  0.00  0.00    +0.000 C 
ATOM      4  C   UNL     1       0.294   9.668  20.537  0.00  0.00    +0.000 C 
ATOM      5  O   UNL     1       0.453  11.108  20.812  0.00  0.00    +0.000 OA
ATOM      6  C   UNL     1       0.303  12.066  19.737  0.00  0.00    +0.000 C 
ENDROOT
BRANCH   1  10
ATOM      7  C   UNL     1      -4.527  12.955  19.890  0.00  0.00    +0.000 C 
ATOM      8  C   UNL     1      -3.447  12.228  19.134  0.00  0.00    +0.000 C 
ATOM      9  O   UNL     1      -3.701  11.460  18.210  0.00  0.00    +0.000 OA
ATOM     10  N   UNL     1      -2.160  12.484  19.568  0.00  0.00    +0.000 N 
ATOM     11  H   UNL     1      -2.019  13.212  20.257  0.00  0.00    +0.000 HD
ENDBRANCH   1  10
BRANCH   2  12
ATOM     12  O   UNL     1      -0.501   9.910  17.474  0.00  0.00    +0.000 OA
ATOM     13  H   UNL     1       0.156   9.250  17.765  0.00  0.00    +0.000 HD
ENDBRANCH   2  12
BRANCH   4  14
ATOM     14  C   UNL     1       0.173   9.195  22.019  0.00  0.00    +0.000 C 
ATOM     15  O   UNL     1      -0.740   8.527  22.485  0.00  0.00    +0.000 OA
BRANCH  14  16
ATOM     16  O   UNL     1       1.219   9.621  22.786  0.00  0.00    +0.000 OA
ATOM     17  H   UNL     1       0.879  10.347  23.352  0.00  0.00    +0.000 HD
ENDBRANCH  14  16
ENDBRANCH   4  14
BRANCH   4  18
ATOM     18  O   UNL     1       1.478   9.131  19.951  0.00  0.00    +0.000 OA
BRANCH  18  19
ATOM     19  C   UNL     1       1.871   7.823  19.930  0.00  0.00    +0.000 A 
ATOM     20  C   UNL     1       1.412   6.765  20.710  0.00  0.00    +0.000 A 
ATOM     21  C   UNL     1       1.904   5.445  20.518  0.00  0.00    +0.000 A 
ATOM     22  C   UNL     1       2.832   5.146  19.512  0.00  0.00    +0.000 A 
ATOM     23  C   UNL     1       3.337   3.799  19.183  0.00  0.00    +0.000 A 
ATOM     24  C   UNL     1       3.212   2.620  20.106  0.00  0.00    +0.000 C 
ATOM     25  C   UNL     1       3.940   3.633  17.995  0.00  0.00    +0.000 A 
ATOM     26  C   UNL     1       4.228   4.745  17.077  0.00  0.00    +0.000 A 
ATOM     27  O   UNL     1       4.657   4.537  15.949  0.00  0.00    +0.000 OA
ATOM     28  O   UNL     1       4.072   6.020  17.594  0.00  0.00    +0.000 OA
ATOM     29  C   UNL     1       3.256   6.217  18.726  0.00  0.00    +0.000 A 
ATOM     30  C   UNL     1       2.826   7.533  18.949  0.00  0.00    +0.000 A 
ENDBRANCH  18  19
ENDBRANCH   4  18
BRANCH   6  31
ATOM     31  C   UNL     1       1.639  12.246  18.958  0.00  0.00    +0.000 C 
BRANCH  31  32
ATOM     32  O   UNL     1       1.747  11.256  17.934  0.00  0.00    +0.000 OA
ATOM     33  H   UNL     1       0.995  10.641  17.995  0.00  0.00    +0.000 HD
ENDBRANCH  31  32
BRANCH  31  34
ATOM     34  C   UNL     1       1.922  13.623  18.314  0.00  0.00    +0.000 C 
BRANCH  34  35
ATOM     35  O   UNL     1       1.073  14.616  18.899  0.00  0.00    +0.000 OA
ATOM     36  H   UNL     1       1.525  15.481  18.851  0.00  0.00    +0.000 HD
ENDBRANCH  34  35
BRANCH  34  37
ATOM     37  C   UNL     1       3.401  14.012  18.285  0.00  0.00    +0.000 C 
BRANCH  37  38
ATOM     38  O   UNL     1       3.666  14.884  17.193  0.00  0.00    +0.000 OA
ATOM     39  H   UNL     1       2.821  15.278  16.910  0.00  0.00    +0.000 HD
ENDBRANCH  37  38
ENDBRANCH  34  37
ENDBRANCH  31  34
ENDBRANCH   6  31
TORSDOF 12
ENDMDL
