MODEL 1
REMARK VINA RESULT:      -7.7      0.000      0.000
REMARK  Name = 
REMARK  8 active torsions:
REMARK  status: ('A' for Active; 'I' for Inactive)
REMARK    1  A    between atoms: C_1  and  O_2
REMARK    2  A    between atoms: O_2  and  C_3
REMARK    3  A    between atoms: C_6  and  C_7
REMARK    4  A    between atoms: C_7  and  N_8
REMARK    5  A    between atoms: N_8  and  C_9
REMARK    6  A    between atoms: N_8  and  C_16
REMARK    7  A    between atoms: C_9  and  C_10
REMARK    8  A    between atoms: C_20  and  C_22
REMARK                            x       y       z     vdW  Elec       q    Type
REMARK                         _______ _______ _______ _____ _____    ______ ____
ROOT
ATOM      1  C   UNL     1       0.944  13.509  18.603  0.00  0.00    +0.000 C 
ATOM      2  C   UNL     1       2.251  13.377  17.809  0.00  0.00    +0.000 C 
ATOM      3  C   UNL     1       3.445  13.715  18.659  0.00  0.00    +0.000 C 
ATOM      4  N   UNL     1       3.414  15.071  19.177  0.00  0.00    +0.000 N 
ATOM      5  C   UNL     1       4.577  15.788  19.504  0.00  0.00    +0.000 C 
ATOM      6  O   UNL     1       4.555  16.936  19.941  0.00  0.00    +0.000 OA
ATOM      7  C   UNL     1       2.140  15.514  19.749  0.00  0.00    +0.000 C 
ATOM      8  C   UNL     1       0.902  15.018  18.989  0.00  0.00    +0.000 C 
ENDROOT
BRANCH   5   9
ATOM      9  C   UNL     1       5.908  15.162  19.293  0.00  0.00    +0.000 A 
ATOM     10  C   UNL     1       6.419  14.899  18.022  0.00  0.00    +0.000 A 
ATOM     11  C   UNL     1       7.738  14.485  17.875  0.00  0.00    +0.000 A 
ATOM     12  C   UNL     1       8.478  14.210  19.019  0.00  0.00    +0.000 A 
ATOM     13  N   UNL     1       9.824  13.763  18.852  0.00  0.00    +0.000 N 
ATOM     14  C   UNL     1      10.654  13.278  19.839  0.00  0.00    +0.000 A 
ATOM     15  C   UNL     1      11.847  12.956  19.236  0.00  0.00    +0.000 A 
ATOM     16  C   UNL     1      11.665  13.292  17.886  0.00  0.00    +0.000 A 
ATOM     17  N   UNL     1      10.442  13.765  17.636  0.00  0.00    +0.000 NA
ATOM     18  N   UNL     1       7.965  14.338  20.277  0.00  0.00    +0.000 NA
ATOM     19  C   UNL     1       6.696  14.824  20.384  0.00  0.00    +0.000 A 
ENDBRANCH   5   9
BRANCH   1  20
ATOM     20  N   UNL     1       0.791  12.566  19.755  0.00  0.00    +0.000 NA
BRANCH  20  21
ATOM     21  C   UNL     1       0.189  13.274  20.905  0.00  0.00    +0.000 C 
BRANCH  21  25
ATOM     22  C   UNL     1      -3.644  12.496  22.723  0.00  0.00    +0.000 A 
ATOM     23  C   UNL     1      -2.508  11.856  23.220  0.00  0.00    +0.000 A 
ATOM     24  C   UNL     1      -1.263  12.013  22.591  0.00  0.00    +0.000 A 
ATOM     25  C   UNL     1      -1.151  12.800  21.439  0.00  0.00    +0.000 A 
ATOM     26  C   UNL     1      -2.320  13.362  20.898  0.00  0.00    +0.000 A 
ATOM     27  C   UNL     1      -3.557  13.207  21.527  0.00  0.00    +0.000 A 
BRANCH  22  29
ATOM     28  C   UNL     1      -4.594  12.456  24.873  0.00  0.00    +0.000 C 
ATOM     29  O   UNL     1      -4.792  12.368  23.459  0.00  0.00    +0.000 OA
ENDBRANCH  22  29
ENDBRANCH  21  25
ENDBRANCH  20  21
BRANCH  20  30
ATOM     30  C   UNL     1       0.051  11.311  19.442  0.00  0.00    +0.000 C 
BRANCH  30  31
ATOM     31  C   UNL     1       0.836  10.013  19.296  0.00  0.00    +0.000 A 
ATOM     32  C   UNL     1       1.465   9.643  18.096  0.00  0.00    +0.000 A 
ATOM     33  C   UNL     1       2.166   8.443  17.975  0.00  0.00    +0.000 A 
ATOM     34  C   UNL     1       2.282   7.598  19.067  0.00  0.00    +0.000 A 
ATOM     35  C   UNL     1       1.711   7.966  20.281  0.00  0.00    +0.000 A 
ATOM     36  C   UNL     1       0.999   9.161  20.398  0.00  0.00    +0.000 A 
ENDBRANCH  30  31
ENDBRANCH  20  30
ENDBRANCH   1  20
TORSDOF 7
ENDMDL
MODEL 2
REMARK VINA RESULT:      -7.7      0.738      1.378
REMARK  Name = 
REMARK  8 active torsions:
REMARK  status: ('A' for Active; 'I' for Inactive)
REMARK    1  A    between atoms: C_1  and  O_2
REMARK    2  A    between atoms: O_2  and  C_3
REMARK    3  A    between atoms: C_6  and  C_7
REMARK    4  A    between atoms: C_7  and  N_8
REMARK    5  A    between atoms: N_8  and  C_9
REMARK    6  A    between atoms: N_8  and  C_16
REMARK    7  A    between atoms: C_9  and  C_10
REMARK    8  A    between atoms: C_20  and  C_22
REMARK                            x       y       z     vdW  Elec       q    Type
REMARK                         _______ _______ _______ _____ _____    ______ ____
ROOT
ATOM      1  C   UNL     1       0.960  13.538  18.612  0.00  0.00    +0.000 C 
ATOM      2  C   UNL     1       2.280  13.421  17.839  0.00  0.00    +0.000 C 
ATOM      3  C   UNL     1       3.456  13.793  18.701  0.00  0.00    +0.000 C 
ATOM      4  N   UNL     1       3.391  15.155  19.201  0.00  0.00    +0.000 N 
ATOM      5  C   UNL     1       4.536  15.899  19.535  0.00  0.00    +0.000 C 
ATOM      6  O   UNL     1       4.485  17.051  19.956  0.00  0.00    +0.000 OA
ATOM      7  C   UNL     1       2.101  15.580  19.748  0.00  0.00    +0.000 C 
ATOM      8  C   UNL     1       0.883  15.051  18.977  0.00  0.00    +0.000 C 
ENDROOT
BRANCH   5   9
ATOM      9  C   UNL     1       5.881  15.295  19.351  0.00  0.00    +0.000 A 
ATOM     10  C   UNL     1       6.700  14.946  20.425  0.00  0.00    +0.000 A 
ATOM     11  C   UNL     1       7.863  14.218  20.205  0.00  0.00    +0.000 A 
ATOM     12  C   UNL     1       8.254  13.973  18.894  0.00  0.00    +0.000 A 
ATOM     13  N   UNL     1       9.464  13.245  18.683  0.00  0.00    +0.000 N 
ATOM     14  C   UNL     1      10.105  13.054  17.479  0.00  0.00    +0.000 A 
ATOM     15  C   UNL     1      11.232  12.309  17.738  0.00  0.00    +0.000 A 
ATOM     16  C   UNL     1      11.191  12.075  19.122  0.00  0.00    +0.000 A 
ATOM     17  N   UNL     1      10.139  12.648  19.708  0.00  0.00    +0.000 NA
ATOM     18  N   UNL     1       7.538  14.411  17.818  0.00  0.00    +0.000 NA
ATOM     19  C   UNL     1       6.361  15.050  18.072  0.00  0.00    +0.000 A 
ENDBRANCH   5   9
BRANCH   1  20
ATOM     20  N   UNL     1       0.809  12.607  19.774  0.00  0.00    +0.000 NA
BRANCH  20  21
ATOM     21  C   UNL     1       0.220  13.331  20.921  0.00  0.00    +0.000 C 
BRANCH  21  25
ATOM     22  C   UNL     1      -3.499  12.458  22.926  0.00  0.00    +0.000 A 
ATOM     23  C   UNL     1      -2.326  11.838  23.357  0.00  0.00    +0.000 A 
ATOM     24  C   UNL     1      -1.118  12.026  22.667  0.00  0.00    +0.000 A 
ATOM     25  C   UNL     1      -1.082  12.825  21.518  0.00  0.00    +0.000 A 
ATOM     26  C   UNL     1      -2.288  13.366  21.044  0.00  0.00    +0.000 A 
ATOM     27  C   UNL     1      -3.488  13.180  21.733  0.00  0.00    +0.000 A 
BRANCH  22  29
ATOM     28  C   UNL     1      -5.580  13.336  23.576  0.00  0.00    +0.000 C 
ATOM     29  O   UNL     1      -4.604  12.300  23.717  0.00  0.00    +0.000 OA
ENDBRANCH  22  29
ENDBRANCH  21  25
ENDBRANCH  20  21
BRANCH  20  30
ATOM     30  C   UNL     1       0.058  11.355  19.478  0.00  0.00    +0.000 C 
BRANCH  30  31
ATOM     31  C   UNL     1       0.829  10.045  19.368  0.00  0.00    +0.000 A 
ATOM     32  C   UNL     1       0.955   9.153  20.445  0.00  0.00    +0.000 A 
ATOM     33  C   UNL     1       1.678   7.964  20.332  0.00  0.00    +0.000 A 
ATOM     34  C   UNL     1       2.265   7.626  19.123  0.00  0.00    +0.000 A 
ATOM     35  C   UNL     1       2.111   8.469  18.027  0.00  0.00    +0.000 A 
ATOM     36  C   UNL     1       1.397   9.663  18.144  0.00  0.00    +0.000 A 
ENDBRANCH  30  31
ENDBRANCH  20  30
ENDBRANCH   1  20
TORSDOF 7
ENDMDL
MODEL 3
REMARK VINA RESULT:      -7.5      1.531      2.388
REMARK  Name = 
REMARK  8 active torsions:
REMARK  status: ('A' for Active; 'I' for Inactive)
REMARK    1  A    between atoms: C_1  and  O_2
REMARK    2  A    between atoms: O_2  and  C_3
REMARK    3  A    between atoms: C_6  and  C_7
REMARK    4  A    between atoms: C_7  and  N_8
REMARK    5  A    between atoms: N_8  and  C_9
REMARK    6  A    between atoms: N_8  and  C_16
REMARK    7  A    between atoms: C_9  and  C_10
REMARK    8  A    between atoms: C_20  and  C_22
REMARK                            x       y       z     vdW  Elec       q    Type
REMARK                         _______ _______ _______ _____ _____    ______ ____
ROOT
ATOM      1  C   UNL     1       0.682  13.436  19.006  0.00  0.00    +0.000 C 
ATOM      2  C   UNL     1       1.971  13.148  18.225  0.00  0.00    +0.000 C 
ATOM      3  C   UNL     1       3.170  13.750  18.905  0.00  0.00    +0.000 C 
ATOM      4  N   UNL     1       3.086  15.193  19.041  0.00  0.00    +0.000 N 
ATOM      5  C   UNL     1       4.221  16.019  19.118  0.00  0.00    +0.000 C 
ATOM      6  O   UNL     1       4.154  17.239  19.231  0.00  0.00    +0.000 OA
ATOM      7  C   UNL     1       1.808  15.722  19.523  0.00  0.00    +0.000 C 
ATOM      8  C   UNL     1       0.575  14.990  18.974  0.00  0.00    +0.000 C 
ENDROOT
BRANCH   5   9
ATOM      9  C   UNL     1       5.574  15.412  19.029  0.00  0.00    +0.000 A 
ATOM     10  C   UNL     1       6.413  15.285  20.136  0.00  0.00    +0.000 A 
ATOM     11  C   UNL     1       7.587  14.548  20.040  0.00  0.00    +0.000 A 
ATOM     12  C   UNL     1       7.966  14.065  18.792  0.00  0.00    +0.000 A 
ATOM     13  N   UNL     1       9.186  13.330  18.703  0.00  0.00    +0.000 N 
ATOM     14  C   UNL     1       9.815  12.924  17.547  0.00  0.00    +0.000 A 
ATOM     15  C   UNL     1      10.958  12.260  17.924  0.00  0.00    +0.000 A 
ATOM     16  C   UNL     1      10.940  12.291  19.327  0.00  0.00    +0.000 A 
ATOM     17  N   UNL     1       9.884  12.948  19.811  0.00  0.00    +0.000 NA
ATOM     18  N   UNL     1       7.228  14.280  17.664  0.00  0.00    +0.000 NA
ATOM     19  C   UNL     1       6.043  14.937  17.812  0.00  0.00    +0.000 A 
ENDBRANCH   5   9
BRANCH   1  20
ATOM     20  N   UNL     1       0.607  12.833  20.374  0.00  0.00    +0.000 NA
BRANCH  20  21
ATOM     21  C   UNL     1       0.122  13.842  21.339  0.00  0.00    +0.000 C 
BRANCH  21  25
ATOM     22  C   UNL     1      -3.810  12.782  22.765  0.00  0.00    +0.000 A 
ATOM     23  C   UNL     1      -3.666  13.857  21.886  0.00  0.00    +0.000 A 
ATOM     24  C   UNL     1      -2.394  14.287  21.480  0.00  0.00    +0.000 A 
ATOM     25  C   UNL     1      -1.246  13.653  21.971  0.00  0.00    +0.000 A 
ATOM     26  C   UNL     1      -1.404  12.635  22.926  0.00  0.00    +0.000 A 
ATOM     27  C   UNL     1      -2.672  12.207  23.327  0.00  0.00    +0.000 A 
BRANCH  22  29
ATOM     28  C   UNL     1      -6.067  12.882  22.116  0.00  0.00    +0.000 C 
ATOM     29  O   UNL     1      -5.088  12.369  23.025  0.00  0.00    +0.000 OA
ENDBRANCH  22  29
ENDBRANCH  21  25
ENDBRANCH  20  21
BRANCH  20  30
ATOM     30  C   UNL     1      -0.184  11.573  20.459  0.00  0.00    +0.000 C 
BRANCH  30  31
ATOM     31  C   UNL     1      -1.044  11.165  19.270  0.00  0.00    +0.000 A 
ATOM     32  C   UNL     1      -0.636  10.193  18.342  0.00  0.00    +0.000 A 
ATOM     33  C   UNL     1      -1.429   9.842  17.249  0.00  0.00    +0.000 A 
ATOM     34  C   UNL     1      -2.670  10.434  17.079  0.00  0.00    +0.000 A 
ATOM     35  C   UNL     1      -3.120  11.364  18.013  0.00  0.00    +0.000 A 
ATOM     36  C   UNL     1      -2.320  11.722  19.099  0.00  0.00    +0.000 A 
ENDBRANCH  30  31
ENDBRANCH  20  30
ENDBRANCH   1  20
TORSDOF 7
ENDMDL
MODEL 4
REMARK VINA RESULT:      -7.4      5.488     10.847
REMARK  Name = 
REMARK  8 active torsions:
REMARK  status: ('A' for Active; 'I' for Inactive)
REMARK    1  A    between atoms: C_1  and  O_2
REMARK    2  A    between atoms: O_2  and  C_3
REMARK    3  A    between atoms: C_6  and  C_7
REMARK    4  A    between atoms: C_7  and  N_8
REMARK    5  A    between atoms: N_8  and  C_9
REMARK    6  A    between atoms: N_8  and  C_16
REMARK    7  A    between atoms: C_9  and  C_10
REMARK    8  A    between atoms: C_20  and  C_22
REMARK                            x       y       z     vdW  Elec       q    Type
REMARK                         _______ _______ _______ _____ _____    ______ ____
ROOT
ATOM      1  C   UNL     1       3.591   3.380  17.029  0.00  0.00    +0.000 C 
ATOM      2  C   UNL     1       2.416   4.368  17.008  0.00  0.00    +0.000 C 
ATOM      3  C   UNL     1       2.603   5.464  18.021  0.00  0.00    +0.000 C 
ATOM      4  N   UNL     1       2.702   4.972  19.384  0.00  0.00    +0.000 N 
ATOM      5  C   UNL     1       2.339   5.743  20.500  0.00  0.00    +0.000 C 
ATOM      6  O   UNL     1       2.420   5.331  21.654  0.00  0.00    +0.000 OA
ATOM      7  C   UNL     1       3.584   3.820  19.591  0.00  0.00    +0.000 C 
ATOM      8  C   UNL     1       3.537   2.779  18.465  0.00  0.00    +0.000 C 
ENDROOT
BRANCH   5   9
ATOM      9  C   UNL     1       1.802   7.114  20.300  0.00  0.00    +0.000 A 
ATOM     10  C   UNL     1       2.101   7.880  19.173  0.00  0.00    +0.000 A 
ATOM     11  C   UNL     1       1.429   9.075  18.944  0.00  0.00    +0.000 A 
ATOM     12  C   UNL     1       0.565   9.548  19.925  0.00  0.00    +0.000 A 
ATOM     13  N   UNL     1      -0.099  10.788  19.688  0.00  0.00    +0.000 N 
ATOM     14  C   UNL     1      -0.849  11.503  20.596  0.00  0.00    +0.000 A 
ATOM     15  C   UNL     1      -1.290  12.634  19.951  0.00  0.00    +0.000 A 
ATOM     16  C   UNL     1      -0.779  12.521  18.648  0.00  0.00    +0.000 A 
ATOM     17  N   UNL     1      -0.045  11.420  18.479  0.00  0.00    +0.000 NA
ATOM     18  N   UNL     1       0.346   8.882  21.096  0.00  0.00    +0.000 NA
ATOM     19  C   UNL     1       0.959   7.674  21.249  0.00  0.00    +0.000 A 
ENDBRANCH   5   9
BRANCH   1  20
ATOM     20  N   UNL     1       4.919   3.949  16.640  0.00  0.00    +0.000 NA
BRANCH  20  21
ATOM     21  C   UNL     1       5.723   4.216  17.852  0.00  0.00    +0.000 C 
BRANCH  21  25
ATOM     22  C   UNL     1       7.728   8.035  17.824  0.00  0.00    +0.000 A 
ATOM     23  C   UNL     1       8.194   7.022  18.663  0.00  0.00    +0.000 A 
ATOM     24  C   UNL     1       7.508   5.803  18.766  0.00  0.00    +0.000 A 
ATOM     25  C   UNL     1       6.328   5.595  18.042  0.00  0.00    +0.000 A 
ATOM     26  C   UNL     1       5.822   6.657  17.275  0.00  0.00    +0.000 A 
ATOM     27  C   UNL     1       6.507   7.870  17.171  0.00  0.00    +0.000 A 
BRANCH  22  29
ATOM     28  C   UNL     1       8.953   9.689  18.960  0.00  0.00    +0.000 C 
ATOM     29  O   UNL     1       8.515   9.149  17.709  0.00  0.00    +0.000 OA
ENDBRANCH  22  29
ENDBRANCH  21  25
ENDBRANCH  20  21
BRANCH  20  30
ATOM     30  C   UNL     1       5.681   3.138  15.649  0.00  0.00    +0.000 C 
BRANCH  30  31
ATOM     31  C   UNL     1       6.332   3.845  14.466  0.00  0.00    +0.000 A 
ATOM     32  C   UNL     1       7.271   4.876  14.628  0.00  0.00    +0.000 A 
ATOM     33  C   UNL     1       7.846   5.523  13.534  0.00  0.00    +0.000 A 
ATOM     34  C   UNL     1       7.517   5.128  12.247  0.00  0.00    +0.000 A 
ATOM     35  C   UNL     1       6.627   4.075  12.061  0.00  0.00    +0.000 A 
ATOM     36  C   UNL     1       6.043   3.436  13.156  0.00  0.00    +0.000 A 
ENDBRANCH  30  31
ENDBRANCH  20  30
ENDBRANCH   1  20
TORSDOF 7
ENDMDL
MODEL 5
REMARK VINA RESULT:      -7.4      1.671      2.353
REMARK  Name = 
REMARK  8 active torsions:
REMARK  status: ('A' for Active; 'I' for Inactive)
REMARK    1  A    between atoms: C_1  and  O_2
REMARK    2  A    between atoms: O_2  and  C_3
REMARK    3  A    between atoms: C_6  and  C_7
REMARK    4  A    between atoms: C_7  and  N_8
REMARK    5  A    between atoms: N_8  and  C_9
REMARK    6  A    between atoms: N_8  and  C_16
REMARK    7  A    between atoms: C_9  and  C_10
REMARK    8  A    between atoms: C_20  and  C_22
REMARK                            x       y       z     vdW  Elec       q    Type
REMARK                         _______ _______ _______ _____ _____    ______ ____
ROOT
ATOM      1  C   UNL     1       0.136  13.441  18.864  0.00  0.00    +0.000 C 
ATOM      2  C   UNL     1       1.446  13.156  18.119  0.00  0.00    +0.000 C 
ATOM      3  C   UNL     1       2.627  13.750  18.839  0.00  0.00    +0.000 C 
ATOM      4  N   UNL     1       2.542  15.192  18.985  0.00  0.00    +0.000 N 
ATOM      5  C   UNL     1       3.675  16.014  19.102  0.00  0.00    +0.000 C 
ATOM      6  O   UNL     1       3.608  17.234  19.223  0.00  0.00    +0.000 OA
ATOM      7  C   UNL     1       1.251  15.720  19.434  0.00  0.00    +0.000 C 
ATOM      8  C   UNL     1       0.033  14.995  18.843  0.00  0.00    +0.000 C 
ENDROOT
BRANCH   5   9
ATOM      9  C   UNL     1       5.030  15.405  19.048  0.00  0.00    +0.000 A 
ATOM     10  C   UNL     1       5.628  15.012  17.851  0.00  0.00    +0.000 A 
ATOM     11  C   UNL     1       6.962  14.622  17.835  0.00  0.00    +0.000 A 
ATOM     12  C   UNL     1       7.632  14.502  19.047  0.00  0.00    +0.000 A 
ATOM     13  N   UNL     1       8.994  14.077  19.017  0.00  0.00    +0.000 N 
ATOM     14  C   UNL     1       9.769  13.733  20.103  0.00  0.00    +0.000 A 
ATOM     15  C   UNL     1      11.005  13.377  19.618  0.00  0.00    +0.000 A 
ATOM     16  C   UNL     1      10.904  13.550  18.228  0.00  0.00    +0.000 A 
ATOM     17  N   UNL     1       9.691  13.956  17.850  0.00  0.00    +0.000 NA
ATOM     18  N   UNL     1       7.035  14.759  20.247  0.00  0.00    +0.000 NA
ATOM     19  C   UNL     1       5.752  15.218  20.217  0.00  0.00    +0.000 A 
ENDBRANCH   5   9
BRANCH   1  20
ATOM     20  N   UNL     1       0.020  12.827  20.224  0.00  0.00    +0.000 NA
BRANCH  20  21
ATOM     21  C   UNL     1      -0.448  13.841  21.192  0.00  0.00    +0.000 C 
BRANCH  21  25
ATOM     22  C   UNL     1      -4.444  12.914  22.527  0.00  0.00    +0.000 A 
ATOM     23  C   UNL     1      -4.261  13.868  21.526  0.00  0.00    +0.000 A 
ATOM     24  C   UNL     1      -2.971  14.262  21.137  0.00  0.00    +0.000 A 
ATOM     25  C   UNL     1      -1.848  13.715  21.769  0.00  0.00    +0.000 A 
ATOM     26  C   UNL     1      -2.051  12.825  22.837  0.00  0.00    +0.000 A 
ATOM     27  C   UNL     1      -3.335  12.433  23.221  0.00  0.00    +0.000 A 
BRANCH  22  29
ATOM     28  C   UNL     1      -6.164  12.719  24.118  0.00  0.00    +0.000 C 
ATOM     29  O   UNL     1      -5.732  12.518  22.769  0.00  0.00    +0.000 OA
ENDBRANCH  22  29
ENDBRANCH  21  25
ENDBRANCH  20  21
BRANCH  20  30
ATOM     30  C   UNL     1      -0.813  11.593  20.284  0.00  0.00    +0.000 C 
BRANCH  30  31
ATOM     31  C   UNL     1      -1.587  11.169  19.042  0.00  0.00    +0.000 A 
ATOM     32  C   UNL     1      -1.108  10.195  18.150  0.00  0.00    +0.000 A 
ATOM     33  C   UNL     1      -1.823   9.830  17.009  0.00  0.00    +0.000 A 
ATOM     34  C   UNL     1      -3.055  10.410  16.751  0.00  0.00    +0.000 A 
ATOM     35  C   UNL     1      -3.574  11.341  17.645  0.00  0.00    +0.000 A 
ATOM     36  C   UNL     1      -2.853  11.714  18.781  0.00  0.00    +0.000 A 
ENDBRANCH  30  31
ENDBRANCH  20  30
ENDBRANCH   1  20
TORSDOF 7
ENDMDL
MODEL 6
REMARK VINA RESULT:      -7.3      1.222      1.831
REMARK  Name = 
REMARK  8 active torsions:
REMARK  status: ('A' for Active; 'I' for Inactive)
REMARK    1  A    between atoms: C_1  and  O_2
REMARK    2  A    between atoms: O_2  and  C_3
REMARK    3  A    between atoms: C_6  and  C_7
REMARK    4  A    between atoms: C_7  and  N_8
REMARK    5  A    between atoms: N_8  and  C_9
REMARK    6  A    between atoms: N_8  and  C_16
REMARK    7  A    between atoms: C_9  and  C_10
REMARK    8  A    between atoms: C_20  and  C_22
REMARK                            x       y       z     vdW  Elec       q    Type
REMARK                         _______ _______ _______ _____ _____    ______ ____
ROOT
ATOM      1  C   UNL     1       0.914  13.807  19.572  0.00  0.00    +0.000 C 
ATOM      2  C   UNL     1       2.131  13.419  18.722  0.00  0.00    +0.000 C 
ATOM      3  C   UNL     1       3.403  13.977  19.299  0.00  0.00    +0.000 C 
ATOM      4  N   UNL     1       3.405  15.427  19.384  0.00  0.00    +0.000 N 
ATOM      5  C   UNL     1       4.585  16.190  19.355  0.00  0.00    +0.000 C 
ATOM      6  O   UNL     1       4.591  17.415  19.425  0.00  0.00    +0.000 OA
ATOM      7  C   UNL     1       2.192  16.043  19.926  0.00  0.00    +0.000 C 
ATOM      8  C   UNL     1       0.888  15.362  19.486  0.00  0.00    +0.000 C 
ENDROOT
BRANCH   5   9
ATOM      9  C   UNL     1       5.896  15.506  19.204  0.00  0.00    +0.000 A 
ATOM     10  C   UNL     1       6.734  15.243  20.288  0.00  0.00    +0.000 A 
ATOM     11  C   UNL     1       7.856  14.441  20.121  0.00  0.00    +0.000 A 
ATOM     12  C   UNL     1       8.192  14.029  18.837  0.00  0.00    +0.000 A 
ATOM     13  N   UNL     1       9.361  13.225  18.677  0.00  0.00    +0.000 N 
ATOM     14  C   UNL     1       9.952  12.867  17.486  0.00  0.00    +0.000 A 
ATOM     15  C   UNL     1      11.053  12.105  17.797  0.00  0.00    +0.000 A 
ATOM     16  C   UNL     1      11.049  12.032  19.199  0.00  0.00    +0.000 A 
ATOM     17  N   UNL     1      10.043  12.718  19.745  0.00  0.00    +0.000 NA
ATOM     18  N   UNL     1       7.460  14.374  17.738  0.00  0.00    +0.000 NA
ATOM     19  C   UNL     1       6.322  15.093  17.950  0.00  0.00    +0.000 A 
ENDBRANCH   5   9
BRANCH   1  20
ATOM     20  N   UNL     1       0.898  13.258  20.964  0.00  0.00    +0.000 NA
BRANCH  20  21
ATOM     21  C   UNL     1      -0.096  13.990  21.778  0.00  0.00    +0.000 C 
BRANCH  21  25
ATOM     22  C   UNL     1      -4.143  12.790  22.669  0.00  0.00    +0.000 A 
ATOM     23  C   UNL     1      -3.094  12.290  23.442  0.00  0.00    +0.000 A 
ATOM     24  C   UNL     1      -1.761  12.585  23.119  0.00  0.00    +0.000 A 
ATOM     25  C   UNL     1      -1.465  13.369  21.998  0.00  0.00    +0.000 A 
ATOM     26  C   UNL     1      -2.526  13.786  21.177  0.00  0.00    +0.000 A 
ATOM     27  C   UNL     1      -3.853  13.494  21.502  0.00  0.00    +0.000 A 
BRANCH  22  29
ATOM     28  C   UNL     1      -6.080  13.679  23.660  0.00  0.00    +0.000 C 
ATOM     29  O   UNL     1      -5.411  12.536  23.117  0.00  0.00    +0.000 OA
ENDBRANCH  22  29
ENDBRANCH  21  25
ENDBRANCH  20  21
BRANCH  20  30
ATOM     30  C   UNL     1       0.695  11.785  21.053  0.00  0.00    +0.000 C 
BRANCH  30  31
ATOM     31  C   UNL     1       0.180  11.039  19.827  0.00  0.00    +0.000 A 
ATOM     32  C   UNL     1      -1.142  11.164  19.370  0.00  0.00    +0.000 A 
ATOM     33  C   UNL     1      -1.601  10.462  18.255  0.00  0.00    +0.000 A 
ATOM     34  C   UNL     1      -0.735   9.642  17.550  0.00  0.00    +0.000 A 
ATOM     35  C   UNL     1       0.593   9.541  17.954  0.00  0.00    +0.000 A 
ATOM     36  C   UNL     1       1.049  10.235  19.076  0.00  0.00    +0.000 A 
ENDBRANCH  30  31
ENDBRANCH  20  30
ENDBRANCH   1  20
TORSDOF 7
ENDMDL
MODEL 7
REMARK VINA RESULT:      -7.3      0.677      1.350
REMARK  Name = 
REMARK  8 active torsions:
REMARK  status: ('A' for Active; 'I' for Inactive)
REMARK    1  A    between atoms: C_1  and  O_2
REMARK    2  A    between atoms: O_2  and  C_3
REMARK    3  A    between atoms: C_6  and  C_7
REMARK    4  A    between atoms: C_7  and  N_8
REMARK    5  A    between atoms: N_8  and  C_9
REMARK    6  A    between atoms: N_8  and  C_16
REMARK    7  A    between atoms: C_9  and  C_10
REMARK    8  A    between atoms: C_20  and  C_22
REMARK                            x       y       z     vdW  Elec       q    Type
REMARK                         _______ _______ _______ _____ _____    ______ ____
ROOT
ATOM      1  C   UNL     1       0.783  13.482  18.770  0.00  0.00    +0.000 C 
ATOM      2  C   UNL     1       2.079  13.196  18.000  0.00  0.00    +0.000 C 
ATOM      3  C   UNL     1       3.284  13.703  18.745  0.00  0.00    +0.000 C 
ATOM      4  N   UNL     1       3.251  15.136  18.977  0.00  0.00    +0.000 N 
ATOM      5  C   UNL     1       4.414  15.909  19.134  0.00  0.00    +0.000 C 
ATOM      6  O   UNL     1       4.391  17.121  19.329  0.00  0.00    +0.000 OA
ATOM      7  C   UNL     1       1.982  15.682  19.466  0.00  0.00    +0.000 C 
ATOM      8  C   UNL     1       0.737  15.037  18.841  0.00  0.00    +0.000 C 
ENDROOT
BRANCH   5   9
ATOM      9  C   UNL     1       5.745  15.257  19.035  0.00  0.00    +0.000 A 
ATOM     10  C   UNL     1       6.274  14.812  17.823  0.00  0.00    +0.000 A 
ATOM     11  C   UNL     1       7.593  14.380  17.756  0.00  0.00    +0.000 A 
ATOM     12  C   UNL     1       8.317  14.273  18.938  0.00  0.00    +0.000 A 
ATOM     13  N   UNL     1       9.663  13.805  18.857  0.00  0.00    +0.000 N 
ATOM     14  C   UNL     1      10.478  13.467  19.915  0.00  0.00    +0.000 A 
ATOM     15  C   UNL     1      11.678  13.059  19.383  0.00  0.00    +0.000 A 
ATOM     16  C   UNL     1      11.516  13.197  17.995  0.00  0.00    +0.000 A 
ATOM     17  N   UNL     1      10.299  13.630  17.663  0.00  0.00    +0.000 NA
ATOM     18  N   UNL     1       7.786  14.582  20.157  0.00  0.00    +0.000 NA
ATOM     19  C   UNL     1       6.517  15.079  20.174  0.00  0.00    +0.000 A 
ENDBRANCH   5   9
BRANCH   1  20
ATOM     20  N   UNL     1       0.652  12.792  20.092  0.00  0.00    +0.000 NA
BRANCH  20  21
ATOM     21  C   UNL     1       0.151  13.745  21.105  0.00  0.00    +0.000 C 
BRANCH  21  25
ATOM     22  C   UNL     1      -3.824  12.667  22.388  0.00  0.00    +0.000 A 
ATOM     23  C   UNL     1      -3.663  13.480  21.265  0.00  0.00    +0.000 A 
ATOM     24  C   UNL     1      -2.391  13.926  20.878  0.00  0.00    +0.000 A 
ATOM     25  C   UNL     1      -1.264  13.579  21.633  0.00  0.00    +0.000 A 
ATOM     26  C   UNL     1      -1.453  12.838  22.811  0.00  0.00    +0.000 A 
ATOM     27  C   UNL     1      -2.720  12.392  23.193  0.00  0.00    +0.000 A 
BRANCH  22  29
ATOM     28  C   UNL     1      -6.121  13.166  22.436  0.00  0.00    +0.000 C 
ATOM     29  O   UNL     1      -5.087  12.196  22.629  0.00  0.00    +0.000 OA
ENDBRANCH  22  29
ENDBRANCH  21  25
ENDBRANCH  20  21
BRANCH  20  30
ATOM     30  C   UNL     1      -0.162  11.545  20.068  0.00  0.00    +0.000 C 
BRANCH  30  31
ATOM     31  C   UNL     1       0.555  10.201  20.051  0.00  0.00    +0.000 A 
ATOM     32  C   UNL     1       0.568   9.339  21.160  0.00  0.00    +0.000 A 
ATOM     33  C   UNL     1       1.242   8.118  21.132  0.00  0.00    +0.000 A 
ATOM     34  C   UNL     1       1.894   7.715  19.977  0.00  0.00    +0.000 A 
ATOM     35  C   UNL     1       1.853   8.528  18.849  0.00  0.00    +0.000 A 
ATOM     36  C   UNL     1       1.188   9.755  18.881  0.00  0.00    +0.000 A 
ENDBRANCH  30  31
ENDBRANCH  20  30
ENDBRANCH   1  20
TORSDOF 7
ENDMDL
MODEL 8
REMARK VINA RESULT:      -7.3      5.449     10.769
REMARK  Name = 
REMARK  8 active torsions:
REMARK  status: ('A' for Active; 'I' for Inactive)
REMARK    1  A    between atoms: C_1  and  O_2
REMARK    2  A    between atoms: O_2  and  C_3
REMARK    3  A    between atoms: C_6  and  C_7
REMARK    4  A    between atoms: C_7  and  N_8
REMARK    5  A    between atoms: N_8  and  C_9
REMARK    6  A    between atoms: N_8  and  C_16
REMARK    7  A    between atoms: C_9  and  C_10
REMARK    8  A    between atoms: C_20  and  C_22
REMARK                            x       y       z     vdW  Elec       q    Type
REMARK                         _______ _______ _______ _____ _____    ______ ____
ROOT
ATOM      1  C   UNL     1       3.477   3.331  17.065  0.00  0.00    +0.000 C 
ATOM      2  C   UNL     1       2.300   4.316  17.060  0.00  0.00    +0.000 C 
ATOM      3  C   UNL     1       2.475   5.386  18.103  0.00  0.00    +0.000 C 
ATOM      4  N   UNL     1       2.565   4.859  19.453  0.00  0.00    +0.000 N 
ATOM      5  C   UNL     1       2.191   5.601  20.586  0.00  0.00    +0.000 C 
ATOM      6  O   UNL     1       2.264   5.159  21.730  0.00  0.00    +0.000 OA
ATOM      7  C   UNL     1       3.449   3.705  19.638  0.00  0.00    +0.000 C 
ATOM      8  C   UNL     1       3.413   2.693  18.485  0.00  0.00    +0.000 C 
ENDROOT
BRANCH   5   9
ATOM      9  C   UNL     1       1.651   6.975  20.417  0.00  0.00    +0.000 A 
ATOM     10  C   UNL     1       0.762   7.549  21.326  0.00  0.00    +0.000 A 
ATOM     11  C   UNL     1       0.433   8.895  21.222  0.00  0.00    +0.000 A 
ATOM     12  C   UNL     1       0.897   9.608  20.122  0.00  0.00    +0.000 A 
ATOM     13  N   UNL     1       0.531  10.984  20.015  0.00  0.00    +0.000 N 
ATOM     14  C   UNL     1       0.740  11.805  18.929  0.00  0.00    +0.000 A 
ATOM     15  C   UNL     1       0.224  13.037  19.253  0.00  0.00    +0.000 A 
ATOM     16  C   UNL     1      -0.264  12.885  20.561  0.00  0.00    +0.000 A 
ATOM     17  N   UNL     1      -0.100  11.646  21.028  0.00  0.00    +0.000 NA
ATOM     18  N   UNL     1       1.666   9.041  19.148  0.00  0.00    +0.000 NA
ATOM     19  C   UNL     1       2.036   7.741  19.326  0.00  0.00    +0.000 A 
ENDBRANCH   5   9
BRANCH   1  20
ATOM     20  N   UNL     1       4.807   3.914  16.702  0.00  0.00    +0.000 NA
BRANCH  20  21
ATOM     21  C   UNL     1       5.573   4.215  17.930  0.00  0.00    +0.000 C 
BRANCH  21  25
ATOM     22  C   UNL     1       7.651   7.991  17.748  0.00  0.00    +0.000 A 
ATOM     23  C   UNL     1       8.162   6.965  18.544  0.00  0.00    +0.000 A 
ATOM     24  C   UNL     1       7.461   5.760  18.700  0.00  0.00    +0.000 A 
ATOM     25  C   UNL     1       6.222   5.581  18.073  0.00  0.00    +0.000 A 
ATOM     26  C   UNL     1       5.678   6.656  17.352  0.00  0.00    +0.000 A 
ATOM     27  C   UNL     1       6.379   7.854  17.196  0.00  0.00    +0.000 A 
BRANCH  22  29
ATOM     28  C   UNL     1       8.821   9.745  18.788  0.00  0.00    +0.000 C 
ATOM     29  O   UNL     1       8.451   9.088  17.572  0.00  0.00    +0.000 OA
ENDBRANCH  22  29
ENDBRANCH  21  25
ENDBRANCH  20  21
BRANCH  20  30
ATOM     30  C   UNL     1       5.608   3.096  15.748  0.00  0.00    +0.000 C 
BRANCH  30  31
ATOM     31  C   UNL     1       6.260   3.788  14.557  0.00  0.00    +0.000 A 
ATOM     32  C   UNL     1       7.207   4.814  14.706  0.00  0.00    +0.000 A 
ATOM     33  C   UNL     1       7.783   5.447  13.604  0.00  0.00    +0.000 A 
ATOM     34  C   UNL     1       7.447   5.042  12.322  0.00  0.00    +0.000 A 
ATOM     35  C   UNL     1       6.550   3.993  12.148  0.00  0.00    +0.000 A 
ATOM     36  C   UNL     1       5.965   3.368  13.251  0.00  0.00    +0.000 A 
ENDBRANCH  30  31
ENDBRANCH  20  30
ENDBRANCH   1  20
TORSDOF 7
ENDMDL
MODEL 9
REMARK VINA RESULT:      -7.2      5.512      7.805
REMARK  Name = 
REMARK  8 active torsions:
REMARK  status: ('A' for Active; 'I' for Inactive)
REMARK    1  A    between atoms: C_1  and  O_2
REMARK    2  A    between atoms: O_2  and  C_3
REMARK    3  A    between atoms: C_6  and  C_7
REMARK    4  A    between atoms: C_7  and  N_8
REMARK    5  A    between atoms: N_8  and  C_9
REMARK    6  A    between atoms: N_8  and  C_16
REMARK    7  A    between atoms: C_9  and  C_10
REMARK    8  A    between atoms: C_20  and  C_22
REMARK                            x       y       z     vdW  Elec       q    Type
REMARK                         _______ _______ _______ _____ _____    ______ ____
ROOT
ATOM      1  C   UNL     1      -2.603  11.700  17.777  0.00  0.00    +0.000 C 
ATOM      2  C   UNL     1      -1.988  10.365  17.336  0.00  0.00    +0.000 C 
ATOM      3  C   UNL     1      -1.007   9.850  18.354  0.00  0.00    +0.000 C 
ATOM      4  N   UNL     1       0.102  10.756  18.589  0.00  0.00    +0.000 N 
ATOM      5  C   UNL     1       1.363  10.318  19.030  0.00  0.00    +0.000 C 
ATOM      6  O   UNL     1       2.304  11.081  19.228  0.00  0.00    +0.000 OA
ATOM      7  C   UNL     1      -0.245  12.168  18.767  0.00  0.00    +0.000 C 
ATOM      8  C   UNL     1      -1.378  12.659  17.855  0.00  0.00    +0.000 C 
ENDROOT
BRANCH   5   9
ATOM      9  C   UNL     1       1.601   8.867  19.243  0.00  0.00    +0.000 A 
ATOM     10  C   UNL     1       2.134   8.041  18.254  0.00  0.00    +0.000 A 
ATOM     11  C   UNL     1       2.508   6.738  18.561  0.00  0.00    +0.000 A 
ATOM     12  C   UNL     1       2.212   6.245  19.827  0.00  0.00    +0.000 A 
ATOM     13  N   UNL     1       2.580   4.898  20.121  0.00  0.00    +0.000 N 
ATOM     14  C   UNL     1       2.224   4.177  21.240  0.00  0.00    +0.000 A 
ATOM     15  C   UNL     1       2.784   2.929  21.108  0.00  0.00    +0.000 A 
ATOM     16  C   UNL     1       3.480   2.979  19.889  0.00  0.00    +0.000 A 
ATOM     17  N   UNL     1       3.352   4.156  19.275  0.00  0.00    +0.000 NA
ATOM     18  N   UNL     1       1.577   6.991  20.778  0.00  0.00    +0.000 NA
ATOM     19  C   UNL     1       1.299   8.288  20.468  0.00  0.00    +0.000 A 
ENDBRANCH   5   9
BRANCH   1  20
ATOM     20  N   UNL     1      -3.434  11.647  19.021  0.00  0.00    +0.000 NA
BRANCH  20  21
ATOM     21  C   UNL     1      -3.426  12.969  19.683  0.00  0.00    +0.000 C 
BRANCH  21  25
ATOM     22  C   UNL     1      -3.530  13.728  23.929  0.00  0.00    +0.000 A 
ATOM     23  C   UNL     1      -2.605  12.816  23.418  0.00  0.00    +0.000 A 
ATOM     24  C   UNL     1      -2.609  12.475  22.057  0.00  0.00    +0.000 A 
ATOM     25  C   UNL     1      -3.561  13.033  21.195  0.00  0.00    +0.000 A 
ATOM     26  C   UNL     1      -4.542  13.877  21.741  0.00  0.00    +0.000 A 
ATOM     27  C   UNL     1      -4.535  14.216  23.096  0.00  0.00    +0.000 A 
BRANCH  22  29
ATOM     28  C   UNL     1      -2.421  15.108  25.475  0.00  0.00    +0.000 C 
ATOM     29  O   UNL     1      -3.385  14.076  25.245  0.00  0.00    +0.000 OA
ENDBRANCH  22  29
ENDBRANCH  21  25
ENDBRANCH  20  21
BRANCH  20  30
ATOM     30  C   UNL     1      -4.824  11.146  18.823  0.00  0.00    +0.000 C 
BRANCH  30  31
ATOM     31  C   UNL     1      -5.912  12.137  18.430  0.00  0.00    +0.000 A 
ATOM     32  C   UNL     1      -6.878  12.597  19.340  0.00  0.00    +0.000 A 
ATOM     33  C   UNL     1      -7.877  13.493  18.959  0.00  0.00    +0.000 A 
ATOM     34  C   UNL     1      -7.913  13.976  17.661  0.00  0.00    +0.000 A 
ATOM     35  C   UNL     1      -6.937  13.575  16.754  0.00  0.00    +0.000 A 
ATOM     36  C   UNL     1      -5.944  12.670  17.133  0.00  0.00    +0.000 A 
ENDBRANCH  30  31
ENDBRANCH  20  30
ENDBRANCH   1  20
TORSDOF 7
ENDMDL
