MODEL 1
REMARK VINA RESULT:      -9.6      0.000      0.000
REMARK  Name = 
REMARK  4 active torsions:
REMARK  status: ('A' for Active; 'I' for Inactive)
REMARK    1  A    between atoms: C_1  and  C_2
REMARK    2  A    between atoms: C_5  and  C_7
REMARK    3  A    between atoms: C_15  and  N_16
REMARK    4  A    between atoms: N_17  and  C_18
REMARK                            x       y       z     vdW  Elec       q    Type
REMARK                         _______ _______ _______ _____ _____    ______ ____
ROOT
ATOM      1  C   UNL     1       2.515   3.068  17.386  0.00  0.00    +0.000 C 
ATOM      2  C   UNL     1       3.789   3.792  17.659  0.00  0.00    +0.000 C 
ATOM      3  N   UNL     1       4.655   4.029  16.732  0.00  0.00    +0.000 NA
ATOM      4  N   UNL     1       5.769   4.599  17.333  0.00  0.00    +0.000 N 
ATOM      5  C   UNL     1       6.881   4.993  16.561  0.00  0.00    +0.000 C 
ATOM      6  O   UNL     1       7.866   5.580  16.993  0.00  0.00    +0.000 OA
ATOM      7  C   UNL     1       5.601   4.757  18.733  0.00  0.00    +0.000 C 
ATOM      8  O   UNL     1       6.383   5.165  19.573  0.00  0.00    +0.000 OA
ATOM      9  C   UNL     1       4.194   4.270  19.009  0.00  0.00    +0.000 C 
ENDROOT
BRANCH   5  10
ATOM     10  C   UNL     1       6.823   4.706  15.089  0.00  0.00    +0.000 A 
ATOM     11  C   UNL     1       5.929   3.742  14.610  0.00  0.00    +0.000 A 
ATOM     12  C   UNL     1       5.951   3.461  13.253  0.00  0.00    +0.000 A 
ATOM     13  N   UNL     1       6.779   4.055  12.369  0.00  0.00    +0.000 NA
ATOM     14  C   UNL     1       7.607   5.003  12.850  0.00  0.00    +0.000 A 
ATOM     15  C   UNL     1       7.637   5.376  14.176  0.00  0.00    +0.000 A 
ENDBRANCH   5  10
BRANCH   9  16
ATOM     16  N   UNL     1       3.361   5.427  19.344  0.00  0.00    +0.000 NA
ATOM     17  N   UNL     1       3.280   6.244  18.402  0.00  0.00    +0.000 NA
BRANCH  17  18
ATOM     18  C   UNL     1       2.523   7.389  18.737  0.00  0.00    +0.000 A 
ATOM     19  C   UNL     1       2.153   8.372  17.809  0.00  0.00    +0.000 A 
ATOM     20  C   UNL     1       1.352   9.451  18.191  0.00  0.00    +0.000 A 
ATOM     21  C   UNL     1       0.886   9.568  19.506  0.00  0.00    +0.000 A 
ATOM     22  C   UNL     1       0.062  10.638  19.890  0.00  0.00    +0.000 A 
ATOM     23  C   UNL     1      -0.408  10.742  21.198  0.00  0.00    +0.000 A 
ATOM     24  C   UNL     1      -0.053   9.782  22.142  0.00  0.00    +0.000 A 
ATOM     25  C   UNL     1       0.770   8.714  21.775  0.00  0.00    +0.000 A 
ATOM     26  C   UNL     1       1.247   8.589  20.458  0.00  0.00    +0.000 A 
ATOM     27  C   UNL     1       2.063   7.512  20.055  0.00  0.00    +0.000 A 
ENDBRANCH  17  18
ENDBRANCH   9  16
TORSDOF 3
ENDMDL
MODEL 2
REMARK VINA RESULT:      -9.5      1.486      2.096
REMARK  Name = 
REMARK  4 active torsions:
REMARK  status: ('A' for Active; 'I' for Inactive)
REMARK    1  A    between atoms: C_1  and  C_2
REMARK    2  A    between atoms: C_5  and  C_7
REMARK    3  A    between atoms: C_15  and  N_16
REMARK    4  A    between atoms: N_17  and  C_18
REMARK                            x       y       z     vdW  Elec       q    Type
REMARK                         _______ _______ _______ _____ _____    ______ ____
ROOT
ATOM      1  C   UNL     1       3.896   3.259  17.398  0.00  0.00    +0.000 C 
ATOM      2  C   UNL     1       4.931   4.076  16.704  0.00  0.00    +0.000 C 
ATOM      3  N   UNL     1       5.223   3.899  15.459  0.00  0.00    +0.000 NA
ATOM      4  N   UNL     1       6.299   4.723  15.158  0.00  0.00    +0.000 N 
ATOM      5  C   UNL     1       6.830   4.765  13.853  0.00  0.00    +0.000 C 
ATOM      6  O   UNL     1       7.718   5.521  13.477  0.00  0.00    +0.000 OA
ATOM      7  C   UNL     1       6.715   5.493  16.276  0.00  0.00    +0.000 C 
ATOM      8  O   UNL     1       7.648   6.267  16.387  0.00  0.00    +0.000 OA
ATOM      9  C   UNL     1       5.739   5.131  17.375  0.00  0.00    +0.000 C 
ENDROOT
BRANCH   5  10
ATOM     10  C   UNL     1       6.221   3.839  12.840  0.00  0.00    +0.000 A 
ATOM     11  C   UNL     1       4.880   4.001  12.479  0.00  0.00    +0.000 A 
ATOM     12  C   UNL     1       4.338   3.086  11.589  0.00  0.00    +0.000 A 
ATOM     13  N   UNL     1       5.020   2.052  11.056  0.00  0.00    +0.000 NA
ATOM     14  C   UNL     1       6.319   1.937  11.395  0.00  0.00    +0.000 A 
ATOM     15  C   UNL     1       6.956   2.814  12.245  0.00  0.00    +0.000 A 
ENDBRANCH   5  10
BRANCH   9  16
ATOM     16  N   UNL     1       4.865   6.281  17.616  0.00  0.00    +0.000 NA
ATOM     17  N   UNL     1       3.944   6.018  18.418  0.00  0.00    +0.000 NA
BRANCH  17  18
ATOM     18  C   UNL     1       3.064   7.106  18.614  0.00  0.00    +0.000 A 
ATOM     19  C   UNL     1       2.757   8.043  17.618  0.00  0.00    +0.000 A 
ATOM     20  C   UNL     1       1.831   9.063  17.856  0.00  0.00    +0.000 A 
ATOM     21  C   UNL     1       1.176   9.163  19.089  0.00  0.00    +0.000 A 
ATOM     22  C   UNL     1       0.228  10.171  19.326  0.00  0.00    +0.000 A 
ATOM     23  C   UNL     1      -0.429  10.258  20.552  0.00  0.00    +0.000 A 
ATOM     24  C   UNL     1      -0.140   9.342  21.561  0.00  0.00    +0.000 A 
ATOM     25  C   UNL     1       0.804   8.336  21.340  0.00  0.00    +0.000 A 
ATOM     26  C   UNL     1       1.471   8.229  20.107  0.00  0.00    +0.000 A 
ATOM     27  C   UNL     1       2.413   7.213  19.850  0.00  0.00    +0.000 A 
ENDBRANCH  17  18
ENDBRANCH   9  16
TORSDOF 3
ENDMDL
MODEL 3
REMARK VINA RESULT:      -9.3      0.756      1.026
REMARK  Name = 
REMARK  4 active torsions:
REMARK  status: ('A' for Active; 'I' for Inactive)
REMARK    1  A    between atoms: C_1  and  C_2
REMARK    2  A    between atoms: C_5  and  C_7
REMARK    3  A    between atoms: C_15  and  N_16
REMARK    4  A    between atoms: N_17  and  C_18
REMARK                            x       y       z     vdW  Elec       q    Type
REMARK                         _______ _______ _______ _____ _____    ______ ____
ROOT
ATOM      1  C   UNL     1       2.131   4.075  17.255  0.00  0.00    +0.000 C 
ATOM      2  C   UNL     1       3.503   4.581  17.541  0.00  0.00    +0.000 C 
ATOM      3  N   UNL     1       4.431   4.595  16.644  0.00  0.00    +0.000 NA
ATOM      4  N   UNL     1       5.606   5.003  17.259  0.00  0.00    +0.000 N 
ATOM      5  C   UNL     1       6.798   5.138  16.518  0.00  0.00    +0.000 C 
ATOM      6  O   UNL     1       7.855   5.573  16.957  0.00  0.00    +0.000 OA
ATOM      7  C   UNL     1       5.420   5.288  18.637  0.00  0.00    +0.000 C 
ATOM      8  O   UNL     1       6.232   5.612  19.485  0.00  0.00    +0.000 OA
ATOM      9  C   UNL     1       3.939   5.077  18.876  0.00  0.00    +0.000 C 
ENDROOT
BRANCH   5  10
ATOM     10  C   UNL     1       6.741   4.761  15.066  0.00  0.00    +0.000 A 
ATOM     11  C   UNL     1       5.857   3.762  14.648  0.00  0.00    +0.000 A 
ATOM     12  C   UNL     1       5.880   3.398  13.310  0.00  0.00    +0.000 A 
ATOM     13  N   UNL     1       6.702   3.944  12.391  0.00  0.00    +0.000 NA
ATOM     14  C   UNL     1       7.522   4.927  12.813  0.00  0.00    +0.000 A 
ATOM     15  C   UNL     1       7.549   5.381  14.113  0.00  0.00    +0.000 A 
ENDBRANCH   5  10
BRANCH   9  16
ATOM     16  N   UNL     1       3.314   6.383  19.095  0.00  0.00    +0.000 NA
ATOM     17  N   UNL     1       2.443   6.350  19.989  0.00  0.00    +0.000 NA
BRANCH  17  18
ATOM     18  C   UNL     1       1.797   7.593  20.169  0.00  0.00    +0.000 A 
ATOM     19  C   UNL     1       1.701   8.569  19.168  0.00  0.00    +0.000 A 
ATOM     20  C   UNL     1       0.996   9.755  19.389  0.00  0.00    +0.000 A 
ATOM     21  C   UNL     1       0.355   9.990  20.611  0.00  0.00    +0.000 A 
ATOM     22  C   UNL     1      -0.374  11.170  20.832  0.00  0.00    +0.000 A 
ATOM     23  C   UNL     1      -1.019  11.393  22.047  0.00  0.00    +0.000 A 
ATOM     24  C   UNL     1      -0.936  10.442  23.061  0.00  0.00    +0.000 A 
ATOM     25  C   UNL     1      -0.211   9.266  22.857  0.00  0.00    +0.000 A 
ATOM     26  C   UNL     1       0.440   9.021  21.635  0.00  0.00    +0.000 A 
ATOM     27  C   UNL     1       1.162   7.835  21.395  0.00  0.00    +0.000 A 
ENDBRANCH  17  18
ENDBRANCH   9  16
TORSDOF 3
ENDMDL
MODEL 4
REMARK VINA RESULT:      -9.0      5.128      7.212
REMARK  Name = 
REMARK  4 active torsions:
REMARK  status: ('A' for Active; 'I' for Inactive)
REMARK    1  A    between atoms: C_1  and  C_2
REMARK    2  A    between atoms: C_5  and  C_7
REMARK    3  A    between atoms: C_15  and  N_16
REMARK    4  A    between atoms: N_17  and  C_18
REMARK                            x       y       z     vdW  Elec       q    Type
REMARK                         _______ _______ _______ _____ _____    ______ ____
ROOT
ATOM      1  C   UNL     1       7.632   4.702  18.210  0.00  0.00    +0.000 C 
ATOM      2  C   UNL     1       6.357   5.423  17.935  0.00  0.00    +0.000 C 
ATOM      3  N   UNL     1       5.223   5.012  18.394  0.00  0.00    +0.000 NA
ATOM      4  N   UNL     1       4.233   5.824  17.859  0.00  0.00    +0.000 N 
ATOM      5  C   UNL     1       2.879   5.629  18.202  0.00  0.00    +0.000 C 
ATOM      6  O   UNL     1       1.953   6.348  17.848  0.00  0.00    +0.000 OA
ATOM      7  C   UNL     1       4.765   6.835  17.017  0.00  0.00    +0.000 C 
ATOM      8  O   UNL     1       4.192   7.677  16.348  0.00  0.00    +0.000 OA
ATOM      9  C   UNL     1       6.266   6.646  17.091  0.00  0.00    +0.000 C 
ENDROOT
BRANCH   5  10
ATOM     10  C   UNL     1       2.567   4.474  19.109  0.00  0.00    +0.000 A 
ATOM     11  C   UNL     1       2.303   3.217  18.556  0.00  0.00    +0.000 A 
ATOM     12  C   UNL     1       1.956   2.192  19.423  0.00  0.00    +0.000 A 
ATOM     13  N   UNL     1       1.855   2.333  20.761  0.00  0.00    +0.000 NA
ATOM     14  C   UNL     1       2.147   3.546  21.271  0.00  0.00    +0.000 A 
ATOM     15  C   UNL     1       2.533   4.617  20.495  0.00  0.00    +0.000 A 
ENDBRANCH   5  10
BRANCH   9  16
ATOM     16  N   UNL     1       6.837   7.760  17.850  0.00  0.00    +0.000 NA
ATOM     17  N   UNL     1       7.710   8.378  17.205  0.00  0.00    +0.000 NA
BRANCH  17  18
ATOM     18  C   UNL     1       8.305   9.419  17.950  0.00  0.00    +0.000 A 
ATOM     19  C   UNL     1       9.008   9.214  19.145  0.00  0.00    +0.000 A 
ATOM     20  C   UNL     1       9.626  10.280  19.805  0.00  0.00    +0.000 A 
ATOM     21  C   UNL     1       9.570  11.577  19.279  0.00  0.00    +0.000 A 
ATOM     22  C   UNL     1      10.208  12.648  19.925  0.00  0.00    +0.000 A 
ATOM     23  C   UNL     1      10.158  13.934  19.391  0.00  0.00    +0.000 A 
ATOM     24  C   UNL     1       9.463  14.168  18.207  0.00  0.00    +0.000 A 
ATOM     25  C   UNL     1       8.820  13.112  17.556  0.00  0.00    +0.000 A 
ATOM     26  C   UNL     1       8.866  11.807  18.077  0.00  0.00    +0.000 A 
ATOM     27  C   UNL     1       8.243  10.720  17.431  0.00  0.00    +0.000 A 
ENDBRANCH  17  18
ENDBRANCH   9  16
TORSDOF 3
ENDMDL
MODEL 5
REMARK VINA RESULT:      -9.0      4.858     10.502
REMARK  Name = 
REMARK  4 active torsions:
REMARK  status: ('A' for Active; 'I' for Inactive)
REMARK    1  A    between atoms: C_1  and  C_2
REMARK    2  A    between atoms: C_5  and  C_7
REMARK    3  A    between atoms: C_15  and  N_16
REMARK    4  A    between atoms: N_17  and  C_18
REMARK                            x       y       z     vdW  Elec       q    Type
REMARK                         _______ _______ _______ _____ _____    ______ ____
ROOT
ATOM      1  C   UNL     1      -1.853  10.488  18.307  0.00  0.00    +0.000 C 
ATOM      2  C   UNL     1      -1.075  11.099  19.422  0.00  0.00    +0.000 C 
ATOM      3  N   UNL     1      -1.649  11.705  20.407  0.00  0.00    +0.000 NA
ATOM      4  N   UNL     1      -0.653  12.260  21.197  0.00  0.00    +0.000 N 
ATOM      5  C   UNL     1      -0.977  12.971  22.371  0.00  0.00    +0.000 C 
ATOM      6  O   UNL     1      -0.165  13.418  23.171  0.00  0.00    +0.000 OA
ATOM      7  C   UNL     1       0.646  11.978  20.700  0.00  0.00    +0.000 C 
ATOM      8  O   UNL     1       1.735  12.348  21.103  0.00  0.00    +0.000 OA
ATOM      9  C   UNL     1       0.412  11.101  19.489  0.00  0.00    +0.000 C 
ENDROOT
BRANCH   5  10
ATOM     10  C   UNL     1      -2.436  13.146  22.678  0.00  0.00    +0.000 A 
ATOM     11  C   UNL     1      -3.150  14.180  22.063  0.00  0.00    +0.000 A 
ATOM     12  C   UNL     1      -4.479  14.347  22.422  0.00  0.00    +0.000 A 
ATOM     13  N   UNL     1      -5.122  13.581  23.325  0.00  0.00    +0.000 NA
ATOM     14  C   UNL     1      -4.422  12.571  23.879  0.00  0.00    +0.000 A 
ATOM     15  C   UNL     1      -3.108  12.304  23.564  0.00  0.00    +0.000 A 
ENDBRANCH   5  10
BRANCH   9  16
ATOM     16  N   UNL     1       0.848   9.740  19.811  0.00  0.00    +0.000 NA
ATOM     17  N   UNL     1       1.601   9.263  18.936  0.00  0.00    +0.000 NA
BRANCH  17  18
ATOM     18  C   UNL     1       1.982   7.931  19.212  0.00  0.00    +0.000 A 
ATOM     19  C   UNL     1       1.624   7.248  20.382  0.00  0.00    +0.000 A 
ATOM     20  C   UNL     1       1.981   5.910  20.569  0.00  0.00    +0.000 A 
ATOM     21  C   UNL     1       2.693   5.215  19.584  0.00  0.00    +0.000 A 
ATOM     22  C   UNL     1       3.035   3.864  19.755  0.00  0.00    +0.000 A 
ATOM     23  C   UNL     1       3.734   3.174  18.766  0.00  0.00    +0.000 A 
ATOM     24  C   UNL     1       4.105   3.828  17.595  0.00  0.00    +0.000 A 
ATOM     25  C   UNL     1       3.775   5.174  17.412  0.00  0.00    +0.000 A 
ATOM     26  C   UNL     1       3.065   5.883  18.396  0.00  0.00    +0.000 A 
ATOM     27  C   UNL     1       2.701   7.235  18.231  0.00  0.00    +0.000 A 
ENDBRANCH  17  18
ENDBRANCH   9  16
TORSDOF 3
ENDMDL
MODEL 6
REMARK VINA RESULT:      -8.9      0.665      1.559
REMARK  Name = 
REMARK  4 active torsions:
REMARK  status: ('A' for Active; 'I' for Inactive)
REMARK    1  A    between atoms: C_1  and  C_2
REMARK    2  A    between atoms: C_5  and  C_7
REMARK    3  A    between atoms: C_15  and  N_16
REMARK    4  A    between atoms: N_17  and  C_18
REMARK                            x       y       z     vdW  Elec       q    Type
REMARK                         _______ _______ _______ _____ _____    ______ ____
ROOT
ATOM      1  C   UNL     1       2.687   2.407  17.464  0.00  0.00    +0.000 C 
ATOM      2  C   UNL     1       3.882   3.247  17.760  0.00  0.00    +0.000 C 
ATOM      3  N   UNL     1       4.693   3.637  16.834  0.00  0.00    +0.000 NA
ATOM      4  N   UNL     1       5.753   4.286  17.451  0.00  0.00    +0.000 N 
ATOM      5  C   UNL     1       6.796   4.849  16.686  0.00  0.00    +0.000 C 
ATOM      6  O   UNL     1       7.722   5.511  17.136  0.00  0.00    +0.000 OA
ATOM      7  C   UNL     1       5.608   4.333  18.862  0.00  0.00    +0.000 C 
ATOM      8  O   UNL     1       6.363   4.770  19.712  0.00  0.00    +0.000 OA
ATOM      9  C   UNL     1       4.269   3.678  19.131  0.00  0.00    +0.000 C 
ENDROOT
BRANCH   5  10
ATOM     10  C   UNL     1       6.729   4.653  15.199  0.00  0.00    +0.000 A 
ATOM     11  C   UNL     1       5.836   3.718  14.667  0.00  0.00    +0.000 A 
ATOM     12  C   UNL     1       5.850   3.522  13.294  0.00  0.00    +0.000 A 
ATOM     13  N   UNL     1       6.671   4.172  12.444  0.00  0.00    +0.000 NA
ATOM     14  C   UNL     1       7.499   5.091  12.978  0.00  0.00    +0.000 A 
ATOM     15  C   UNL     1       7.536   5.381  14.324  0.00  0.00    +0.000 A 
ENDBRANCH   5  10
BRANCH   9  16
ATOM     16  N   UNL     1       3.325   4.713  19.560  0.00  0.00    +0.000 NA
ATOM     17  N   UNL     1       3.445   5.768  18.902  0.00  0.00    +0.000 NA
BRANCH  17  18
ATOM     18  C   UNL     1       2.575   6.789  19.346  0.00  0.00    +0.000 A 
ATOM     19  C   UNL     1       1.937   6.776  20.593  0.00  0.00    +0.000 A 
ATOM     20  C   UNL     1       1.135   7.846  20.999  0.00  0.00    +0.000 A 
ATOM     21  C   UNL     1       0.963   8.965  20.175  0.00  0.00    +0.000 A 
ATOM     22  C   UNL     1       0.178  10.054  20.586  0.00  0.00    +0.000 A 
ATOM     23  C   UNL     1       0.020  11.169  19.766  0.00  0.00    +0.000 A 
ATOM     24  C   UNL     1       0.640  11.208  18.520  0.00  0.00    +0.000 A 
ATOM     25  C   UNL     1       1.421  10.130  18.096  0.00  0.00    +0.000 A 
ATOM     26  C   UNL     1       1.597   8.999  18.913  0.00  0.00    +0.000 A 
ATOM     27  C   UNL     1       2.395   7.906  18.520  0.00  0.00    +0.000 A 
ENDBRANCH  17  18
ENDBRANCH   9  16
TORSDOF 3
ENDMDL
MODEL 7
REMARK VINA RESULT:      -8.9      4.043      6.449
REMARK  Name = 
REMARK  4 active torsions:
REMARK  status: ('A' for Active; 'I' for Inactive)
REMARK    1  A    between atoms: C_1  and  C_2
REMARK    2  A    between atoms: C_5  and  C_7
REMARK    3  A    between atoms: C_15  and  N_16
REMARK    4  A    between atoms: N_17  and  C_18
REMARK                            x       y       z     vdW  Elec       q    Type
REMARK                         _______ _______ _______ _____ _____    ______ ____
ROOT
ATOM      1  C   UNL     1       1.038   8.956  22.103  0.00  0.00    +0.000 C 
ATOM      2  C   UNL     1       1.411   8.442  20.754  0.00  0.00    +0.000 C 
ATOM      3  N   UNL     1       1.773   7.218  20.562  0.00  0.00    +0.000 NA
ATOM      4  N   UNL     1       2.167   7.099  19.237  0.00  0.00    +0.000 N 
ATOM      5  C   UNL     1       2.597   5.859  18.722  0.00  0.00    +0.000 C 
ATOM      6  O   UNL     1       2.879   5.642  17.550  0.00  0.00    +0.000 OA
ATOM      7  C   UNL     1       2.033   8.320  18.525  0.00  0.00    +0.000 C 
ATOM      8  O   UNL     1       2.333   8.592  17.376  0.00  0.00    +0.000 OA
ATOM      9  C   UNL     1       1.435   9.285  19.527  0.00  0.00    +0.000 C 
ENDROOT
BRANCH   5  10
ATOM     10  C   UNL     1       2.665   4.710  19.686  0.00  0.00    +0.000 A 
ATOM     11  C   UNL     1       3.788   3.877  19.687  0.00  0.00    +0.000 A 
ATOM     12  C   UNL     1       3.784   2.790  20.547  0.00  0.00    +0.000 A 
ATOM     13  N   UNL     1       2.766   2.485  21.378  0.00  0.00    +0.000 NA
ATOM     14  C   UNL     1       1.710   3.321  21.381  0.00  0.00    +0.000 A 
ATOM     15  C   UNL     1       1.635   4.445  20.588  0.00  0.00    +0.000 A 
ENDBRANCH   5  10
BRANCH   9  16
ATOM     16  N   UNL     1       0.048   9.554  19.140  0.00  0.00    +0.000 NA
ATOM     17  N   UNL     1      -0.068  10.618  18.497  0.00  0.00    +0.000 NA
BRANCH  17  18
ATOM     18  C   UNL     1      -1.409  10.913  18.168  0.00  0.00    +0.000 A 
ATOM     19  C   UNL     1      -2.034  10.475  16.992  0.00  0.00    +0.000 A 
ATOM     20  C   UNL     1      -3.384  10.750  16.753  0.00  0.00    +0.000 A 
ATOM     21  C   UNL     1      -4.147  11.456  17.689  0.00  0.00    +0.000 A 
ATOM     22  C   UNL     1      -5.509  11.715  17.465  0.00  0.00    +0.000 A 
ATOM     23  C   UNL     1      -6.268  12.409  18.407  0.00  0.00    +0.000 A 
ATOM     24  C   UNL     1      -5.672  12.860  19.582  0.00  0.00    +0.000 A 
ATOM     25  C   UNL     1      -4.317  12.612  19.817  0.00  0.00    +0.000 A 
ATOM     26  C   UNL     1      -3.538  11.908  18.881  0.00  0.00    +0.000 A 
ATOM     27  C   UNL     1      -2.175  11.627  19.100  0.00  0.00    +0.000 A 
ENDBRANCH  17  18
ENDBRANCH   9  16
TORSDOF 3
ENDMDL
MODEL 8
REMARK VINA RESULT:      -8.8      4.454      9.788
REMARK  Name = 
REMARK  4 active torsions:
REMARK  status: ('A' for Active; 'I' for Inactive)
REMARK    1  A    between atoms: C_1  and  C_2
REMARK    2  A    between atoms: C_5  and  C_7
REMARK    3  A    between atoms: C_15  and  N_16
REMARK    4  A    between atoms: N_17  and  C_18
REMARK                            x       y       z     vdW  Elec       q    Type
REMARK                         _______ _______ _______ _____ _____    ______ ____
ROOT
ATOM      1  C   UNL     1      -1.851  10.015  17.751  0.00  0.00    +0.000 C 
ATOM      2  C   UNL     1      -0.889  10.751  18.619  0.00  0.00    +0.000 C 
ATOM      3  N   UNL     1      -1.266  11.379  19.681  0.00  0.00    +0.000 NA
ATOM      4  N   UNL     1      -0.163  12.055  20.184  0.00  0.00    +0.000 N 
ATOM      5  C   UNL     1      -0.263  12.817  21.367  0.00  0.00    +0.000 C 
ATOM      6  O   UNL     1       0.674  13.373  21.928  0.00  0.00    +0.000 OA
ATOM      7  C   UNL     1       1.003  11.833  19.406  0.00  0.00    +0.000 C 
ATOM      8  O   UNL     1       2.121  12.305  19.520  0.00  0.00    +0.000 OA
ATOM      9  C   UNL     1       0.567  10.863  18.329  0.00  0.00    +0.000 C 
ENDROOT
BRANCH   5  10
ATOM     10  C   UNL     1      -1.619  12.909  22.004  0.00  0.00    +0.000 A 
ATOM     11  C   UNL     1      -1.934  12.069  23.076  0.00  0.00    +0.000 A 
ATOM     12  C   UNL     1      -3.218  12.140  23.595  0.00  0.00    +0.000 A 
ATOM     13  N   UNL     1      -4.179  12.964  23.129  0.00  0.00    +0.000 NA
ATOM     14  C   UNL     1      -3.840  13.786  22.117  0.00  0.00    +0.000 A 
ATOM     15  C   UNL     1      -2.582  13.813  21.557  0.00  0.00    +0.000 A 
ENDBRANCH   5  10
BRANCH   9  16
ATOM     16  N   UNL     1       1.180   9.561  18.602  0.00  0.00    +0.000 NA
ATOM     17  N   UNL     1       2.060   9.265  17.767  0.00  0.00    +0.000 NA
BRANCH  17  18
ATOM     18  C   UNL     1       2.617   7.986  17.992  0.00  0.00    +0.000 A 
ATOM     19  C   UNL     1       3.751   7.506  17.323  0.00  0.00    +0.000 A 
ATOM     20  C   UNL     1       4.289   6.254  17.633  0.00  0.00    +0.000 A 
ATOM     21  C   UNL     1       3.718   5.456  18.632  0.00  0.00    +0.000 A 
ATOM     22  C   UNL     1       4.267   4.208  18.965  0.00  0.00    +0.000 A 
ATOM     23  C   UNL     1       3.700   3.423  19.967  0.00  0.00    +0.000 A 
ATOM     24  C   UNL     1       2.571   3.874  20.646  0.00  0.00    +0.000 A 
ATOM     25  C   UNL     1       2.011   5.113  20.323  0.00  0.00    +0.000 A 
ATOM     26  C   UNL     1       2.574   5.920  19.319  0.00  0.00    +0.000 A 
ATOM     27  C   UNL     1       2.042   7.182  18.985  0.00  0.00    +0.000 A 
ENDBRANCH  17  18
ENDBRANCH   9  16
TORSDOF 3
ENDMDL
MODEL 9
REMARK VINA RESULT:      -8.8      4.687     10.275
REMARK  Name = 
REMARK  4 active torsions:
REMARK  status: ('A' for Active; 'I' for Inactive)
REMARK    1  A    between atoms: C_1  and  C_2
REMARK    2  A    between atoms: C_5  and  C_7
REMARK    3  A    between atoms: C_15  and  N_16
REMARK    4  A    between atoms: N_17  and  C_18
REMARK                            x       y       z     vdW  Elec       q    Type
REMARK                         _______ _______ _______ _____ _____    ______ ____
ROOT
ATOM      1  C   UNL     1      -1.781  10.215  18.223  0.00  0.00    +0.000 C 
ATOM      2  C   UNL     1      -0.893  11.024  19.105  0.00  0.00    +0.000 C 
ATOM      3  N   UNL     1      -1.341  11.655  20.137  0.00  0.00    +0.000 NA
ATOM      4  N   UNL     1      -0.295  12.402  20.661  0.00  0.00    +0.000 N 
ATOM      5  C   UNL     1      -0.479  13.185  21.820  0.00  0.00    +0.000 C 
ATOM      6  O   UNL     1       0.405  13.804  22.399  0.00  0.00    +0.000 OA
ATOM      7  C   UNL     1       0.909  12.226  19.931  0.00  0.00    +0.000 C 
ATOM      8  O   UNL     1       1.994  12.760  20.072  0.00  0.00    +0.000 OA
ATOM      9  C   UNL     1       0.565  11.208  18.864  0.00  0.00    +0.000 C 
ENDROOT
BRANCH   5  10
ATOM     10  C   UNL     1      -1.861  13.217  22.406  0.00  0.00    +0.000 A 
ATOM     11  C   UNL     1      -2.232  12.251  23.346  0.00  0.00    +0.000 A 
ATOM     12  C   UNL     1      -3.536  12.277  23.816  0.00  0.00    +0.000 A 
ATOM     13  N   UNL     1      -4.466  13.170  23.421  0.00  0.00    +0.000 NA
ATOM     14  C   UNL     1      -4.074  14.111  22.540  0.00  0.00    +0.000 A 
ATOM     15  C   UNL     1      -2.792  14.188  22.041  0.00  0.00    +0.000 A 
ENDBRANCH   5  10
BRANCH   9  16
ATOM     16  N   UNL     1       1.236   9.948  19.191  0.00  0.00    +0.000 NA
ATOM     17  N   UNL     1       1.752   9.410  18.189  0.00  0.00    +0.000 NA
BRANCH  17  18
ATOM     18  C   UNL     1       2.354   8.167  18.487  0.00  0.00    +0.000 A 
ATOM     19  C   UNL     1       2.075   7.427  19.644  0.00  0.00    +0.000 A 
ATOM     20  C   UNL     1       2.659   6.174  19.852  0.00  0.00    +0.000 A 
ATOM     21  C   UNL     1       3.525   5.622  18.901  0.00  0.00    +0.000 A 
ATOM     22  C   UNL     1       4.097   4.354  19.093  0.00  0.00    +0.000 A 
ATOM     23  C   UNL     1       4.950   3.804  18.138  0.00  0.00    +0.000 A 
ATOM     24  C   UNL     1       5.248   4.519  16.980  0.00  0.00    +0.000 A 
ATOM     25  C   UNL     1       4.689   5.783  16.778  0.00  0.00    +0.000 A 
ATOM     26  C   UNL     1       3.821   6.350  17.728  0.00  0.00    +0.000 A 
ATOM     27  C   UNL     1       3.228   7.615  17.541  0.00  0.00    +0.000 A 
ENDBRANCH  17  18
ENDBRANCH   9  16
TORSDOF 3
ENDMDL
