MODEL 1
REMARK VINA RESULT:      -8.5      0.000      0.000
REMARK  Name = 
REMARK  6 active torsions:
REMARK  status: ('A' for Active; 'I' for Inactive)
REMARK    1  A    between atoms: C_1  and  C_2
REMARK    2  A    between atoms: C_5  and  C_6
REMARK    3  A    between atoms: C_6  and  N_7
REMARK    4  A    between atoms: N_7  and  C_8
REMARK    5  A    between atoms: C_8  and  C_9
REMARK    6  A    between atoms: C_14  and  C_15
REMARK                            x       y       z     vdW  Elec       q    Type
REMARK                         _______ _______ _______ _____ _____    ______ ____
ROOT
ATOM      1  C   UNL     1       7.180   5.125  16.928  0.00  0.00    +0.000 C 
ATOM      2  C   UNL     1       6.577   6.527  17.023  0.00  0.00    +0.000 C 
ATOM      3  N   UNL     1       5.274   6.383  17.625  0.00  0.00    +0.000 N 
ATOM      4  N   UNL     1       4.214   7.109  17.248  0.00  0.00    +0.000 NA
ATOM      5  N   UNL     1       3.151   6.562  17.825  0.00  0.00    +0.000 NA
ATOM      6  C   UNL     1       3.566   5.487  18.571  0.00  0.00    +0.000 A 
ATOM      7  C   UNL     1       4.932   5.345  18.441  0.00  0.00    +0.000 A 
ATOM      8  C   UNL     1       5.907   4.310  18.841  0.00  0.00    +0.000 C 
ATOM      9  O   UNL     1       7.189   4.531  18.239  0.00  0.00    +0.000 OA
ENDROOT
BRANCH   6  10
ATOM     10  C   UNL     1       2.673   4.593  19.271  0.00  0.00    +0.000 A 
ATOM     11  C   UNL     1       2.641   4.595  20.674  0.00  0.00    +0.000 A 
ATOM     12  C   UNL     1       1.766   3.751  21.364  0.00  0.00    +0.000 A 
ATOM     13  C   UNL     1       0.921   2.900  20.658  0.00  0.00    +0.000 A 
ATOM     14  C   UNL     1       0.960   2.894  19.268  0.00  0.00    +0.000 A 
ATOM     15  F   UNL     1       0.147   2.077  18.586  0.00  0.00    +0.000 F 
ATOM     16  C   UNL     1       1.830   3.724  18.572  0.00  0.00    +0.000 A 
ENDBRANCH   6  10
BRANCH   1  17
ATOM     17  C   UNL     1       6.484   4.226  15.870  0.00  0.00    +0.000 C 
BRANCH  17  18
ATOM     18  N   UNL     1       6.125   4.937  14.642  0.00  0.00    +0.000 NA
ATOM     19  H   UNL     1       5.173   4.687  14.368  0.00  0.00    +0.000 HD
BRANCH  18  20
ATOM     20  C   UNL     1       7.019   4.600  13.535  0.00  0.00    +0.000 C 
BRANCH  20  25
ATOM     21  C   UNL     1       3.276   3.100  10.927  0.00  0.00    +0.000 C 
ATOM     22  C   UNL     1       4.655   2.964  11.424  0.00  0.00    +0.000 A 
ATOM     23  C   UNL     1       5.645   2.017  11.263  0.00  0.00    +0.000 A 
ATOM     24  C   UNL     1       6.751   2.468  12.018  0.00  0.00    +0.000 A 
ATOM     25  C   UNL     1       6.364   3.657  12.599  0.00  0.00    +0.000 A 
ATOM     26  O   UNL     1       5.091   3.965  12.234  0.00  0.00    +0.000 OA
ENDBRANCH  20  25
ENDBRANCH  18  20
ENDBRANCH  17  18
ENDBRANCH   1  17
TORSDOF 5
ENDMDL
MODEL 2
REMARK VINA RESULT:      -8.5      1.033      1.664
REMARK  Name = 
REMARK  6 active torsions:
REMARK  status: ('A' for Active; 'I' for Inactive)
REMARK    1  A    between atoms: C_1  and  C_2
REMARK    2  A    between atoms: C_5  and  C_6
REMARK    3  A    between atoms: C_6  and  N_7
REMARK    4  A    between atoms: N_7  and  C_8
REMARK    5  A    between atoms: C_8  and  C_9
REMARK    6  A    between atoms: C_14  and  C_15
REMARK                            x       y       z     vdW  Elec       q    Type
REMARK                         _______ _______ _______ _____ _____    ______ ____
ROOT
ATOM      1  C   UNL     1       7.314   5.151  17.028  0.00  0.00    +0.000 C 
ATOM      2  C   UNL     1       6.751   6.560  17.218  0.00  0.00    +0.000 C 
ATOM      3  N   UNL     1       5.398   6.409  17.698  0.00  0.00    +0.000 N 
ATOM      4  N   UNL     1       4.397   7.212  17.315  0.00  0.00    +0.000 NA
ATOM      5  N   UNL     1       3.273   6.653  17.747  0.00  0.00    +0.000 NA
ATOM      6  C   UNL     1       3.590   5.494  18.410  0.00  0.00    +0.000 A 
ATOM      7  C   UNL     1       4.957   5.310  18.374  0.00  0.00    +0.000 A 
ATOM      8  C   UNL     1       5.862   4.202  18.742  0.00  0.00    +0.000 C 
ATOM      9  O   UNL     1       7.196   4.429  18.268  0.00  0.00    +0.000 OA
ENDROOT
BRANCH   6  10
ATOM     10  C   UNL     1       2.614   4.571  18.942  0.00  0.00    +0.000 A 
ATOM     11  C   UNL     1       1.776   3.861  18.069  0.00  0.00    +0.000 A 
ATOM     12  C   UNL     1       0.843   2.948  18.569  0.00  0.00    +0.000 A 
ATOM     13  C   UNL     1       0.740   2.741  19.941  0.00  0.00    +0.000 A 
ATOM     14  C   UNL     1       1.565   3.453  20.804  0.00  0.00    +0.000 A 
ATOM     15  F   UNL     1       1.469   3.255  22.126  0.00  0.00    +0.000 F 
ATOM     16  C   UNL     1       2.492   4.367  20.319  0.00  0.00    +0.000 A 
ENDBRANCH   6  10
BRANCH   1  17
ATOM     17  C   UNL     1       6.679   4.390  15.832  0.00  0.00    +0.000 C 
BRANCH  17  18
ATOM     18  N   UNL     1       6.445   5.234  14.659  0.00  0.00    +0.000 NA
ATOM     19  H   UNL     1       5.444   5.275  14.462  0.00  0.00    +0.000 HD
BRANCH  18  20
ATOM     20  C   UNL     1       7.121   4.715  13.470  0.00  0.00    +0.000 C 
BRANCH  20  25
ATOM     21  C   UNL     1       6.188   0.752  10.923  0.00  0.00    +0.000 C 
ATOM     22  C   UNL     1       5.794   2.038  11.522  0.00  0.00    +0.000 A 
ATOM     23  C   UNL     1       4.635   2.785  11.518  0.00  0.00    +0.000 A 
ATOM     24  C   UNL     1       4.905   3.942  12.281  0.00  0.00    +0.000 A 
ATOM     25  C   UNL     1       6.216   3.833  12.696  0.00  0.00    +0.000 A 
ATOM     26  O   UNL     1       6.757   2.672  12.242  0.00  0.00    +0.000 OA
ENDBRANCH  20  25
ENDBRANCH  18  20
ENDBRANCH  17  18
ENDBRANCH   1  17
TORSDOF 5
ENDMDL
MODEL 3
REMARK VINA RESULT:      -8.3      1.070      1.502
REMARK  Name = 
REMARK  6 active torsions:
REMARK  status: ('A' for Active; 'I' for Inactive)
REMARK    1  A    between atoms: C_1  and  C_2
REMARK    2  A    between atoms: C_5  and  C_6
REMARK    3  A    between atoms: C_6  and  N_7
REMARK    4  A    between atoms: N_7  and  C_8
REMARK    5  A    between atoms: C_8  and  C_9
REMARK    6  A    between atoms: C_14  and  C_15
REMARK                            x       y       z     vdW  Elec       q    Type
REMARK                         _______ _______ _______ _____ _____    ______ ____
ROOT
ATOM      1  C   UNL     1       7.520   5.631  17.730  0.00  0.00    +0.000 C 
ATOM      2  C   UNL     1       6.754   6.945  17.569  0.00  0.00    +0.000 C 
ATOM      3  N   UNL     1       5.367   6.658  17.848  0.00  0.00    +0.000 N 
ATOM      4  N   UNL     1       4.358   7.220  17.173  0.00  0.00    +0.000 NA
ATOM      5  N   UNL     1       3.255   6.565  17.516  0.00  0.00    +0.000 NA
ATOM      6  C   UNL     1       3.594   5.589  18.421  0.00  0.00    +0.000 A 
ATOM      7  C   UNL     1       4.956   5.623  18.635  0.00  0.00    +0.000 A 
ATOM      8  C   UNL     1       5.914   4.744  19.337  0.00  0.00    +0.000 C 
ATOM      9  O   UNL     1       7.271   5.104  19.047  0.00  0.00    +0.000 OA
ENDROOT
BRANCH   6  10
ATOM     10  C   UNL     1       2.665   4.618  18.952  0.00  0.00    +0.000 A 
ATOM     11  C   UNL     1       1.874   3.859  18.077  0.00  0.00    +0.000 A 
ATOM     12  C   UNL     1       0.987   2.899  18.575  0.00  0.00    +0.000 A 
ATOM     13  C   UNL     1       0.884   2.696  19.948  0.00  0.00    +0.000 A 
ATOM     14  C   UNL     1       1.663   3.456  20.813  0.00  0.00    +0.000 A 
ATOM     15  F   UNL     1       1.567   3.262  22.135  0.00  0.00    +0.000 F 
ATOM     16  C   UNL     1       2.543   4.416  20.329  0.00  0.00    +0.000 A 
ENDBRANCH   6  10
BRANCH   1  17
ATOM     17  C   UNL     1       7.219   4.601  16.608  0.00  0.00    +0.000 C 
BRANCH  17  18
ATOM     18  N   UNL     1       6.871   5.215  15.326  0.00  0.00    +0.000 NA
ATOM     19  H   UNL     1       6.855   6.232  15.428  0.00  0.00    +0.000 HD
BRANCH  18  20
ATOM     20  C   UNL     1       5.555   4.785  14.854  0.00  0.00    +0.000 C 
BRANCH  20  25
ATOM     21  C   UNL     1       3.679   2.972  10.823  0.00  0.00    +0.000 C 
ATOM     22  C   UNL     1       4.811   3.256  11.720  0.00  0.00    +0.000 A 
ATOM     23  C   UNL     1       6.159   2.965  11.686  0.00  0.00    +0.000 A 
ATOM     24  C   UNL     1       6.713   3.513  12.865  0.00  0.00    +0.000 A 
ATOM     25  C   UNL     1       5.666   4.096  13.548  0.00  0.00    +0.000 A 
ATOM     26  O   UNL     1       4.509   3.947  12.850  0.00  0.00    +0.000 OA
ENDBRANCH  20  25
ENDBRANCH  18  20
ENDBRANCH  17  18
ENDBRANCH   1  17
TORSDOF 5
ENDMDL
MODEL 4
REMARK VINA RESULT:      -8.3      0.776      1.267
REMARK  Name = 
REMARK  6 active torsions:
REMARK  status: ('A' for Active; 'I' for Inactive)
REMARK    1  A    between atoms: C_1  and  C_2
REMARK    2  A    between atoms: C_5  and  C_6
REMARK    3  A    between atoms: C_6  and  N_7
REMARK    4  A    between atoms: N_7  and  C_8
REMARK    5  A    between atoms: C_8  and  C_9
REMARK    6  A    between atoms: C_14  and  C_15
REMARK                            x       y       z     vdW  Elec       q    Type
REMARK                         _______ _______ _______ _____ _____    ______ ____
ROOT
ATOM      1  C   UNL     1       7.465   5.321  17.344  0.00  0.00    +0.000 C 
ATOM      2  C   UNL     1       6.781   6.681  17.200  0.00  0.00    +0.000 C 
ATOM      3  N   UNL     1       5.418   6.513  17.644  0.00  0.00    +0.000 N 
ATOM      4  N   UNL     1       4.381   7.120  17.055  0.00  0.00    +0.000 NA
ATOM      5  N   UNL     1       3.281   6.566  17.550  0.00  0.00    +0.000 NA
ATOM      6  C   UNL     1       3.649   5.608  18.461  0.00  0.00    +0.000 A 
ATOM      7  C   UNL     1       5.026   5.547  18.523  0.00  0.00    +0.000 A 
ATOM      8  C   UNL     1       5.993   4.630  19.160  0.00  0.00    +0.000 C 
ATOM      9  O   UNL     1       7.331   4.872  18.705  0.00  0.00    +0.000 OA
ENDROOT
BRANCH   6  10
ATOM     10  C   UNL     1       2.720   4.734  19.140  0.00  0.00    +0.000 A 
ATOM     11  C   UNL     1       2.615   4.778  20.538  0.00  0.00    +0.000 A 
ATOM     12  C   UNL     1       1.704   3.954  21.206  0.00  0.00    +0.000 A 
ATOM     13  C   UNL     1       0.896   3.082  20.482  0.00  0.00    +0.000 A 
ATOM     14  C   UNL     1       1.009   3.034  19.098  0.00  0.00    +0.000 A 
ATOM     15  F   UNL     1       0.233   2.196  18.398  0.00  0.00    +0.000 F 
ATOM     16  C   UNL     1       1.915   3.843  18.424  0.00  0.00    +0.000 A 
ENDBRANCH   6  10
BRANCH   1  17
ATOM     17  C   UNL     1       6.968   4.269  16.316  0.00  0.00    +0.000 C 
BRANCH  17  18
ATOM     18  N   UNL     1       6.831   4.797  14.958  0.00  0.00    +0.000 NA
ATOM     19  H   UNL     1       7.102   5.782  14.944  0.00  0.00    +0.000 HD
BRANCH  18  20
ATOM     20  C   UNL     1       5.456   4.698  14.470  0.00  0.00    +0.000 C 
BRANCH  20  25
ATOM     21  C   UNL     1       7.440   1.866  11.138  0.00  0.00    +0.000 C 
ATOM     22  C   UNL     1       6.294   2.577  11.728  0.00  0.00    +0.000 A 
ATOM     23  C   UNL     1       4.970   2.729  11.371  0.00  0.00    +0.000 A 
ATOM     24  C   UNL     1       4.384   3.549  12.361  0.00  0.00    +0.000 A 
ATOM     25  C   UNL     1       5.389   3.853  13.255  0.00  0.00    +0.000 A 
ATOM     26  O   UNL     1       6.550   3.257  12.876  0.00  0.00    +0.000 OA
ENDBRANCH  20  25
ENDBRANCH  18  20
ENDBRANCH  17  18
ENDBRANCH   1  17
TORSDOF 5
ENDMDL
MODEL 5
REMARK VINA RESULT:      -8.2      3.661      6.916
REMARK  Name = 
REMARK  6 active torsions:
REMARK  status: ('A' for Active; 'I' for Inactive)
REMARK    1  A    between atoms: C_1  and  C_2
REMARK    2  A    between atoms: C_5  and  C_6
REMARK    3  A    between atoms: C_6  and  N_7
REMARK    4  A    between atoms: N_7  and  C_8
REMARK    5  A    between atoms: C_8  and  C_9
REMARK    6  A    between atoms: C_14  and  C_15
REMARK                            x       y       z     vdW  Elec       q    Type
REMARK                         _______ _______ _______ _____ _____    ______ ____
ROOT
ATOM      1  C   UNL     1       2.455   2.802  21.179  0.00  0.00    +0.000 C 
ATOM      2  C   UNL     1       1.517   2.371  20.051  0.00  0.00    +0.000 C 
ATOM      3  N   UNL     1       2.147   2.759  18.811  0.00  0.00    +0.000 N 
ATOM      4  N   UNL     1       1.461   3.233  17.764  0.00  0.00    +0.000 NA
ATOM      5  N   UNL     1       2.354   3.707  16.904  0.00  0.00    +0.000 NA
ATOM      6  C   UNL     1       3.608   3.516  17.430  0.00  0.00    +0.000 A 
ATOM      7  C   UNL     1       3.494   2.920  18.669  0.00  0.00    +0.000 A 
ATOM      8  C   UNL     1       4.437   2.632  19.769  0.00  0.00    +0.000 C 
ATOM      9  O   UNL     1       3.752   2.218  20.958  0.00  0.00    +0.000 OA
ENDROOT
BRANCH   6  10
ATOM     10  C   UNL     1       4.827   3.987  16.813  0.00  0.00    +0.000 A 
ATOM     11  C   UNL     1       5.711   4.796  17.543  0.00  0.00    +0.000 A 
ATOM     12  C   UNL     1       6.905   5.240  16.967  0.00  0.00    +0.000 A 
ATOM     13  C   UNL     1       7.220   4.882  15.659  0.00  0.00    +0.000 A 
ATOM     14  C   UNL     1       6.338   4.088  14.936  0.00  0.00    +0.000 A 
ATOM     15  F   UNL     1       6.639   3.740  13.677  0.00  0.00    +0.000 F 
ATOM     16  C   UNL     1       5.146   3.645  15.497  0.00  0.00    +0.000 A 
ENDBRANCH   6  10
BRANCH   1  17
ATOM     17  C   UNL     1       2.519   4.341  21.372  0.00  0.00    +0.000 C 
BRANCH  17  18
ATOM     18  N   UNL     1       1.482   5.068  20.638  0.00  0.00    +0.000 NA
ATOM     19  H   UNL     1       1.592   4.900  19.636  0.00  0.00    +0.000 HD
BRANCH  18  20
ATOM     20  C   UNL     1       1.560   6.510  20.868  0.00  0.00    +0.000 C 
BRANCH  20  25
ATOM     21  C   UNL     1       1.811  10.322  17.958  0.00  0.00    +0.000 C 
ATOM     22  C   UNL     1       2.153   8.938  18.323  0.00  0.00    +0.000 A 
ATOM     23  C   UNL     1       2.890   7.940  17.721  0.00  0.00    +0.000 A 
ATOM     24  C   UNL     1       2.829   6.824  18.586  0.00  0.00    +0.000 A 
ATOM     25  C   UNL     1       2.050   7.209  19.657  0.00  0.00    +0.000 A 
ATOM     26  O   UNL     1       1.644   8.497  19.504  0.00  0.00    +0.000 OA
ENDBRANCH  20  25
ENDBRANCH  18  20
ENDBRANCH  17  18
ENDBRANCH   1  17
TORSDOF 5
ENDMDL
MODEL 6
REMARK VINA RESULT:      -8.2      3.692      7.001
REMARK  Name = 
REMARK  6 active torsions:
REMARK  status: ('A' for Active; 'I' for Inactive)
REMARK    1  A    between atoms: C_1  and  C_2
REMARK    2  A    between atoms: C_5  and  C_6
REMARK    3  A    between atoms: C_6  and  N_7
REMARK    4  A    between atoms: N_7  and  C_8
REMARK    5  A    between atoms: C_8  and  C_9
REMARK    6  A    between atoms: C_14  and  C_15
REMARK                            x       y       z     vdW  Elec       q    Type
REMARK                         _______ _______ _______ _____ _____    ______ ____
ROOT
ATOM      1  C   UNL     1       2.376   2.772  21.164  0.00  0.00    +0.000 C 
ATOM      2  C   UNL     1       1.453   2.379  20.010  0.00  0.00    +0.000 C 
ATOM      3  N   UNL     1       2.112   2.781  18.791  0.00  0.00    +0.000 N 
ATOM      4  N   UNL     1       1.454   3.286  17.741  0.00  0.00    +0.000 NA
ATOM      5  N   UNL     1       2.371   3.763  16.907  0.00  0.00    +0.000 NA
ATOM      6  C   UNL     1       3.611   3.541  17.453  0.00  0.00    +0.000 A 
ATOM      7  C   UNL     1       3.464   2.923  18.677  0.00  0.00    +0.000 A 
ATOM      8  C   UNL     1       4.381   2.597  19.788  0.00  0.00    +0.000 C 
ATOM      9  O   UNL     1       3.667   2.171  20.956  0.00  0.00    +0.000 OA
ENDROOT
BRANCH   6  10
ATOM     10  C   UNL     1       4.849   4.004  16.868  0.00  0.00    +0.000 A 
ATOM     11  C   UNL     1       5.120   3.749  15.516  0.00  0.00    +0.000 A 
ATOM     12  C   UNL     1       6.303   4.211  14.931  0.00  0.00    +0.000 A 
ATOM     13  C   UNL     1       7.221   4.926  15.694  0.00  0.00    +0.000 A 
ATOM     14  C   UNL     1       6.955   5.169  17.037  0.00  0.00    +0.000 A 
ATOM     15  F   UNL     1       7.836   5.857  17.774  0.00  0.00    +0.000 F 
ATOM     16  C   UNL     1       5.785   4.710  17.629  0.00  0.00    +0.000 A 
ENDBRANCH   6  10
BRANCH   1  17
ATOM     17  C   UNL     1       2.461   4.306  21.390  0.00  0.00    +0.000 C 
BRANCH  17  18
ATOM     18  N   UNL     1       1.514   5.071  20.577  0.00  0.00    +0.000 NA
ATOM     19  H   UNL     1       1.712   4.918  19.587  0.00  0.00    +0.000 HD
BRANCH  18  20
ATOM     20  C   UNL     1       1.604   6.507  20.841  0.00  0.00    +0.000 C 
BRANCH  20  25
ATOM     21  C   UNL     1       1.686  10.346  17.958  0.00  0.00    +0.000 C 
ATOM     22  C   UNL     1       2.088   8.975  18.313  0.00  0.00    +0.000 A 
ATOM     23  C   UNL     1       2.866   8.014  17.701  0.00  0.00    +0.000 A 
ATOM     24  C   UNL     1       2.854   6.890  18.559  0.00  0.00    +0.000 A 
ATOM     25  C   UNL     1       2.062   7.234  19.635  0.00  0.00    +0.000 A 
ATOM     26  O   UNL     1       1.600   8.505  19.491  0.00  0.00    +0.000 OA
ENDBRANCH  20  25
ENDBRANCH  18  20
ENDBRANCH  17  18
ENDBRANCH   1  17
TORSDOF 5
ENDMDL
MODEL 7
REMARK VINA RESULT:      -8.0      3.750      7.835
REMARK  Name = 
REMARK  6 active torsions:
REMARK  status: ('A' for Active; 'I' for Inactive)
REMARK    1  A    between atoms: C_1  and  C_2
REMARK    2  A    between atoms: C_5  and  C_6
REMARK    3  A    between atoms: C_6  and  N_7
REMARK    4  A    between atoms: N_7  and  C_8
REMARK    5  A    between atoms: C_8  and  C_9
REMARK    6  A    between atoms: C_14  and  C_15
REMARK                            x       y       z     vdW  Elec       q    Type
REMARK                         _______ _______ _______ _____ _____    ______ ____
ROOT
ATOM      1  C   UNL     1       2.129   2.998  21.176  0.00  0.00    +0.000 C 
ATOM      2  C   UNL     1       1.218   2.660  19.995  0.00  0.00    +0.000 C 
ATOM      3  N   UNL     1       1.943   3.004  18.795  0.00  0.00    +0.000 N 
ATOM      4  N   UNL     1       1.356   3.545  17.721  0.00  0.00    +0.000 NA
ATOM      5  N   UNL     1       2.330   3.948  16.914  0.00  0.00    +0.000 NA
ATOM      6  C   UNL     1       3.534   3.644  17.501  0.00  0.00    +0.000 A 
ATOM      7  C   UNL     1       3.304   3.049  18.725  0.00  0.00    +0.000 A 
ATOM      8  C   UNL     1       4.160   2.669  19.867  0.00  0.00    +0.000 C 
ATOM      9  O   UNL     1       3.380   2.305  21.014  0.00  0.00    +0.000 OA
ENDROOT
BRANCH   6  10
ATOM     10  C   UNL     1       4.819   4.013  16.954  0.00  0.00    +0.000 A 
ATOM     11  C   UNL     1       5.096   3.773  15.600  0.00  0.00    +0.000 A 
ATOM     12  C   UNL     1       6.327   4.146  15.052  0.00  0.00    +0.000 A 
ATOM     13  C   UNL     1       7.287   4.757  15.853  0.00  0.00    +0.000 A 
ATOM     14  C   UNL     1       7.014   4.985  17.197  0.00  0.00    +0.000 A 
ATOM     15  F   UNL     1       7.936   5.573  17.970  0.00  0.00    +0.000 F 
ATOM     16  C   UNL     1       5.796   4.613  17.753  0.00  0.00    +0.000 A 
ENDBRANCH   6  10
BRANCH   1  17
ATOM     17  C   UNL     1       2.316   4.524  21.393  0.00  0.00    +0.000 C 
BRANCH  17  18
ATOM     18  N   UNL     1       1.501   5.347  20.499  0.00  0.00    +0.000 NA
ATOM     19  H   UNL     1       1.132   4.768  19.742  0.00  0.00    +0.000 HD
BRANCH  18  20
ATOM     20  C   UNL     1       2.275   6.434  19.901  0.00  0.00    +0.000 C 
BRANCH  20  25
ATOM     21  C   UNL     1       0.138   9.512  22.904  0.00  0.00    +0.000 C 
ATOM     22  C   UNL     1       0.685   9.145  21.589  0.00  0.00    +0.000 A 
ATOM     23  C   UNL     1       0.759   9.782  20.367  0.00  0.00    +0.000 A 
ATOM     24  C   UNL     1       1.403   8.881  19.489  0.00  0.00    +0.000 A 
ATOM     25  C   UNL     1       1.673   7.748  20.227  0.00  0.00    +0.000 A 
ATOM     26  O   UNL     1       1.244   7.909  21.507  0.00  0.00    +0.000 OA
ENDBRANCH  20  25
ENDBRANCH  18  20
ENDBRANCH  17  18
ENDBRANCH   1  17
TORSDOF 5
ENDMDL
MODEL 8
REMARK VINA RESULT:      -8.0      3.712      7.742
REMARK  Name = 
REMARK  6 active torsions:
REMARK  status: ('A' for Active; 'I' for Inactive)
REMARK    1  A    between atoms: C_1  and  C_2
REMARK    2  A    between atoms: C_5  and  C_6
REMARK    3  A    between atoms: C_6  and  N_7
REMARK    4  A    between atoms: N_7  and  C_8
REMARK    5  A    between atoms: C_8  and  C_9
REMARK    6  A    between atoms: C_14  and  C_15
REMARK                            x       y       z     vdW  Elec       q    Type
REMARK                         _______ _______ _______ _____ _____    ______ ____
ROOT
ATOM      1  C   UNL     1       2.234   2.975  21.200  0.00  0.00    +0.000 C 
ATOM      2  C   UNL     1       1.296   2.619  20.046  0.00  0.00    +0.000 C 
ATOM      3  N   UNL     1       1.989   2.956  18.825  0.00  0.00    +0.000 N 
ATOM      4  N   UNL     1       1.371   3.482  17.760  0.00  0.00    +0.000 NA
ATOM      5  N   UNL     1       2.323   3.884  16.926  0.00  0.00    +0.000 NA
ATOM      6  C   UNL     1       3.543   3.594  17.486  0.00  0.00    +0.000 A 
ATOM      7  C   UNL     1       3.348   3.010  18.720  0.00  0.00    +0.000 A 
ATOM      8  C   UNL     1       4.234   2.648  19.845  0.00  0.00    +0.000 C 
ATOM      9  O   UNL     1       3.486   2.289  21.014  0.00  0.00    +0.000 OA
ENDROOT
BRANCH   6  10
ATOM     10  C   UNL     1       4.811   3.967  16.904  0.00  0.00    +0.000 A 
ATOM     11  C   UNL     1       5.804   4.547  17.708  0.00  0.00    +0.000 A 
ATOM     12  C   UNL     1       7.045   4.892  17.163  0.00  0.00    +0.000 A 
ATOM     13  C   UNL     1       7.299   4.662  15.814  0.00  0.00    +0.000 A 
ATOM     14  C   UNL     1       6.310   4.096  15.018  0.00  0.00    +0.000 A 
ATOM     15  F   UNL     1       6.552   3.872  13.719  0.00  0.00    +0.000 F 
ATOM     16  C   UNL     1       5.072   3.754  15.547  0.00  0.00    +0.000 A 
ENDBRANCH   6  10
BRANCH   1  17
ATOM     17  C   UNL     1       2.414   4.504  21.398  0.00  0.00    +0.000 C 
BRANCH  17  18
ATOM     18  N   UNL     1       1.545   5.312  20.542  0.00  0.00    +0.000 NA
ATOM     19  H   UNL     1       1.131   4.720  19.819  0.00  0.00    +0.000 HD
BRANCH  18  20
ATOM     20  C   UNL     1       2.281   6.389  19.879  0.00  0.00    +0.000 C 
BRANCH  20  25
ATOM     21  C   UNL     1       0.112   9.463  22.863  0.00  0.00    +0.000 C 
ATOM     22  C   UNL     1       0.686   9.102  21.557  0.00  0.00    +0.000 A 
ATOM     23  C   UNL     1       0.798   9.751  20.345  0.00  0.00    +0.000 A 
ATOM     24  C   UNL     1       1.451   8.851  19.472  0.00  0.00    +0.000 A 
ATOM     25  C   UNL     1       1.688   7.707  20.204  0.00  0.00    +0.000 A 
ATOM     26  O   UNL     1       1.230   7.859  21.475  0.00  0.00    +0.000 OA
ENDBRANCH  20  25
ENDBRANCH  18  20
ENDBRANCH  17  18
ENDBRANCH   1  17
TORSDOF 5
ENDMDL
MODEL 9
REMARK VINA RESULT:      -8.0      3.720      7.596
REMARK  Name = 
REMARK  6 active torsions:
REMARK  status: ('A' for Active; 'I' for Inactive)
REMARK    1  A    between atoms: C_1  and  C_2
REMARK    2  A    between atoms: C_5  and  C_6
REMARK    3  A    between atoms: C_6  and  N_7
REMARK    4  A    between atoms: N_7  and  C_8
REMARK    5  A    between atoms: C_8  and  C_9
REMARK    6  A    between atoms: C_14  and  C_15
REMARK                            x       y       z     vdW  Elec       q    Type
REMARK                         _______ _______ _______ _____ _____    ______ ____
ROOT
ATOM      1  C   UNL     1       2.132   2.945  21.210  0.00  0.00    +0.000 C 
ATOM      2  C   UNL     1       1.221   2.607  20.029  0.00  0.00    +0.000 C 
ATOM      3  N   UNL     1       1.945   2.952  18.829  0.00  0.00    +0.000 N 
ATOM      4  N   UNL     1       1.357   3.493  17.755  0.00  0.00    +0.000 NA
ATOM      5  N   UNL     1       2.332   3.898  16.949  0.00  0.00    +0.000 NA
ATOM      6  C   UNL     1       3.535   3.594  17.536  0.00  0.00    +0.000 A 
ATOM      7  C   UNL     1       3.306   2.999  18.759  0.00  0.00    +0.000 A 
ATOM      8  C   UNL     1       4.163   2.620  19.901  0.00  0.00    +0.000 C 
ATOM      9  O   UNL     1       3.384   2.254  21.048  0.00  0.00    +0.000 OA
ENDROOT
BRANCH   6  10
ATOM     10  C   UNL     1       4.820   3.966  16.989  0.00  0.00    +0.000 A 
ATOM     11  C   UNL     1       5.072   3.793  15.620  0.00  0.00    +0.000 A 
ATOM     12  C   UNL     1       6.303   4.169  15.073  0.00  0.00    +0.000 A 
ATOM     13  C   UNL     1       7.288   4.716  15.890  0.00  0.00    +0.000 A 
ATOM     14  C   UNL     1       7.039   4.877  17.248  0.00  0.00    +0.000 A 
ATOM     15  F   UNL     1       7.985   5.404  18.037  0.00  0.00    +0.000 F 
ATOM     16  C   UNL     1       5.822   4.502  17.803  0.00  0.00    +0.000 A 
ENDBRANCH   6  10
BRANCH   1  17
ATOM     17  C   UNL     1       2.316   4.471  21.428  0.00  0.00    +0.000 C 
BRANCH  17  18
ATOM     18  N   UNL     1       1.500   5.294  20.534  0.00  0.00    +0.000 NA
ATOM     19  H   UNL     1       1.135   4.715  19.775  0.00  0.00    +0.000 HD
BRANCH  18  20
ATOM     20  C   UNL     1       2.271   6.386  19.942  0.00  0.00    +0.000 C 
BRANCH  20  25
ATOM     21  C   UNL     1       0.916  10.838  18.757  0.00  0.00    +0.000 C 
ATOM     22  C   UNL     1       1.044   9.727  19.714  0.00  0.00    +0.000 A 
ATOM     23  C   UNL     1       0.729   9.568  21.047  0.00  0.00    +0.000 A 
ATOM     24  C   UNL     1       1.113   8.252  21.390  0.00  0.00    +0.000 A 
ATOM     25  C   UNL     1       1.647   7.694  20.247  0.00  0.00    +0.000 A 
ATOM     26  O   UNL     1       1.600   8.588  19.224  0.00  0.00    +0.000 OA
ENDBRANCH  20  25
ENDBRANCH  18  20
ENDBRANCH  17  18
ENDBRANCH   1  17
TORSDOF 5
ENDMDL
