MODEL 1
REMARK VINA RESULT:      -7.5      0.000      0.000
REMARK  Name = 
REMARK  3 active torsions:
REMARK  status: ('A' for Active; 'I' for Inactive)
REMARK    1  A    between atoms: N_1  and  S_2
REMARK    2  A    between atoms: S_2  and  C_5
REMARK    3  A    between atoms: C_7  and  C_8
REMARK                            x       y       z     vdW  Elec       q    Type
REMARK                         _______ _______ _______ _____ _____    ______ ____
ROOT
ATOM      1  C   UNL     1       5.358   5.271  16.941  0.00  0.00    +0.000 A 
ATOM      2  C   UNL     1       4.818   6.406  17.514  0.00  0.00    +0.000 A 
ATOM      3  C   UNL     1       3.496   6.195  18.008  0.00  0.00    +0.000 A 
ATOM      4  C   UNL     1       3.079   4.895  17.807  0.00  0.00    +0.000 A 
ATOM      5  S   UNL     1       4.279   3.947  17.032  0.00  0.00    +0.000 S 
ENDROOT
BRANCH   3   6
ATOM      6  C   UNL     1       2.635   7.232  18.674  0.00  0.00    +0.000 A 
ATOM      7  N   UNL     1       2.239   7.116  19.925  0.00  0.00    +0.000 NA
ATOM      8  C   UNL     1       1.495   8.226  20.289  0.00  0.00    +0.000 A 
ATOM      9  C   UNL     1       0.932   8.471  21.559  0.00  0.00    +0.000 A 
ATOM     10  C   UNL     1       0.211   9.651  21.786  0.00  0.00    +0.000 A 
ATOM     11  C   UNL     1       0.039  10.575  20.761  0.00  0.00    +0.000 A 
ATOM     12 CL   UNL     1      -0.851  12.019  21.058  0.00  0.00    +0.000 Cl
ATOM     13  C   UNL     1       0.577  10.357  19.492  0.00  0.00    +0.000 A 
ATOM     14  C   UNL     1       1.309   9.178  19.284  0.00  0.00    +0.000 A 
ATOM     15  S   UNL     1       2.105   8.649  17.861  0.00  0.00    +0.000 S 
ENDBRANCH   3   6
BRANCH   1  16
ATOM     16  S   UNL     1       6.925   4.977  16.172  0.00  0.00    +0.000 S 
ATOM     17  O   UNL     1       7.507   6.278  15.952  0.00  0.00    +0.000 OA
ATOM     18  O   UNL     1       6.685   4.044  15.096  0.00  0.00    +0.000 OA
BRANCH  16  19
ATOM     19  N   UNL     1       7.901   4.179  17.282  0.00  0.00    +0.000 NA
ATOM     20  H   UNL     1       8.675   3.738  16.784  0.00  0.00    +0.000 HD
ATOM     21  H   UNL     1       7.355   3.492  17.804  0.00  0.00    +0.000 HD
ENDBRANCH  16  19
ENDBRANCH   1  16
TORSDOF 3
ENDMDL
MODEL 2
REMARK VINA RESULT:      -7.1      0.960      1.495
REMARK  Name = 
REMARK  3 active torsions:
REMARK  status: ('A' for Active; 'I' for Inactive)
REMARK    1  A    between atoms: N_1  and  S_2
REMARK    2  A    between atoms: S_2  and  C_5
REMARK    3  A    between atoms: C_7  and  C_8
REMARK                            x       y       z     vdW  Elec       q    Type
REMARK                         _______ _______ _______ _____ _____    ______ ____
ROOT
ATOM      1  C   UNL     1       5.361   5.264  16.902  0.00  0.00    +0.000 A 
ATOM      2  C   UNL     1       4.838   6.410  17.468  0.00  0.00    +0.000 A 
ATOM      3  C   UNL     1       3.515   6.219  17.969  0.00  0.00    +0.000 A 
ATOM      4  C   UNL     1       3.082   4.923  17.781  0.00  0.00    +0.000 A 
ATOM      5  S   UNL     1       4.267   3.954  17.008  0.00  0.00    +0.000 S 
ENDROOT
BRANCH   3   6
ATOM      6  C   UNL     1       2.670   7.272  18.631  0.00  0.00    +0.000 A 
ATOM      7  N   UNL     1       2.353   8.398  18.026  0.00  0.00    +0.000 NA
ATOM      8  C   UNL     1       1.539   9.161  18.847  0.00  0.00    +0.000 A 
ATOM      9  C   UNL     1       0.975  10.414  18.528  0.00  0.00    +0.000 A 
ATOM     10  C   UNL     1       0.156  11.067  19.458  0.00  0.00    +0.000 A 
ATOM     11  C   UNL     1      -0.093  10.490  20.699  0.00  0.00    +0.000 A 
ATOM     12 CL   UNL     1      -1.101  11.308  21.831  0.00  0.00    +0.000 Cl
ATOM     13  C   UNL     1       0.457   9.256  21.047  0.00  0.00    +0.000 A 
ATOM     14  C   UNL     1       1.263   8.607  20.099  0.00  0.00    +0.000 A 
ATOM     15  S   UNL     1       2.047   7.087  20.220  0.00  0.00    +0.000 S 
ENDBRANCH   3   6
BRANCH   1  16
ATOM     16  S   UNL     1       6.921   4.945  16.128  0.00  0.00    +0.000 S 
ATOM     17  O   UNL     1       7.521   6.236  15.902  0.00  0.00    +0.000 OA
ATOM     18  O   UNL     1       6.664   4.012  15.056  0.00  0.00    +0.000 OA
BRANCH  16  19
ATOM     19  N   UNL     1       7.889   4.136  17.238  0.00  0.00    +0.000 NA
ATOM     20  H   UNL     1       8.133   3.221  16.857  0.00  0.00    +0.000 HD
ATOM     21  H   UNL     1       7.407   4.051  18.133  0.00  0.00    +0.000 HD
ENDBRANCH  16  19
ENDBRANCH   1  16
TORSDOF 3
ENDMDL
MODEL 3
REMARK VINA RESULT:      -7.0      0.876      1.082
REMARK  Name = 
REMARK  3 active torsions:
REMARK  status: ('A' for Active; 'I' for Inactive)
REMARK    1  A    between atoms: N_1  and  S_2
REMARK    2  A    between atoms: S_2  and  C_5
REMARK    3  A    between atoms: C_7  and  C_8
REMARK                            x       y       z     vdW  Elec       q    Type
REMARK                         _______ _______ _______ _____ _____    ______ ____
ROOT
ATOM      1  C   UNL     1       5.265   5.112  17.334  0.00  0.00    +0.000 A 
ATOM      2  C   UNL     1       4.737   6.296  17.809  0.00  0.00    +0.000 A 
ATOM      3  C   UNL     1       3.390   6.156  18.257  0.00  0.00    +0.000 A 
ATOM      4  C   UNL     1       2.941   4.858  18.123  0.00  0.00    +0.000 A 
ATOM      5  S   UNL     1       4.143   3.827  17.464  0.00  0.00    +0.000 S 
ENDROOT
BRANCH   3   6
ATOM      6  C   UNL     1       2.534   7.258  18.817  0.00  0.00    +0.000 A 
ATOM      7  N   UNL     1       2.065   7.225  20.047  0.00  0.00    +0.000 NA
ATOM      8  C   UNL     1       1.346   8.380  20.310  0.00  0.00    +0.000 A 
ATOM      9  C   UNL     1       0.723   8.713  21.530  0.00  0.00    +0.000 A 
ATOM     10  C   UNL     1       0.038   9.929  21.653  0.00  0.00    +0.000 A 
ATOM     11  C   UNL     1      -0.041  10.802  20.573  0.00  0.00    +0.000 A 
ATOM     12 CL   UNL     1      -0.888  12.291  20.742  0.00  0.00    +0.000 Cl
ATOM     13  C   UNL     1       0.559  10.496  19.351  0.00  0.00    +0.000 A 
ATOM     14  C   UNL     1       1.254   9.282  19.247  0.00  0.00    +0.000 A 
ATOM     15  S   UNL     1       2.107   8.647  17.902  0.00  0.00    +0.000 S 
ENDBRANCH   3   6
BRANCH   1  16
ATOM     16  S   UNL     1       6.852   4.724  16.654  0.00  0.00    +0.000 S 
ATOM     17  O   UNL     1       6.598   3.864  15.525  0.00  0.00    +0.000 OA
ATOM     18  O   UNL     1       7.686   4.321  17.762  0.00  0.00    +0.000 OA
BRANCH  16  19
ATOM     19  N   UNL     1       7.516   6.145  16.054  0.00  0.00    +0.000 NA
ATOM     20  H   UNL     1       7.175   6.293  15.104  0.00  0.00    +0.000 HD
ATOM     21  H   UNL     1       8.536   6.099  16.081  0.00  0.00    +0.000 HD
ENDBRANCH  16  19
ENDBRANCH   1  16
TORSDOF 3
ENDMDL
MODEL 4
REMARK VINA RESULT:      -6.7      2.276      2.835
REMARK  Name = 
REMARK  3 active torsions:
REMARK  status: ('A' for Active; 'I' for Inactive)
REMARK    1  A    between atoms: N_1  and  S_2
REMARK    2  A    between atoms: S_2  and  C_5
REMARK    3  A    between atoms: C_7  and  C_8
REMARK                            x       y       z     vdW  Elec       q    Type
REMARK                         _______ _______ _______ _____ _____    ______ ____
ROOT
ATOM      1  C   UNL     1       3.783   5.336  18.830  0.00  0.00    +0.000 A 
ATOM      2  C   UNL     1       2.931   5.993  19.695  0.00  0.00    +0.000 A 
ATOM      3  C   UNL     1       2.534   7.274  19.208  0.00  0.00    +0.000 A 
ATOM      4  C   UNL     1       3.090   7.543  17.974  0.00  0.00    +0.000 A 
ATOM      5  S   UNL     1       4.075   6.254  17.417  0.00  0.00    +0.000 S 
ENDROOT
BRANCH   3   6
ATOM      6  C   UNL     1       1.623   8.237  19.917  0.00  0.00    +0.000 A 
ATOM      7  N   UNL     1       1.252   8.058  21.168  0.00  0.00    +0.000 NA
ATOM      8  C   UNL     1       0.450   9.111  21.577  0.00  0.00    +0.000 A 
ATOM      9  C   UNL     1      -0.109   9.282  22.861  0.00  0.00    +0.000 A 
ATOM     10  C   UNL     1      -0.894  10.410  23.134  0.00  0.00    +0.000 A 
ATOM     11  C   UNL     1      -1.134  11.354  22.142  0.00  0.00    +0.000 A 
ATOM     12 CL   UNL     1      -2.102  12.733  22.497  0.00  0.00    +0.000 Cl
ATOM     13  C   UNL     1      -0.601  11.209  20.861  0.00  0.00    +0.000 A 
ATOM     14  C   UNL     1       0.195  10.082  20.606  0.00  0.00    +0.000 A 
ATOM     15  S   UNL     1       1.001   9.646  19.157  0.00  0.00    +0.000 S 
ENDBRANCH   3   6
BRANCH   1  16
ATOM     16  S   UNL     1       4.579   3.759  18.939  0.00  0.00    +0.000 S 
ATOM     17  O   UNL     1       3.706   2.931  19.735  0.00  0.00    +0.000 OA
ATOM     18  O   UNL     1       5.951   4.016  19.307  0.00  0.00    +0.000 OA
BRANCH  16  19
ATOM     19  N   UNL     1       4.619   3.096  17.396  0.00  0.00    +0.000 NA
ATOM     20  H   UNL     1       5.026   2.161  17.449  0.00  0.00    +0.000 HD
ATOM     21  H   UNL     1       5.150   3.698  16.766  0.00  0.00    +0.000 HD
ENDBRANCH  16  19
ENDBRANCH   1  16
TORSDOF 3
ENDMDL
MODEL 5
REMARK VINA RESULT:      -6.7      1.292      1.848
REMARK  Name = 
REMARK  3 active torsions:
REMARK  status: ('A' for Active; 'I' for Inactive)
REMARK    1  A    between atoms: N_1  and  S_2
REMARK    2  A    between atoms: S_2  and  C_5
REMARK    3  A    between atoms: C_7  and  C_8
REMARK                            x       y       z     vdW  Elec       q    Type
REMARK                         _______ _______ _______ _____ _____    ______ ____
ROOT
ATOM      1  C   UNL     1       5.178   5.132  17.283  0.00  0.00    +0.000 A 
ATOM      2  C   UNL     1       4.692   6.301  17.836  0.00  0.00    +0.000 A 
ATOM      3  C   UNL     1       3.308   6.213  18.174  0.00  0.00    +0.000 A 
ATOM      4  C   UNL     1       2.790   4.969  17.881  0.00  0.00    +0.000 A 
ATOM      5  S   UNL     1       3.970   3.923  17.206  0.00  0.00    +0.000 S 
ENDROOT
BRANCH   3   6
ATOM      6  C   UNL     1       2.485   7.315  18.781  0.00  0.00    +0.000 A 
ATOM      7  N   UNL     1       2.151   8.395  18.105  0.00  0.00    +0.000 NA
ATOM      8  C   UNL     1       1.363   9.220  18.891  0.00  0.00    +0.000 A 
ATOM      9  C   UNL     1       0.792  10.448  18.497  0.00  0.00    +0.000 A 
ATOM     10  C   UNL     1       0.002  11.170  19.401  0.00  0.00    +0.000 A 
ATOM     11  C   UNL     1      -0.209  10.688  20.688  0.00  0.00    +0.000 A 
ATOM     12 CL   UNL     1      -1.182  11.591  21.785  0.00  0.00    +0.000 Cl
ATOM     13  C   UNL     1       0.349   9.481  21.109  0.00  0.00    +0.000 A 
ATOM     14  C   UNL     1       1.125   8.761  20.188  0.00  0.00    +0.000 A 
ATOM     15  S   UNL     1       1.910   7.251  20.398  0.00  0.00    +0.000 S 
ENDBRANCH   3   6
BRANCH   1  16
ATOM     16  S   UNL     1       6.784   4.700  16.679  0.00  0.00    +0.000 S 
ATOM     17  O   UNL     1       6.561   3.802  15.572  0.00  0.00    +0.000 OA
ATOM     18  O   UNL     1       7.570   4.327  17.831  0.00  0.00    +0.000 OA
BRANCH  16  19
ATOM     19  N   UNL     1       7.490   6.090  16.053  0.00  0.00    +0.000 NA
ATOM     20  H   UNL     1       7.311   6.866  16.692  0.00  0.00    +0.000 HD
ATOM     21  H   UNL     1       7.125   6.283  15.120  0.00  0.00    +0.000 HD
ENDBRANCH  16  19
ENDBRANCH   1  16
TORSDOF 3
ENDMDL
MODEL 6
REMARK VINA RESULT:      -6.6      2.326      2.753
REMARK  Name = 
REMARK  3 active torsions:
REMARK  status: ('A' for Active; 'I' for Inactive)
REMARK    1  A    between atoms: N_1  and  S_2
REMARK    2  A    between atoms: S_2  and  C_5
REMARK    3  A    between atoms: C_7  and  C_8
REMARK                            x       y       z     vdW  Elec       q    Type
REMARK                         _______ _______ _______ _____ _____    ______ ____
ROOT
ATOM      1  C   UNL     1       3.716   5.388  18.753  0.00  0.00    +0.000 A 
ATOM      2  C   UNL     1       2.851   6.028  19.618  0.00  0.00    +0.000 A 
ATOM      3  C   UNL     1       2.507   7.341  19.178  0.00  0.00    +0.000 A 
ATOM      4  C   UNL     1       3.113   7.651  17.978  0.00  0.00    +0.000 A 
ATOM      5  S   UNL     1       4.083   6.362  17.396  0.00  0.00    +0.000 S 
ENDROOT
BRANCH   3   6
ATOM      6  C   UNL     1       1.597   8.296  19.901  0.00  0.00    +0.000 A 
ATOM      7  N   UNL     1       1.222   8.098  21.148  0.00  0.00    +0.000 NA
ATOM      8  C   UNL     1       0.422   9.147  21.572  0.00  0.00    +0.000 A 
ATOM      9  C   UNL     1      -0.140   9.299  22.856  0.00  0.00    +0.000 A 
ATOM     10  C   UNL     1      -0.922  10.425  23.146  0.00  0.00    +0.000 A 
ATOM     11  C   UNL     1      -1.156  11.386  22.168  0.00  0.00    +0.000 A 
ATOM     12 CL   UNL     1      -2.120  12.763  22.542  0.00  0.00    +0.000 Cl
ATOM     13  C   UNL     1      -0.620  11.260  20.886  0.00  0.00    +0.000 A 
ATOM     14  C   UNL     1       0.173  10.134  20.615  0.00  0.00    +0.000 A 
ATOM     15  S   UNL     1       0.982   9.719  19.162  0.00  0.00    +0.000 S 
ENDBRANCH   3   6
BRANCH   1  16
ATOM     16  S   UNL     1       4.464   3.785  18.814  0.00  0.00    +0.000 S 
ATOM     17  O   UNL     1       5.826   4.002  19.236  0.00  0.00    +0.000 OA
ATOM     18  O   UNL     1       4.133   3.130  17.571  0.00  0.00    +0.000 OA
BRANCH  16  19
ATOM     19  N   UNL     1       3.704   2.909  20.029  0.00  0.00    +0.000 NA
ATOM     20  H   UNL     1       3.075   3.530  20.540  0.00  0.00    +0.000 HD
ATOM     21  H   UNL     1       4.397   2.488  20.649  0.00  0.00    +0.000 HD
ENDBRANCH  16  19
ENDBRANCH   1  16
TORSDOF 3
ENDMDL
MODEL 7
REMARK VINA RESULT:      -6.6      2.868      3.502
REMARK  Name = 
REMARK  3 active torsions:
REMARK  status: ('A' for Active; 'I' for Inactive)
REMARK    1  A    between atoms: N_1  and  S_2
REMARK    2  A    between atoms: S_2  and  C_5
REMARK    3  A    between atoms: C_7  and  C_8
REMARK                            x       y       z     vdW  Elec       q    Type
REMARK                         _______ _______ _______ _____ _____    ______ ____
ROOT
ATOM      1  C   UNL     1       3.007   4.476  19.669  0.00  0.00    +0.000 A 
ATOM      2  C   UNL     1       2.211   5.368  20.359  0.00  0.00    +0.000 A 
ATOM      3  C   UNL     1       2.229   6.675  19.788  0.00  0.00    +0.000 A 
ATOM      4  C   UNL     1       3.031   6.730  18.667  0.00  0.00    +0.000 A 
ATOM      5  S   UNL     1       3.748   5.213  18.314  0.00  0.00    +0.000 S 
ENDROOT
BRANCH   3   6
ATOM      6  C   UNL     1       1.478   7.869  20.311  0.00  0.00    +0.000 A 
ATOM      7  N   UNL     1       0.938   7.887  21.511  0.00  0.00    +0.000 NA
ATOM      8  C   UNL     1       0.346   9.117  21.745  0.00  0.00    +0.000 A 
ATOM      9  C   UNL     1      -0.303   9.518  22.932  0.00  0.00    +0.000 A 
ATOM     10  C   UNL     1      -0.846  10.805  23.028  0.00  0.00    +0.000 A 
ATOM     11  C   UNL     1      -0.759  11.685  21.954  0.00  0.00    +0.000 A 
ATOM     12 CL   UNL     1      -1.434  13.263  22.091  0.00  0.00    +0.000 Cl
ATOM     13  C   UNL     1      -0.131  11.315  20.765  0.00  0.00    +0.000 A 
ATOM     14  C   UNL     1       0.421  10.028  20.688  0.00  0.00    +0.000 A 
ATOM     15  S   UNL     1       1.270   9.302  19.387  0.00  0.00    +0.000 S 
ENDBRANCH   3   6
BRANCH   1  16
ATOM     16  S   UNL     1       3.361   2.763  19.942  0.00  0.00    +0.000 S 
ATOM     17  O   UNL     1       2.703   2.050  18.875  0.00  0.00    +0.000 OA
ATOM     18  O   UNL     1       3.081   2.504  21.335  0.00  0.00    +0.000 OA
BRANCH  16  19
ATOM     19  N   UNL     1       5.014   2.541  19.741  0.00  0.00    +0.000 NA
ATOM     20  H   UNL     1       5.400   3.354  19.260  0.00  0.00    +0.000 HD
ATOM     21  H   UNL     1       5.194   1.680  19.222  0.00  0.00    +0.000 HD
ENDBRANCH  16  19
ENDBRANCH   1  16
TORSDOF 3
ENDMDL
MODEL 8
REMARK VINA RESULT:      -6.5      3.034      3.596
REMARK  Name = 
REMARK  3 active torsions:
REMARK  status: ('A' for Active; 'I' for Inactive)
REMARK    1  A    between atoms: N_1  and  S_2
REMARK    2  A    between atoms: S_2  and  C_5
REMARK    3  A    between atoms: C_7  and  C_8
REMARK                            x       y       z     vdW  Elec       q    Type
REMARK                         _______ _______ _______ _____ _____    ______ ____
ROOT
ATOM      1  C   UNL     1       2.959   4.489  19.834  0.00  0.00    +0.000 A 
ATOM      2  C   UNL     1       2.163   5.403  20.496  0.00  0.00    +0.000 A 
ATOM      3  C   UNL     1       2.188   6.694  19.887  0.00  0.00    +0.000 A 
ATOM      4  C   UNL     1       2.994   6.713  18.767  0.00  0.00    +0.000 A 
ATOM      5  S   UNL     1       3.706   5.184  18.461  0.00  0.00    +0.000 S 
ENDROOT
BRANCH   3   6
ATOM      6  C   UNL     1       1.439   7.905  20.372  0.00  0.00    +0.000 A 
ATOM      7  N   UNL     1       0.908   7.964  21.575  0.00  0.00    +0.000 NA
ATOM      8  C   UNL     1       0.316   9.202  21.769  0.00  0.00    +0.000 A 
ATOM      9  C   UNL     1      -0.325   9.644  22.945  0.00  0.00    +0.000 A 
ATOM     10  C   UNL     1      -0.869  10.934  22.999  0.00  0.00    +0.000 A 
ATOM     11  C   UNL     1      -0.791  11.774  21.894  0.00  0.00    +0.000 A 
ATOM     12 CL   UNL     1      -1.467  13.356  21.979  0.00  0.00    +0.000 Cl
ATOM     13  C   UNL     1      -0.171  11.363  20.714  0.00  0.00    +0.000 A 
ATOM     14  C   UNL     1       0.383  10.074  20.680  0.00  0.00    +0.000 A 
ATOM     15  S   UNL     1       1.223   9.304  19.399  0.00  0.00    +0.000 S 
ENDBRANCH   3   6
BRANCH   1  16
ATOM     16  S   UNL     1       3.306   2.784  20.158  0.00  0.00    +0.000 S 
ATOM     17  O   UNL     1       4.736   2.644  20.046  0.00  0.00    +0.000 OA
ATOM     18  O   UNL     1       2.386   2.018  19.350  0.00  0.00    +0.000 OA
BRANCH  16  19
ATOM     19  N   UNL     1       2.902   2.473  21.759  0.00  0.00    +0.000 NA
ATOM     20  H   UNL     1       3.754   2.261  22.279  0.00  0.00    +0.000 HD
ATOM     21  H   UNL     1       2.233   1.703  21.812  0.00  0.00    +0.000 HD
ENDBRANCH  16  19
ENDBRANCH   1  16
TORSDOF 3
ENDMDL
MODEL 9
REMARK VINA RESULT:      -6.5      1.381      1.562
REMARK  Name = 
REMARK  3 active torsions:
REMARK  status: ('A' for Active; 'I' for Inactive)
REMARK    1  A    between atoms: N_1  and  S_2
REMARK    2  A    between atoms: S_2  and  C_5
REMARK    3  A    between atoms: C_7  and  C_8
REMARK                            x       y       z     vdW  Elec       q    Type
REMARK                         _______ _______ _______ _____ _____    ______ ____
ROOT
ATOM      1  C   UNL     1       4.382   6.140  17.349  0.00  0.00    +0.000 A 
ATOM      2  C   UNL     1       3.820   7.268  17.914  0.00  0.00    +0.000 A 
ATOM      3  C   UNL     1       2.699   6.966  18.743  0.00  0.00    +0.000 A 
ATOM      4  C   UNL     1       2.454   5.609  18.793  0.00  0.00    +0.000 A 
ATOM      5  S   UNL     1       3.574   4.718  17.848  0.00  0.00    +0.000 S 
ENDROOT
BRANCH   3   6
ATOM      6  C   UNL     1       1.866   7.971  19.489  0.00  0.00    +0.000 A 
ATOM      7  N   UNL     1       1.521   7.799  20.748  0.00  0.00    +0.000 NA
ATOM      8  C   UNL     1       0.792   8.891  21.191  0.00  0.00    +0.000 A 
ATOM      9  C   UNL     1       0.282   9.079  22.493  0.00  0.00    +0.000 A 
ATOM     10  C   UNL     1      -0.429  10.246  22.800  0.00  0.00    +0.000 A 
ATOM     11  C   UNL     1      -0.643  11.214  21.825  0.00  0.00    +0.000 A 
ATOM     12 CL   UNL     1      -1.520  12.642  22.222  0.00  0.00    +0.000 Cl
ATOM     13  C   UNL     1      -0.157  11.054  20.527  0.00  0.00    +0.000 A 
ATOM     14  C   UNL     1       0.565   9.886  20.238  0.00  0.00    +0.000 A 
ATOM     15  S   UNL     1       1.303   9.422  18.761  0.00  0.00    +0.000 S 
ENDBRANCH   3   6
BRANCH   1  16
ATOM     16  S   UNL     1       5.753   5.938  16.247  0.00  0.00    +0.000 S 
ATOM     17  O   UNL     1       5.346   6.533  14.998  0.00  0.00    +0.000 OA
ATOM     18  O   UNL     1       6.162   4.557  16.351  0.00  0.00    +0.000 OA
BRANCH  16  19
ATOM     19  N   UNL     1       7.029   6.856  16.841  0.00  0.00    +0.000 NA
ATOM     20  H   UNL     1       7.236   7.602  16.176  0.00  0.00    +0.000 HD
ATOM     21  H   UNL     1       7.845   6.264  17.004  0.00  0.00    +0.000 HD
ENDBRANCH  16  19
ENDBRANCH   1  16
TORSDOF 3
ENDMDL
