MODEL 1
REMARK VINA RESULT:      -6.7      0.000      0.000
REMARK  Name = 
REMARK  12 active torsions:
REMARK  status: ('A' for Active; 'I' for Inactive)
REMARK    1  A    between atoms: C_1  and  O_2
REMARK    2  A    between atoms: O_2  and  C_3
REMARK    3  A    between atoms: C_5  and  O_6
REMARK    4  A    between atoms: O_6  and  C_7
REMARK    5  A    between atoms: C_8  and  C_9
REMARK    6  A    between atoms: N_12  and  C_13
REMARK    7  A    between atoms: C_16  and  O_17
REMARK    8  A    between atoms: O_17  and  C_18
REMARK    9  A    between atoms: C_19  and  C_20
REMARK   10  A    between atoms: C_21  and  C_22
REMARK   11  A    between atoms: C_22  and  C_24
REMARK   12  A    between atoms: C_27  and  N_28
REMARK                            x       y       z     vdW  Elec       q    Type
REMARK                         _______ _______ _______ _____ _____    ______ ____
ROOT
ATOM      1  C   UNL     1      -2.001  10.557  17.823  0.00  0.00    +0.000 A 
ATOM      2  C   UNL     1      -3.144  11.287  18.153  0.00  0.00    +0.000 A 
ATOM      3  C   UNL     1      -3.197  12.062  19.309  0.00  0.00    +0.000 A 
ATOM      4  C   UNL     1      -2.046  12.193  20.118  0.00  0.00    +0.000 A 
ATOM      5  C   UNL     1      -0.849  11.522  19.742  0.00  0.00    +0.000 A 
ATOM      6  C   UNL     1      -0.818  10.693  18.588  0.00  0.00    +0.000 A 
ENDROOT
BRANCH   4   7
ATOM      7  C   UNL     1      -2.153  12.952  21.387  0.00  0.00    +0.000 C 
ATOM      8  C   UNL     1      -2.587  12.324  22.489  0.00  0.00    +0.000 C 
ATOM      9  C   UNL     1      -2.865  13.002  23.791  0.00  0.00    +0.000 C 
ATOM     10  N   UNL     1      -2.705  14.447  23.855  0.00  0.00    +0.000 NA
ATOM     11  C   UNL     1      -3.897  15.151  24.298  0.00  0.00    +0.000 C 
ATOM     12  C   UNL     1      -1.984  15.104  22.765  0.00  0.00    +0.000 C 
ATOM     13  C   UNL     1      -1.895  14.424  21.381  0.00  0.00    +0.000 C 
ENDBRANCH   4   7
BRANCH   1  15
ATOM     14  C   UNL     1      -2.788  10.142  15.617  0.00  0.00    +0.000 C 
ATOM     15  O   UNL     1      -1.967   9.742  16.713  0.00  0.00    +0.000 OA
ENDBRANCH   1  15
BRANCH   3  16
ATOM     16  O   UNL     1      -4.340  12.732  19.686  0.00  0.00    +0.000 OA
ATOM     17  C   UNL     1      -5.567  12.022  19.525  0.00  0.00    +0.000 C 
ENDBRANCH   3  16
BRANCH   5  18
ATOM     18  O   UNL     1       0.296  11.868  20.431  0.00  0.00    +0.000 OA
ATOM     19  C   UNL     1       1.108  12.869  19.822  0.00  0.00    +0.000 C 
ENDBRANCH   5  18
BRANCH   6  20
ATOM     20  C   UNL     1       0.355   9.923  18.121  0.00  0.00    +0.000 C 
ATOM     21  C   UNL     1       1.052   9.039  18.855  0.00  0.00    +0.000 C 
BRANCH  21  22
ATOM     22  C   UNL     1       2.197   8.310  18.245  0.00  0.00    +0.000 C 
ATOM     23  O   UNL     1       2.833   8.769  17.301  0.00  0.00    +0.000 OA
BRANCH  22  24
ATOM     24  C   UNL     1       2.518   6.956  18.772  0.00  0.00    +0.000 A 
ATOM     25  C   UNL     1       3.304   6.108  17.981  0.00  0.00    +0.000 A 
ATOM     26  C   UNL     1       3.637   4.825  18.432  0.00  0.00    +0.000 A 
ATOM     27  C   UNL     1       3.234   4.389  19.695  0.00  0.00    +0.000 A 
ATOM     28  C   UNL     1       2.407   5.215  20.456  0.00  0.00    +0.000 A 
ATOM     29  C   UNL     1       2.075   6.500  20.018  0.00  0.00    +0.000 A 
BRANCH  27  30
ATOM     30  N   UNL     1       3.462   3.069  20.095  0.00  0.00    +0.000 N 
ATOM     31  H   UNL     1       3.783   2.462  19.347  0.00  0.00    +0.000 HD
ATOM     32  H   UNL     1       4.035   2.984  20.930  0.00  0.00    +0.000 HD
ENDBRANCH  27  30
ENDBRANCH  22  24
ENDBRANCH  21  22
ENDBRANCH   6  20
TORSDOF 8
ENDMDL
MODEL 2
REMARK VINA RESULT:      -6.7      1.497      1.722
REMARK  Name = 
REMARK  12 active torsions:
REMARK  status: ('A' for Active; 'I' for Inactive)
REMARK    1  A    between atoms: C_1  and  O_2
REMARK    2  A    between atoms: O_2  and  C_3
REMARK    3  A    between atoms: C_5  and  O_6
REMARK    4  A    between atoms: O_6  and  C_7
REMARK    5  A    between atoms: C_8  and  C_9
REMARK    6  A    between atoms: N_12  and  C_13
REMARK    7  A    between atoms: C_16  and  O_17
REMARK    8  A    between atoms: O_17  and  C_18
REMARK    9  A    between atoms: C_19  and  C_20
REMARK   10  A    between atoms: C_21  and  C_22
REMARK   11  A    between atoms: C_22  and  C_24
REMARK   12  A    between atoms: C_27  and  N_28
REMARK                            x       y       z     vdW  Elec       q    Type
REMARK                         _______ _______ _______ _____ _____    ______ ____
ROOT
ATOM      1  C   UNL     1      -2.992  10.901  17.709  0.00  0.00    +0.000 A 
ATOM      2  C   UNL     1      -4.310  11.301  17.931  0.00  0.00    +0.000 A 
ATOM      3  C   UNL     1      -4.652  12.086  19.030  0.00  0.00    +0.000 A 
ATOM      4  C   UNL     1      -3.637  12.572  19.885  0.00  0.00    +0.000 A 
ATOM      5  C   UNL     1      -2.280  12.242  19.616  0.00  0.00    +0.000 A 
ATOM      6  C   UNL     1      -1.946  11.398  18.522  0.00  0.00    +0.000 A 
ENDROOT
BRANCH   4   7
ATOM      7  C   UNL     1      -4.033  13.333  21.094  0.00  0.00    +0.000 C 
ATOM      8  C   UNL     1      -4.287  12.669  22.231  0.00  0.00    +0.000 C 
ATOM      9  C   UNL     1      -4.820  13.300  23.475  0.00  0.00    +0.000 C 
ATOM     10  N   UNL     1      -5.135  14.721  23.438  0.00  0.00    +0.000 NA
ATOM     11  C   UNL     1      -6.506  15.029  23.808  0.00  0.00    +0.000 C 
ATOM     12  C   UNL     1      -4.620  15.506  22.317  0.00  0.00    +0.000 C 
ATOM     13  C   UNL     1      -4.261  14.807  20.987  0.00  0.00    +0.000 C 
ENDBRANCH   4   7
BRANCH   1  15
ATOM     14  C   UNL     1      -3.010  10.545  15.357  0.00  0.00    +0.000 C 
ATOM     15  O   UNL     1      -2.661  10.074  16.658  0.00  0.00    +0.000 OA
ENDBRANCH   1  15
BRANCH   3  16
ATOM     16  O   UNL     1      -5.957  12.431  19.303  0.00  0.00    +0.000 OA
ATOM     17  C   UNL     1      -6.858  11.348  19.531  0.00  0.00    +0.000 C 
ENDBRANCH   3  16
BRANCH   5  18
ATOM     18  O   UNL     1      -1.322  12.926  20.338  0.00  0.00    +0.000 OA
ATOM     19  C   UNL     1      -0.796  14.097  19.717  0.00  0.00    +0.000 C 
ENDBRANCH   5  18
BRANCH   6  20
ATOM     20  C   UNL     1      -0.578  10.962  18.167  0.00  0.00    +0.000 C 
ATOM     21  C   UNL     1       0.160  10.070  18.850  0.00  0.00    +0.000 C 
BRANCH  21  22
ATOM     22  C   UNL     1       1.515   9.700  18.360  0.00  0.00    +0.000 C 
ATOM     23  O   UNL     1       2.167  10.439  17.628  0.00  0.00    +0.000 OA
BRANCH  22  24
ATOM     24  C   UNL     1       2.045   8.360  18.729  0.00  0.00    +0.000 A 
ATOM     25  C   UNL     1       2.886   7.707  17.817  0.00  0.00    +0.000 A 
ATOM     26  C   UNL     1       3.414   6.446  18.118  0.00  0.00    +0.000 A 
ATOM     27  C   UNL     1       3.152   5.840  19.348  0.00  0.00    +0.000 A 
ATOM     28  C   UNL     1       2.270   6.468  20.229  0.00  0.00    +0.000 A 
ATOM     29  C   UNL     1       1.745   7.731  19.942  0.00  0.00    +0.000 A 
BRANCH  27  30
ATOM     30  N   UNL     1       3.577   4.532  19.599  0.00  0.00    +0.000 N 
ATOM     31  H   UNL     1       3.152   4.113  20.420  0.00  0.00    +0.000 HD
ATOM     32  H   UNL     1       3.531   3.921  18.790  0.00  0.00    +0.000 HD
ENDBRANCH  27  30
ENDBRANCH  22  24
ENDBRANCH  21  22
ENDBRANCH   6  20
TORSDOF 8
ENDMDL
MODEL 3
REMARK VINA RESULT:      -6.6      0.530      1.385
REMARK  Name = 
REMARK  12 active torsions:
REMARK  status: ('A' for Active; 'I' for Inactive)
REMARK    1  A    between atoms: C_1  and  O_2
REMARK    2  A    between atoms: O_2  and  C_3
REMARK    3  A    between atoms: C_5  and  O_6
REMARK    4  A    between atoms: O_6  and  C_7
REMARK    5  A    between atoms: C_8  and  C_9
REMARK    6  A    between atoms: N_12  and  C_13
REMARK    7  A    between atoms: C_16  and  O_17
REMARK    8  A    between atoms: O_17  and  C_18
REMARK    9  A    between atoms: C_19  and  C_20
REMARK   10  A    between atoms: C_21  and  C_22
REMARK   11  A    between atoms: C_22  and  C_24
REMARK   12  A    between atoms: C_27  and  N_28
REMARK                            x       y       z     vdW  Elec       q    Type
REMARK                         _______ _______ _______ _____ _____    ______ ____
ROOT
ATOM      1  C   UNL     1      -2.158  10.504  17.742  0.00  0.00    +0.000 A 
ATOM      2  C   UNL     1      -3.338  11.189  18.032  0.00  0.00    +0.000 A 
ATOM      3  C   UNL     1      -3.441  12.009  19.153  0.00  0.00    +0.000 A 
ATOM      4  C   UNL     1      -2.304  12.234  19.962  0.00  0.00    +0.000 A 
ATOM      5  C   UNL     1      -1.071  11.609  19.624  0.00  0.00    +0.000 A 
ATOM      6  C   UNL     1      -0.990  10.733  18.507  0.00  0.00    +0.000 A 
ENDROOT
BRANCH   4   7
ATOM      7  C   UNL     1      -2.460  13.041  21.196  0.00  0.00    +0.000 C 
ATOM      8  C   UNL     1      -2.288  14.369  21.134  0.00  0.00    +0.000 C 
ATOM      9  C   UNL     1      -2.286  15.275  22.322  0.00  0.00    +0.000 C 
ATOM     10  N   UNL     1      -2.426  14.672  23.639  0.00  0.00    +0.000 NA
ATOM     11  C   UNL     1      -1.345  15.000  24.553  0.00  0.00    +0.000 C 
ATOM     12  C   UNL     1      -2.879  13.283  23.711  0.00  0.00    +0.000 C 
ATOM     13  C   UNL     1      -2.680  12.345  22.500  0.00  0.00    +0.000 C 
ENDBRANCH   4   7
BRANCH   1  15
ATOM     14  C   UNL     1      -2.820  10.013  15.511  0.00  0.00    +0.000 C 
ATOM     15  O   UNL     1      -2.073   9.644  16.668  0.00  0.00    +0.000 OA
ENDBRANCH   1  15
BRANCH   3  16
ATOM     16  O   UNL     1      -4.618  12.637  19.492  0.00  0.00    +0.000 OA
ATOM     17  C   UNL     1      -5.699  12.484  18.573  0.00  0.00    +0.000 C 
ENDBRANCH   3  16
BRANCH   5  18
ATOM     18  O   UNL     1       0.049  12.041  20.304  0.00  0.00    +0.000 OA
ATOM     19  C   UNL     1       0.822  13.045  19.650  0.00  0.00    +0.000 C 
ENDBRANCH   5  18
BRANCH   6  20
ATOM     20  C   UNL     1       0.224  10.003  18.082  0.00  0.00    +0.000 C 
ATOM     21  C   UNL     1       0.926   9.144  18.841  0.00  0.00    +0.000 C 
BRANCH  21  22
ATOM     22  C   UNL     1       2.116   8.455  18.272  0.00  0.00    +0.000 C 
ATOM     23  O   UNL     1       2.811   8.969  17.400  0.00  0.00    +0.000 OA
BRANCH  22  24
ATOM     24  C   UNL     1       2.411   7.075  18.744  0.00  0.00    +0.000 A 
ATOM     25  C   UNL     1       1.994   6.713  20.031  0.00  0.00    +0.000 A 
ATOM     26  C   UNL     1       2.244   5.426  20.521  0.00  0.00    +0.000 A 
ATOM     27  C   UNL     1       2.868   4.469  19.720  0.00  0.00    +0.000 A 
ATOM     28  C   UNL     1       3.330   4.849  18.459  0.00  0.00    +0.000 A 
ATOM     29  C   UNL     1       3.078   6.130  17.958  0.00  0.00    +0.000 A 
BRANCH  27  30
ATOM     30  N   UNL     1       3.227   3.225  20.249  0.00  0.00    +0.000 N 
ATOM     31  H   UNL     1       3.221   3.193  21.264  0.00  0.00    +0.000 HD
ATOM     32  H   UNL     1       2.726   2.443  19.838  0.00  0.00    +0.000 HD
ENDBRANCH  27  30
ENDBRANCH  22  24
ENDBRANCH  21  22
ENDBRANCH   6  20
TORSDOF 8
ENDMDL
MODEL 4
REMARK VINA RESULT:      -6.6      0.834      1.208
REMARK  Name = 
REMARK  12 active torsions:
REMARK  status: ('A' for Active; 'I' for Inactive)
REMARK    1  A    between atoms: C_1  and  O_2
REMARK    2  A    between atoms: O_2  and  C_3
REMARK    3  A    between atoms: C_5  and  O_6
REMARK    4  A    between atoms: O_6  and  C_7
REMARK    5  A    between atoms: C_8  and  C_9
REMARK    6  A    between atoms: N_12  and  C_13
REMARK    7  A    between atoms: C_16  and  O_17
REMARK    8  A    between atoms: O_17  and  C_18
REMARK    9  A    between atoms: C_19  and  C_20
REMARK   10  A    between atoms: C_21  and  C_22
REMARK   11  A    between atoms: C_22  and  C_24
REMARK   12  A    between atoms: C_27  and  N_28
REMARK                            x       y       z     vdW  Elec       q    Type
REMARK                         _______ _______ _______ _____ _____    ______ ____
ROOT
ATOM      1  C   UNL     1      -1.625  10.550  18.088  0.00  0.00    +0.000 A 
ATOM      2  C   UNL     1      -2.675  11.373  18.497  0.00  0.00    +0.000 A 
ATOM      3  C   UNL     1      -2.526  12.258  19.563  0.00  0.00    +0.000 A 
ATOM      4  C   UNL     1      -1.265  12.400  20.184  0.00  0.00    +0.000 A 
ATOM      5  C   UNL     1      -0.165  11.628  19.716  0.00  0.00    +0.000 A 
ATOM      6  C   UNL     1      -0.338  10.691  18.662  0.00  0.00    +0.000 A 
ENDROOT
BRANCH   4   7
ATOM      7  C   UNL     1      -1.153  13.282  21.370  0.00  0.00    +0.000 C 
ATOM      8  C   UNL     1      -1.483  12.801  22.577  0.00  0.00    +0.000 C 
ATOM      9  C   UNL     1      -1.542  13.620  23.825  0.00  0.00    +0.000 C 
ATOM     10  N   UNL     1      -1.276  15.047  23.717  0.00  0.00    +0.000 NA
ATOM     11  C   UNL     1      -2.348  15.884  24.226  0.00  0.00    +0.000 C 
ATOM     12  C   UNL     1      -0.660  15.535  22.484  0.00  0.00    +0.000 C 
ATOM     13  C   UNL     1      -0.798  14.722  21.178  0.00  0.00    +0.000 C 
ENDBRANCH   4   7
BRANCH   1  15
ATOM     14  C   UNL     1      -2.675  10.009  16.024  0.00  0.00    +0.000 C 
ATOM     15  O   UNL     1      -1.787   9.631  17.075  0.00  0.00    +0.000 OA
ENDBRANCH   1  15
BRANCH   3  16
ATOM     16  O   UNL     1      -3.572  13.026  20.025  0.00  0.00    +0.000 OA
ATOM     17  C   UNL     1      -4.875  12.460  19.889  0.00  0.00    +0.000 C 
ENDBRANCH   3  16
BRANCH   5  18
ATOM     18  O   UNL     1       1.082  11.972  20.198  0.00  0.00    +0.000 OA
ATOM     19  C   UNL     1       1.847  12.845  19.370  0.00  0.00    +0.000 C 
ENDBRANCH   5  18
BRANCH   6  20
ATOM     20  C   UNL     1       0.720   9.814  18.117  0.00  0.00    +0.000 C 
ATOM     21  C   UNL     1       1.378   8.864  18.804  0.00  0.00    +0.000 C 
BRANCH  21  22
ATOM     22  C   UNL     1       2.403   8.031  18.119  0.00  0.00    +0.000 C 
ATOM     23  O   UNL     1       3.015   8.431  17.132  0.00  0.00    +0.000 OA
BRANCH  22  24
ATOM     24  C   UNL     1       2.627   6.650  18.625  0.00  0.00    +0.000 A 
ATOM     25  C   UNL     1       2.208   6.347  19.927  0.00  0.00    +0.000 A 
ATOM     26  C   UNL     1       2.393   5.061  20.450  0.00  0.00    +0.000 A 
ATOM     27  C   UNL     1       2.951   4.049  19.668  0.00  0.00    +0.000 A 
ATOM     28  C   UNL     1       3.417   4.369  18.392  0.00  0.00    +0.000 A 
ATOM     29  C   UNL     1       3.230   5.647  17.858  0.00  0.00    +0.000 A 
BRANCH  27  30
ATOM     30  N   UNL     1       3.247   2.802  20.227  0.00  0.00    +0.000 N 
ATOM     31  H   UNL     1       2.461   2.160  20.238  0.00  0.00    +0.000 HD
ATOM     32  H   UNL     1       4.087   2.372  19.853  0.00  0.00    +0.000 HD
ENDBRANCH  27  30
ENDBRANCH  22  24
ENDBRANCH  21  22
ENDBRANCH   6  20
TORSDOF 8
ENDMDL
MODEL 5
REMARK VINA RESULT:      -6.6      1.564      2.021
REMARK  Name = 
REMARK  12 active torsions:
REMARK  status: ('A' for Active; 'I' for Inactive)
REMARK    1  A    between atoms: C_1  and  O_2
REMARK    2  A    between atoms: O_2  and  C_3
REMARK    3  A    between atoms: C_5  and  O_6
REMARK    4  A    between atoms: O_6  and  C_7
REMARK    5  A    between atoms: C_8  and  C_9
REMARK    6  A    between atoms: N_12  and  C_13
REMARK    7  A    between atoms: C_16  and  O_17
REMARK    8  A    between atoms: O_17  and  C_18
REMARK    9  A    between atoms: C_19  and  C_20
REMARK   10  A    between atoms: C_21  and  C_22
REMARK   11  A    between atoms: C_22  and  C_24
REMARK   12  A    between atoms: C_27  and  N_28
REMARK                            x       y       z     vdW  Elec       q    Type
REMARK                         _______ _______ _______ _____ _____    ______ ____
ROOT
ATOM      1  C   UNL     1      -2.993  10.870  17.729  0.00  0.00    +0.000 A 
ATOM      2  C   UNL     1      -4.326  11.223  17.944  0.00  0.00    +0.000 A 
ATOM      3  C   UNL     1      -4.698  12.015  19.027  0.00  0.00    +0.000 A 
ATOM      4  C   UNL     1      -3.703  12.554  19.874  0.00  0.00    +0.000 A 
ATOM      5  C   UNL     1      -2.334  12.272  19.611  0.00  0.00    +0.000 A 
ATOM      6  C   UNL     1      -1.967  11.421  18.533  0.00  0.00    +0.000 A 
ENDROOT
BRANCH   4   7
ATOM      7  C   UNL     1      -4.129  13.322  21.068  0.00  0.00    +0.000 C 
ATOM      8  C   UNL     1      -4.378  12.668  22.212  0.00  0.00    +0.000 C 
ATOM      9  C   UNL     1      -4.938  13.303  23.442  0.00  0.00    +0.000 C 
ATOM     10  N   UNL     1      -5.286  14.715  23.383  0.00  0.00    +0.000 NA
ATOM     11  C   UNL     1      -6.668  14.994  23.736  0.00  0.00    +0.000 C 
ATOM     12  C   UNL     1      -4.779  15.497  22.256  0.00  0.00    +0.000 C 
ATOM     13  C   UNL     1      -4.391  14.788  20.939  0.00  0.00    +0.000 C 
ENDBRANCH   4   7
BRANCH   1  15
ATOM     14  C   UNL     1      -3.051  10.437  15.391  0.00  0.00    +0.000 C 
ATOM     15  O   UNL     1      -2.630  10.036  16.694  0.00  0.00    +0.000 OA
ENDBRANCH   1  15
BRANCH   3  16
ATOM     16  O   UNL     1      -6.015  12.315  19.294  0.00  0.00    +0.000 OA
ATOM     17  C   UNL     1      -6.979  11.760  18.399  0.00  0.00    +0.000 C 
ENDBRANCH   3  16
BRANCH   5  18
ATOM     18  O   UNL     1      -1.404  13.005  20.320  0.00  0.00    +0.000 OA
ATOM     19  C   UNL     1      -0.835  12.353  21.454  0.00  0.00    +0.000 C 
ENDBRANCH   5  18
BRANCH   6  20
ATOM     20  C   UNL     1      -0.583  11.031  18.186  0.00  0.00    +0.000 C 
ATOM     21  C   UNL     1       0.136  10.075  18.799  0.00  0.00    +0.000 C 
BRANCH  21  22
ATOM     22  C   UNL     1       1.511   9.765  18.324  0.00  0.00    +0.000 C 
ATOM     23  O   UNL     1       2.163  10.559  17.653  0.00  0.00    +0.000 OA
BRANCH  22  24
ATOM     24  C   UNL     1       2.065   8.418  18.631  0.00  0.00    +0.000 A 
ATOM     25  C   UNL     1       1.741   7.835  19.863  0.00  0.00    +0.000 A 
ATOM     26  C   UNL     1       2.233   6.568  20.198  0.00  0.00    +0.000 A 
ATOM     27  C   UNL     1       3.014   5.847  19.295  0.00  0.00    +0.000 A 
ATOM     28  C   UNL     1       3.380   6.453  18.093  0.00  0.00    +0.000 A 
ATOM     29  C   UNL     1       2.887   7.714  17.745  0.00  0.00    +0.000 A 
BRANCH  27  30
ATOM     30  N   UNL     1       3.605   4.638  19.675  0.00  0.00    +0.000 N 
ATOM     31  H   UNL     1       3.063   3.818  19.424  0.00  0.00    +0.000 HD
ATOM     32  H   UNL     1       4.579   4.552  19.401  0.00  0.00    +0.000 HD
ENDBRANCH  27  30
ENDBRANCH  22  24
ENDBRANCH  21  22
ENDBRANCH   6  20
TORSDOF 8
ENDMDL
MODEL 6
REMARK VINA RESULT:      -6.6      2.225      3.840
REMARK  Name = 
REMARK  12 active torsions:
REMARK  status: ('A' for Active; 'I' for Inactive)
REMARK    1  A    between atoms: C_1  and  O_2
REMARK    2  A    between atoms: O_2  and  C_3
REMARK    3  A    between atoms: C_5  and  O_6
REMARK    4  A    between atoms: O_6  and  C_7
REMARK    5  A    between atoms: C_8  and  C_9
REMARK    6  A    between atoms: N_12  and  C_13
REMARK    7  A    between atoms: C_16  and  O_17
REMARK    8  A    between atoms: O_17  and  C_18
REMARK    9  A    between atoms: C_19  and  C_20
REMARK   10  A    between atoms: C_21  and  C_22
REMARK   11  A    between atoms: C_22  and  C_24
REMARK   12  A    between atoms: C_27  and  N_28
REMARK                            x       y       z     vdW  Elec       q    Type
REMARK                         _______ _______ _______ _____ _____    ______ ____
ROOT
ATOM      1  C   UNL     1      -0.975  11.436  22.264  0.00  0.00    +0.000 A 
ATOM      2  C   UNL     1      -2.042  11.776  23.096  0.00  0.00    +0.000 A 
ATOM      3  C   UNL     1      -3.137  12.488  22.612  0.00  0.00    +0.000 A 
ATOM      4  C   UNL     1      -3.221  12.791  21.234  0.00  0.00    +0.000 A 
ATOM      5  C   UNL     1      -2.178  12.371  20.362  0.00  0.00    +0.000 A 
ATOM      6  C   UNL     1      -1.041  11.690  20.873  0.00  0.00    +0.000 A 
ENDROOT
BRANCH   4   7
ATOM      7  C   UNL     1      -4.352  13.623  20.758  0.00  0.00    +0.000 C 
ATOM      8  C   UNL     1      -5.460  13.022  20.304  0.00  0.00    +0.000 C 
ATOM      9  C   UNL     1      -6.612  13.738  19.677  0.00  0.00    +0.000 C 
ATOM     10  N   UNL     1      -6.503  15.178  19.497  0.00  0.00    +0.000 NA
ATOM     11  C   UNL     1      -6.686  15.615  18.124  0.00  0.00    +0.000 C 
ATOM     12  C   UNL     1      -5.440  15.878  20.219  0.00  0.00    +0.000 C 
ATOM     13  C   UNL     1      -4.184  15.107  20.679  0.00  0.00    +0.000 C 
ENDBRANCH   4   7
BRANCH   1  15
ATOM     14  C   UNL     1      -0.105   9.542  23.411  0.00  0.00    +0.000 C 
ATOM     15  O   UNL     1       0.137  10.786  22.754  0.00  0.00    +0.000 OA
ENDBRANCH   1  15
BRANCH   3  16
ATOM     16  O   UNL     1      -4.166  12.892  23.433  0.00  0.00    +0.000 OA
ATOM     17  C   UNL     1      -4.198  12.305  24.734  0.00  0.00    +0.000 C 
ENDBRANCH   3  16
BRANCH   5  18
ATOM     18  O   UNL     1      -2.419  12.488  19.008  0.00  0.00    +0.000 OA
ATOM     19  C   UNL     1      -2.951  11.329  18.371  0.00  0.00    +0.000 C 
ENDBRANCH   5  18
BRANCH   6  20
ATOM     20  C   UNL     1       0.116  11.237  20.071  0.00  0.00    +0.000 C 
ATOM     21  C   UNL     1       0.266  10.012  19.538  0.00  0.00    +0.000 C 
BRANCH  21  22
ATOM     22  C   UNL     1       1.473   9.702  18.724  0.00  0.00    +0.000 C 
ATOM     23  O   UNL     1       1.927  10.496  17.905  0.00  0.00    +0.000 OA
BRANCH  22  24
ATOM     24  C   UNL     1       2.089   8.357  18.880  0.00  0.00    +0.000 A 
ATOM     25  C   UNL     1       2.847   7.850  17.817  0.00  0.00    +0.000 A 
ATOM     26  C   UNL     1       3.451   6.590  17.915  0.00  0.00    +0.000 A 
ATOM     27  C   UNL     1       3.348   5.842  19.088  0.00  0.00    +0.000 A 
ATOM     28  C   UNL     1       2.547   6.326  20.123  0.00  0.00    +0.000 A 
ATOM     29  C   UNL     1       1.947   7.586  20.038  0.00  0.00    +0.000 A 
BRANCH  27  30
ATOM     30  N   UNL     1       3.846   4.536  19.142  0.00  0.00    +0.000 N 
ATOM     31  H   UNL     1       3.278   3.903  19.696  0.00  0.00    +0.000 HD
ATOM     32  H   UNL     1       4.080   4.146  18.235  0.00  0.00    +0.000 HD
ENDBRANCH  27  30
ENDBRANCH  22  24
ENDBRANCH  21  22
ENDBRANCH   6  20
TORSDOF 8
ENDMDL
MODEL 7
REMARK VINA RESULT:      -6.5      2.150      3.633
REMARK  Name = 
REMARK  12 active torsions:
REMARK  status: ('A' for Active; 'I' for Inactive)
REMARK    1  A    between atoms: C_1  and  O_2
REMARK    2  A    between atoms: O_2  and  C_3
REMARK    3  A    between atoms: C_5  and  O_6
REMARK    4  A    between atoms: O_6  and  C_7
REMARK    5  A    between atoms: C_8  and  C_9
REMARK    6  A    between atoms: N_12  and  C_13
REMARK    7  A    between atoms: C_16  and  O_17
REMARK    8  A    between atoms: O_17  and  C_18
REMARK    9  A    between atoms: C_19  and  C_20
REMARK   10  A    between atoms: C_21  and  C_22
REMARK   11  A    between atoms: C_22  and  C_24
REMARK   12  A    between atoms: C_27  and  N_28
REMARK                            x       y       z     vdW  Elec       q    Type
REMARK                         _______ _______ _______ _____ _____    ______ ____
ROOT
ATOM      1  C   UNL     1      -0.549  11.191  22.032  0.00  0.00    +0.000 A 
ATOM      2  C   UNL     1      -1.552  11.570  22.926  0.00  0.00    +0.000 A 
ATOM      3  C   UNL     1      -2.645  12.325  22.506  0.00  0.00    +0.000 A 
ATOM      4  C   UNL     1      -2.798  12.634  21.136  0.00  0.00    +0.000 A 
ATOM      5  C   UNL     1      -1.825  12.176  20.204  0.00  0.00    +0.000 A 
ATOM      6  C   UNL     1      -0.687  11.450  20.648  0.00  0.00    +0.000 A 
ENDROOT
BRANCH   4   7
ATOM      7  C   UNL     1      -3.921  13.511  20.728  0.00  0.00    +0.000 C 
ATOM      8  C   UNL     1      -3.771  14.842  20.796  0.00  0.00    +0.000 C 
ATOM      9  C   UNL     1      -4.864  15.828  20.542  0.00  0.00    +0.000 C 
ATOM     10  N   UNL     1      -6.194  15.312  20.253  0.00  0.00    +0.000 NA
ATOM     11  C   UNL     1      -7.224  15.807  21.151  0.00  0.00    +0.000 C 
ATOM     12  C   UNL     1      -6.319  13.895  19.911  0.00  0.00    +0.000 C 
ATOM     13  C   UNL     1      -5.236  12.894  20.370  0.00  0.00    +0.000 C 
ENDBRANCH   4   7
BRANCH   1  15
ATOM     14  C   UNL     1       0.312   9.302  23.194  0.00  0.00    +0.000 C 
ATOM     15  O   UNL     1       0.564  10.497  22.456  0.00  0.00    +0.000 OA
ENDBRANCH   1  15
BRANCH   3  16
ATOM     16  O   UNL     1      -3.607  12.767  23.387  0.00  0.00    +0.000 OA
ATOM     17  C   UNL     1      -3.206  13.797  24.290  0.00  0.00    +0.000 C 
ENDBRANCH   3  16
BRANCH   5  18
ATOM     18  O   UNL     1      -2.141  12.305  18.867  0.00  0.00    +0.000 OA
ATOM     19  C   UNL     1      -2.778  11.178  18.269  0.00  0.00    +0.000 C 
ENDBRANCH   5  18
BRANCH   6  20
ATOM     20  C   UNL     1       0.402  10.955  19.778  0.00  0.00    +0.000 C 
ATOM     21  C   UNL     1       0.514   9.703  19.303  0.00  0.00    +0.000 C 
BRANCH  21  22
ATOM     22  C   UNL     1       1.650   9.349  18.410  0.00  0.00    +0.000 C 
ATOM     23  O   UNL     1       2.003  10.076  17.485  0.00  0.00    +0.000 OA
BRANCH  22  24
ATOM     24  C   UNL     1       2.321   8.039  18.625  0.00  0.00    +0.000 A 
ATOM     25  C   UNL     1       3.219   7.587  17.649  0.00  0.00    +0.000 A 
ATOM     26  C   UNL     1       3.879   6.362  17.806  0.00  0.00    +0.000 A 
ATOM     27  C   UNL     1       3.690   5.595  18.957  0.00  0.00    +0.000 A 
ATOM     28  C   UNL     1       2.754   6.022  19.900  0.00  0.00    +0.000 A 
ATOM     29  C   UNL     1       2.097   7.247  19.756  0.00  0.00    +0.000 A 
BRANCH  27  30
ATOM     30  N   UNL     1       4.252   4.319  19.059  0.00  0.00    +0.000 N 
ATOM     31  H   UNL     1       5.260   4.322  19.185  0.00  0.00    +0.000 HD
ATOM     32  H   UNL     1       3.785   3.715  19.728  0.00  0.00    +0.000 HD
ENDBRANCH  27  30
ENDBRANCH  22  24
ENDBRANCH  21  22
ENDBRANCH   6  20
TORSDOF 8
ENDMDL
MODEL 8
REMARK VINA RESULT:      -6.5      1.873      2.935
REMARK  Name = 
REMARK  12 active torsions:
REMARK  status: ('A' for Active; 'I' for Inactive)
REMARK    1  A    between atoms: C_1  and  O_2
REMARK    2  A    between atoms: O_2  and  C_3
REMARK    3  A    between atoms: C_5  and  O_6
REMARK    4  A    between atoms: O_6  and  C_7
REMARK    5  A    between atoms: C_8  and  C_9
REMARK    6  A    between atoms: N_12  and  C_13
REMARK    7  A    between atoms: C_16  and  O_17
REMARK    8  A    between atoms: O_17  and  C_18
REMARK    9  A    between atoms: C_19  and  C_20
REMARK   10  A    between atoms: C_21  and  C_22
REMARK   11  A    between atoms: C_22  and  C_24
REMARK   12  A    between atoms: C_27  and  N_28
REMARK                            x       y       z     vdW  Elec       q    Type
REMARK                         _______ _______ _______ _____ _____    ______ ____
ROOT
ATOM      1  C   UNL     1      -3.316  10.804  17.277  0.00  0.00    +0.000 A 
ATOM      2  C   UNL     1      -4.695  11.008  17.222  0.00  0.00    +0.000 A 
ATOM      3  C   UNL     1      -5.356  11.741  18.205  0.00  0.00    +0.000 A 
ATOM      4  C   UNL     1      -4.612  12.373  19.227  0.00  0.00    +0.000 A 
ATOM      5  C   UNL     1      -3.196  12.243  19.241  0.00  0.00    +0.000 A 
ATOM      6  C   UNL     1      -2.534  11.452  18.264  0.00  0.00    +0.000 A 
ENDROOT
BRANCH   4   7
ATOM      7  C   UNL     1      -5.345  13.074  20.308  0.00  0.00    +0.000 C 
ATOM      8  C   UNL     1      -5.509  14.403  20.233  0.00  0.00    +0.000 C 
ATOM      9  C   UNL     1      -6.108  15.241  21.314  0.00  0.00    +0.000 C 
ATOM     10  N   UNL     1      -6.492  14.583  22.554  0.00  0.00    +0.000 NA
ATOM     11  C   UNL     1      -5.871  15.151  23.738  0.00  0.00    +0.000 C 
ATOM     12  C   UNL     1      -6.574  13.123  22.555  0.00  0.00    +0.000 C 
ATOM     13  C   UNL     1      -5.775  12.305  21.516  0.00  0.00    +0.000 C 
ENDBRANCH   4   7
BRANCH   1  15
ATOM     14  C   UNL     1      -3.042  10.247  14.981  0.00  0.00    +0.000 C 
ATOM     15  O   UNL     1      -2.667  10.029  16.341  0.00  0.00    +0.000 OA
ENDBRANCH   1  15
BRANCH   3  16
ATOM     16  O   UNL     1      -6.725  11.893  18.204  0.00  0.00    +0.000 OA
ATOM     17  C   UNL     1      -7.252  12.832  17.267  0.00  0.00    +0.000 C 
ENDBRANCH   3  16
BRANCH   5  18
ATOM     18  O   UNL     1      -2.508  13.062  20.114  0.00  0.00    +0.000 OA
ATOM     19  C   UNL     1      -2.155  12.476  21.365  0.00  0.00    +0.000 C 
ENDBRANCH   5  18
BRANCH   6  20
ATOM     20  C   UNL     1      -1.075  11.218  18.199  0.00  0.00    +0.000 C 
ATOM     21  C   UNL     1      -0.380  10.395  19.003  0.00  0.00    +0.000 C 
BRANCH  21  22
ATOM     22  C   UNL     1       1.086  10.232  18.806  0.00  0.00    +0.000 C 
ATOM     23  O   UNL     1       1.806  11.167  18.466  0.00  0.00    +0.000 OA
BRANCH  22  24
ATOM     24  C   UNL     1       1.662   8.870  18.969  0.00  0.00    +0.000 A 
ATOM     25  C   UNL     1       1.463   8.209  20.187  0.00  0.00    +0.000 A 
ATOM     26  C   UNL     1       1.981   6.924  20.390  0.00  0.00    +0.000 A 
ATOM     27  C   UNL     1       2.660   6.262  19.366  0.00  0.00    +0.000 A 
ATOM     28  C   UNL     1       2.904   6.944  18.174  0.00  0.00    +0.000 A 
ATOM     29  C   UNL     1       2.384   8.224  17.959  0.00  0.00    +0.000 A 
BRANCH  27  30
ATOM     30  N   UNL     1       3.282   5.033  19.607  0.00  0.00    +0.000 N 
ATOM     31  H   UNL     1       4.267   5.109  19.841  0.00  0.00    +0.000 HD
ATOM     32  H   UNL     1       2.778   4.437  20.257  0.00  0.00    +0.000 HD
ENDBRANCH  27  30
ENDBRANCH  22  24
ENDBRANCH  21  22
ENDBRANCH   6  20
TORSDOF 8
ENDMDL
MODEL 9
REMARK VINA RESULT:      -6.5      2.189      3.824
REMARK  Name = 
REMARK  12 active torsions:
REMARK  status: ('A' for Active; 'I' for Inactive)
REMARK    1  A    between atoms: C_1  and  O_2
REMARK    2  A    between atoms: O_2  and  C_3
REMARK    3  A    between atoms: C_5  and  O_6
REMARK    4  A    between atoms: O_6  and  C_7
REMARK    5  A    between atoms: C_8  and  C_9
REMARK    6  A    between atoms: N_12  and  C_13
REMARK    7  A    between atoms: C_16  and  O_17
REMARK    8  A    between atoms: O_17  and  C_18
REMARK    9  A    between atoms: C_19  and  C_20
REMARK   10  A    between atoms: C_21  and  C_22
REMARK   11  A    between atoms: C_22  and  C_24
REMARK   12  A    between atoms: C_27  and  N_28
REMARK                            x       y       z     vdW  Elec       q    Type
REMARK                         _______ _______ _______ _____ _____    ______ ____
ROOT
ATOM      1  C   UNL     1      -0.832  11.343  22.199  0.00  0.00    +0.000 A 
ATOM      2  C   UNL     1      -1.894  11.706  23.029  0.00  0.00    +0.000 A 
ATOM      3  C   UNL     1      -2.971  12.443  22.542  0.00  0.00    +0.000 A 
ATOM      4  C   UNL     1      -3.045  12.749  21.165  0.00  0.00    +0.000 A 
ATOM      5  C   UNL     1      -2.010  12.306  20.295  0.00  0.00    +0.000 A 
ATOM      6  C   UNL     1      -0.890  11.599  20.808  0.00  0.00    +0.000 A 
ENDROOT
BRANCH   4   7
ATOM      7  C   UNL     1      -4.156  13.606  20.687  0.00  0.00    +0.000 C 
ATOM      8  C   UNL     1      -4.036  14.939  20.771  0.00  0.00    +0.000 C 
ATOM      9  C   UNL     1      -5.128  15.906  20.449  0.00  0.00    +0.000 C 
ATOM     10  N   UNL     1      -6.426  15.368  20.070  0.00  0.00    +0.000 NA
ATOM     11  C   UNL     1      -7.522  15.838  20.900  0.00  0.00    +0.000 C 
ATOM     12  C   UNL     1      -6.500  13.951  19.714  0.00  0.00    +0.000 C 
ATOM     13  C   UNL     1      -5.431  12.968  20.239  0.00  0.00    +0.000 C 
ENDBRANCH   4   7
BRANCH   1  15
ATOM     14  C   UNL     1      -0.010   9.438  23.364  0.00  0.00    +0.000 C 
ATOM     15  O   UNL     1       0.263  10.667  22.691  0.00  0.00    +0.000 OA
ENDBRANCH   1  15
BRANCH   3  16
ATOM     16  O   UNL     1      -3.993  12.870  23.361  0.00  0.00    +0.000 OA
ATOM     17  C   UNL     1      -4.067  12.253  24.646  0.00  0.00    +0.000 C 
ENDBRANCH   3  16
BRANCH   5  18
ATOM     18  O   UNL     1      -2.245  12.429  18.940  0.00  0.00    +0.000 OA
ATOM     19  C   UNL     1      -2.802  11.282  18.301  0.00  0.00    +0.000 C 
ENDBRANCH   5  18
BRANCH   6  20
ATOM     20  C   UNL     1       0.259  11.120  20.008  0.00  0.00    +0.000 C 
ATOM     21  C   UNL     1       0.369   9.902  19.451  0.00  0.00    +0.000 C 
BRANCH  21  22
ATOM     22  C   UNL     1       1.572   9.565  18.642  0.00  0.00    +0.000 C 
ATOM     23  O   UNL     1       2.059  10.354  17.838  0.00  0.00    +0.000 OA
BRANCH  22  24
ATOM     24  C   UNL     1       2.144   8.198  18.785  0.00  0.00    +0.000 A 
ATOM     25  C   UNL     1       1.833   7.469  19.939  0.00  0.00    +0.000 A 
ATOM     26  C   UNL     1       2.342   6.177  20.119  0.00  0.00    +0.000 A 
ATOM     27  C   UNL     1       3.127   5.578  19.133  0.00  0.00    +0.000 A 
ATOM     28  C   UNL     1       3.479   6.328  18.010  0.00  0.00    +0.000 A 
ATOM     29  C   UNL     1       2.969   7.615  17.817  0.00  0.00    +0.000 A 
BRANCH  27  30
ATOM     30  N   UNL     1       3.734   4.340  19.364  0.00  0.00    +0.000 N 
ATOM     31  H   UNL     1       3.533   3.644  18.654  0.00  0.00    +0.000 HD
ATOM     32  H   UNL     1       4.727   4.401  19.571  0.00  0.00    +0.000 HD
ENDBRANCH  27  30
ENDBRANCH  22  24
ENDBRANCH  21  22
ENDBRANCH   6  20
TORSDOF 8
ENDMDL
