MODEL 1
REMARK VINA RESULT:      -7.4      0.000      0.000
REMARK  Name = 
REMARK  13 active torsions:
REMARK  status: ('A' for Active; 'I' for Inactive)
REMARK    1  A    between atoms: C_1  and  C_2
REMARK    2  A    between atoms: C_2  and  C_3
REMARK    3  A    between atoms: C_3  and  C_4
REMARK    4  A    between atoms: C_4  and  C_5
REMARK    5  A    between atoms: C_5  and  C_6
REMARK    6  A    between atoms: C_6  and  S_7
REMARK    7  A    between atoms: S_7  and  C_8
REMARK    8  A    between atoms: C_11  and  C_12
REMARK    9  A    between atoms: N_16  and  C_17
REMARK   10  A    between atoms: C_17  and  C_18
REMARK   11  A    between atoms: C_22  and  C_23
REMARK   12  A    between atoms: C_23  and  O_25
REMARK   13  A    between atoms: O_25  and  C_26
REMARK                            x       y       z     vdW  Elec       q    Type
REMARK                         _______ _______ _______ _____ _____    ______ ____
ROOT
ATOM      1  C   UNL     1       3.179   5.744  18.955  0.00  0.00    +0.000 C 
ATOM      2  C   UNL     1       3.343   5.696  17.433  0.00  0.00    +0.000 C 
ATOM      3  C   UNL     1       4.561   6.462  17.025  0.00  0.00    +0.000 C 
ATOM      4  O   UNL     1       4.600   7.664  16.802  0.00  0.00    +0.000 OA
ATOM      5  N   UNL     1       5.616   5.587  16.992  0.00  0.00    +0.000 N 
ATOM      6  C   UNL     1       5.198   4.286  17.016  0.00  0.00    +0.000 C 
ATOM      7  O   UNL     1       5.914   3.308  16.874  0.00  0.00    +0.000 OA
ATOM      8  C   UNL     1       3.686   4.248  17.133  0.00  0.00    +0.000 C 
ATOM      9  C   UNL     1       3.068   3.430  18.279  0.00  0.00    +0.000 C 
ATOM     10  C   UNL     1       1.875   2.570  17.785  0.00  0.00    +0.000 C 
ATOM     11  C   UNL     1       1.133   2.028  19.004  0.00  0.00    +0.000 C 
ATOM     12  C   UNL     1       0.338   3.180  19.574  0.00  0.00    +0.000 C 
ATOM     13  C   UNL     1       1.138   4.492  19.569  0.00  0.00    +0.000 C 
ATOM     14  N   UNL     1       2.593   4.426  19.329  0.00  0.00    +0.000 NA
ENDROOT
BRANCH   1  18
ATOM     15  C   UNL     1       0.927   9.240  20.262  0.00  0.00    +0.000 A 
ATOM     16  C   UNL     1       1.294   8.270  21.184  0.00  0.00    +0.000 A 
ATOM     17  C   UNL     1       2.085   7.175  20.793  0.00  0.00    +0.000 A 
ATOM     18  C   UNL     1       2.498   7.023  19.456  0.00  0.00    +0.000 A 
ATOM     19  C   UNL     1       2.175   8.051  18.553  0.00  0.00    +0.000 A 
ATOM     20  C   UNL     1       1.392   9.138  18.948  0.00  0.00    +0.000 A 
BRANCH  15  21
ATOM     21  S   UNL     1      -0.206  10.541  20.688  0.00  0.00    +0.000 S 
BRANCH  21  22
ATOM     22  C   UNL     1      -0.360  11.375  19.077  0.00  0.00    +0.000 C 
BRANCH  22  23
ATOM     23  C   UNL     1      -1.400  10.634  18.244  0.00  0.00    +0.000 C 
BRANCH  23  24
ATOM     24  C   UNL     1      -2.730  11.386  18.219  0.00  0.00    +0.000 C 
BRANCH  24  25
ATOM     25  C   UNL     1      -3.469  11.117  16.909  0.00  0.00    +0.000 C 
BRANCH  25  27
ATOM     26  C   UNL     1      -3.066  10.092  14.653  0.00  0.00    +0.000 C 
ATOM     27  C   UNL     1      -2.864   9.939  16.152  0.00  0.00    +0.000 C 
ENDBRANCH  25  27
ENDBRANCH  24  25
ENDBRANCH  23  24
ENDBRANCH  22  23
ENDBRANCH  21  22
ENDBRANCH  15  21
ENDBRANCH   1  18
BRANCH   5  28
ATOM     28  C   UNL     1       7.001   6.003  16.893  0.00  0.00    +0.000 C 
ATOM     29  C   UNL     1       7.625   6.350  18.232  0.00  0.00    +0.000 C 
ENDBRANCH   5  28
BRANCH   9  30
ATOM     30  C   UNL     1       4.092   2.384  18.811  0.00  0.00    +0.000 C 
ATOM     31  O   UNL     1       4.228   1.275  18.294  0.00  0.00    +0.000 OA
BRANCH  30  32
ATOM     32  O   UNL     1       4.843   2.801  19.867  0.00  0.00    +0.000 OA
ATOM     33  C   UNL     1       4.971   1.768  20.857  0.00  0.00    +0.000 C 
ENDBRANCH  30  32
ENDBRANCH   9  30
TORSDOF 10
ENDMDL
MODEL 2
REMARK VINA RESULT:      -7.3      0.886      1.365
REMARK  Name = 
REMARK  13 active torsions:
REMARK  status: ('A' for Active; 'I' for Inactive)
REMARK    1  A    between atoms: C_1  and  C_2
REMARK    2  A    between atoms: C_2  and  C_3
REMARK    3  A    between atoms: C_3  and  C_4
REMARK    4  A    between atoms: C_4  and  C_5
REMARK    5  A    between atoms: C_5  and  C_6
REMARK    6  A    between atoms: C_6  and  S_7
REMARK    7  A    between atoms: S_7  and  C_8
REMARK    8  A    between atoms: C_11  and  C_12
REMARK    9  A    between atoms: N_16  and  C_17
REMARK   10  A    between atoms: C_17  and  C_18
REMARK   11  A    between atoms: C_22  and  C_23
REMARK   12  A    between atoms: C_23  and  O_25
REMARK   13  A    between atoms: O_25  and  C_26
REMARK                            x       y       z     vdW  Elec       q    Type
REMARK                         _______ _______ _______ _____ _____    ______ ____
ROOT
ATOM      1  C   UNL     1       3.178   6.228  18.868  0.00  0.00    +0.000 C 
ATOM      2  C   UNL     1       3.389   5.785  17.417  0.00  0.00    +0.000 C 
ATOM      3  C   UNL     1       4.485   6.588  16.791  0.00  0.00    +0.000 C 
ATOM      4  O   UNL     1       4.343   7.672  16.241  0.00  0.00    +0.000 OA
ATOM      5  N   UNL     1       5.663   5.915  16.985  0.00  0.00    +0.000 N 
ATOM      6  C   UNL     1       5.451   4.622  17.377  0.00  0.00    +0.000 C 
ATOM      7  O   UNL     1       6.313   3.768  17.502  0.00  0.00    +0.000 OA
ATOM      8  C   UNL     1       3.960   4.383  17.526  0.00  0.00    +0.000 C 
ATOM      9  C   UNL     1       3.445   3.830  18.865  0.00  0.00    +0.000 C 
ATOM     10  C   UNL     1       2.414   2.690  18.650  0.00  0.00    +0.000 C 
ATOM     11  C   UNL     1       1.731   2.400  19.984  0.00  0.00    +0.000 C 
ATOM     12  C   UNL     1       0.752   3.525  20.224  0.00  0.00    +0.000 C 
ATOM     13  C   UNL     1       1.339   4.893  19.840  0.00  0.00    +0.000 C 
ATOM     14  N   UNL     1       2.793   4.991  19.604  0.00  0.00    +0.000 NA
ENDROOT
BRANCH   1  18
ATOM     15  C   UNL     1       0.965   9.954  19.336  0.00  0.00    +0.000 A 
ATOM     16  C   UNL     1       1.298   9.502  18.066  0.00  0.00    +0.000 A 
ATOM     17  C   UNL     1       1.945   8.266  17.894  0.00  0.00    +0.000 A 
ATOM     18  C   UNL     1       2.293   7.473  19.004  0.00  0.00    +0.000 A 
ATOM     19  C   UNL     1       1.886   7.914  20.275  0.00  0.00    +0.000 A 
ATOM     20  C   UNL     1       1.241   9.143  20.439  0.00  0.00    +0.000 A 
BRANCH  15  21
ATOM     21  S   UNL     1       0.301  11.583  19.595  0.00  0.00    +0.000 S 
BRANCH  21  22
ATOM     22  C   UNL     1      -1.480  11.203  19.624  0.00  0.00    +0.000 C 
BRANCH  22  23
ATOM     23  C   UNL     1      -2.176  12.054  18.568  0.00  0.00    +0.000 C 
BRANCH  23  24
ATOM     24  C   UNL     1      -3.261  11.261  17.842  0.00  0.00    +0.000 C 
BRANCH  24  25
ATOM     25  C   UNL     1      -2.752   9.865  17.485  0.00  0.00    +0.000 C 
BRANCH  25  27
ATOM     26  C   UNL     1      -3.297  10.724  15.190  0.00  0.00    +0.000 C 
ATOM     27  C   UNL     1      -2.469   9.733  15.992  0.00  0.00    +0.000 C 
ENDBRANCH  25  27
ENDBRANCH  24  25
ENDBRANCH  23  24
ENDBRANCH  22  23
ENDBRANCH  21  22
ENDBRANCH  15  21
ENDBRANCH   1  18
BRANCH   5  28
ATOM     28  C   UNL     1       6.969   6.498  16.750  0.00  0.00    +0.000 C 
ATOM     29  C   UNL     1       7.514   7.257  17.946  0.00  0.00    +0.000 C 
ENDBRANCH   5  28
BRANCH   9  30
ATOM     30  C   UNL     1       4.603   3.145  19.650  0.00  0.00    +0.000 C 
ATOM     31  O   UNL     1       5.403   3.785  20.332  0.00  0.00    +0.000 OA
BRANCH  30  32
ATOM     32  O   UNL     1       4.641   1.789  19.549  0.00  0.00    +0.000 OA
ATOM     33  C   UNL     1       5.143   1.189  20.754  0.00  0.00    +0.000 C 
ENDBRANCH  30  32
ENDBRANCH   9  30
TORSDOF 10
ENDMDL
MODEL 3
REMARK VINA RESULT:      -7.3      0.865      1.165
REMARK  Name = 
REMARK  13 active torsions:
REMARK  status: ('A' for Active; 'I' for Inactive)
REMARK    1  A    between atoms: C_1  and  C_2
REMARK    2  A    between atoms: C_2  and  C_3
REMARK    3  A    between atoms: C_3  and  C_4
REMARK    4  A    between atoms: C_4  and  C_5
REMARK    5  A    between atoms: C_5  and  C_6
REMARK    6  A    between atoms: C_6  and  S_7
REMARK    7  A    between atoms: S_7  and  C_8
REMARK    8  A    between atoms: C_11  and  C_12
REMARK    9  A    between atoms: N_16  and  C_17
REMARK   10  A    between atoms: C_17  and  C_18
REMARK   11  A    between atoms: C_22  and  C_23
REMARK   12  A    between atoms: C_23  and  O_25
REMARK   13  A    between atoms: O_25  and  C_26
REMARK                            x       y       z     vdW  Elec       q    Type
REMARK                         _______ _______ _______ _____ _____    ______ ____
ROOT
ATOM      1  C   UNL     1       3.222   6.237  18.861  0.00  0.00    +0.000 C 
ATOM      2  C   UNL     1       3.367   5.820  17.394  0.00  0.00    +0.000 C 
ATOM      3  C   UNL     1       4.492   6.572  16.757  0.00  0.00    +0.000 C 
ATOM      4  O   UNL     1       4.401   7.675  16.237  0.00  0.00    +0.000 OA
ATOM      5  N   UNL     1       5.632   5.825  16.901  0.00  0.00    +0.000 N 
ATOM      6  C   UNL     1       5.354   4.538  17.269  0.00  0.00    +0.000 C 
ATOM      7  O   UNL     1       6.166   3.631  17.350  0.00  0.00    +0.000 OA
ATOM      8  C   UNL     1       3.856   4.383  17.455  0.00  0.00    +0.000 C 
ATOM      9  C   UNL     1       3.345   3.828  18.794  0.00  0.00    +0.000 C 
ATOM     10  C   UNL     1       2.242   2.758  18.582  0.00  0.00    +0.000 C 
ATOM     11  C   UNL     1       1.579   2.475  19.928  0.00  0.00    +0.000 C 
ATOM     12  C   UNL     1       0.676   3.650  20.221  0.00  0.00    +0.000 C 
ATOM     13  C   UNL     1       1.333   4.990  19.853  0.00  0.00    +0.000 C 
ATOM     14  N   UNL     1       2.784   5.007  19.578  0.00  0.00    +0.000 NA
ENDROOT
BRANCH   1  18
ATOM     15  C   UNL     1       0.638   9.719  19.310  0.00  0.00    +0.000 A 
ATOM     16  C   UNL     1       1.041   9.008  20.432  0.00  0.00    +0.000 A 
ATOM     17  C   UNL     1       1.934   7.929  20.311  0.00  0.00    +0.000 A 
ATOM     18  C   UNL     1       2.417   7.529  19.051  0.00  0.00    +0.000 A 
ATOM     19  C   UNL     1       2.053   8.304  17.936  0.00  0.00    +0.000 A 
ATOM     20  C   UNL     1       1.167   9.377  18.062  0.00  0.00    +0.000 A 
BRANCH  15  21
ATOM     21  S   UNL     1      -0.616  10.976  19.411  0.00  0.00    +0.000 S 
BRANCH  21  22
ATOM     22  C   UNL     1      -1.431  10.747  17.799  0.00  0.00    +0.000 C 
BRANCH  22  23
ATOM     23  C   UNL     1      -2.661   9.870  17.996  0.00  0.00    +0.000 C 
BRANCH  23  24
ATOM     24  C   UNL     1      -3.597   9.945  16.790  0.00  0.00    +0.000 C 
BRANCH  24  25
ATOM     25  C   UNL     1      -2.957  10.764  15.671  0.00  0.00    +0.000 C 
BRANCH  25  27
ATOM     26  C   UNL     1      -4.061   9.982  13.556  0.00  0.00    +0.000 C 
ATOM     27  C   UNL     1      -2.794   9.945  14.394  0.00  0.00    +0.000 C 
ENDBRANCH  25  27
ENDBRANCH  24  25
ENDBRANCH  23  24
ENDBRANCH  22  23
ENDBRANCH  21  22
ENDBRANCH  15  21
ENDBRANCH   1  18
BRANCH   5  28
ATOM     28  C   UNL     1       6.964   6.335  16.644  0.00  0.00    +0.000 C 
ATOM     29  C   UNL     1       7.562   7.085  17.820  0.00  0.00    +0.000 C 
ENDBRANCH   5  28
BRANCH   9  30
ATOM     30  C   UNL     1       4.481   3.057  19.530  0.00  0.00    +0.000 C 
ATOM     31  O   UNL     1       5.322   3.629  20.223  0.00  0.00    +0.000 OA
BRANCH  30  32
ATOM     32  O   UNL     1       4.451   1.706  19.373  0.00  0.00    +0.000 OA
ATOM     33  C   UNL     1       5.024   1.036  20.507  0.00  0.00    +0.000 C 
ENDBRANCH  30  32
ENDBRANCH   9  30
TORSDOF 10
ENDMDL
MODEL 4
REMARK VINA RESULT:      -7.3      1.317      3.913
REMARK  Name = 
REMARK  13 active torsions:
REMARK  status: ('A' for Active; 'I' for Inactive)
REMARK    1  A    between atoms: C_1  and  C_2
REMARK    2  A    between atoms: C_2  and  C_3
REMARK    3  A    between atoms: C_3  and  C_4
REMARK    4  A    between atoms: C_4  and  C_5
REMARK    5  A    between atoms: C_5  and  C_6
REMARK    6  A    between atoms: C_6  and  S_7
REMARK    7  A    between atoms: S_7  and  C_8
REMARK    8  A    between atoms: C_11  and  C_12
REMARK    9  A    between atoms: N_16  and  C_17
REMARK   10  A    between atoms: C_17  and  C_18
REMARK   11  A    between atoms: C_22  and  C_23
REMARK   12  A    between atoms: C_23  and  O_25
REMARK   13  A    between atoms: O_25  and  C_26
REMARK                            x       y       z     vdW  Elec       q    Type
REMARK                         _______ _______ _______ _____ _____    ______ ____
ROOT
ATOM      1  C   UNL     1       3.164   6.184  18.549  0.00  0.00    +0.000 C 
ATOM      2  C   UNL     1       3.683   5.310  19.694  0.00  0.00    +0.000 C 
ATOM      3  C   UNL     1       2.589   4.419  20.192  0.00  0.00    +0.000 C 
ATOM      4  O   UNL     1       1.765   4.718  21.046  0.00  0.00    +0.000 OA
ATOM      5  N   UNL     1       2.656   3.241  19.495  0.00  0.00    +0.000 N 
ATOM      6  C   UNL     1       3.841   3.113  18.824  0.00  0.00    +0.000 C 
ATOM      7  O   UNL     1       4.214   2.118  18.226  0.00  0.00    +0.000 OA
ATOM      8  C   UNL     1       4.672   4.366  19.034  0.00  0.00    +0.000 C 
ATOM      9  C   UNL     1       5.187   5.109  17.792  0.00  0.00    +0.000 C 
ATOM     10  C   UNL     1       6.677   5.516  17.950  0.00  0.00    +0.000 C 
ATOM     11  C   UNL     1       7.031   6.494  16.833  0.00  0.00    +0.000 C 
ATOM     12  C   UNL     1       6.412   7.821  17.208  0.00  0.00    +0.000 C 
ATOM     13  C   UNL     1       4.999   7.655  17.787  0.00  0.00    +0.000 C 
ATOM     14  N   UNL     1       4.323   6.352  17.627  0.00  0.00    +0.000 NA
ENDROOT
BRANCH   1  18
ATOM     15  C   UNL     1       0.722   9.571  19.801  0.00  0.00    +0.000 A 
ATOM     16  C   UNL     1       1.173   8.657  20.744  0.00  0.00    +0.000 A 
ATOM     17  C   UNL     1       2.023   7.603  20.367  0.00  0.00    +0.000 A 
ATOM     18  C   UNL     1       2.413   7.433  19.026  0.00  0.00    +0.000 A 
ATOM     19  C   UNL     1       2.003   8.408  18.099  0.00  0.00    +0.000 A 
ATOM     20  C   UNL     1       1.161   9.455  18.479  0.00  0.00    +0.000 A 
BRANCH  15  21
ATOM     21  S   UNL     1      -0.483  10.811  20.215  0.00  0.00    +0.000 S 
BRANCH  21  22
ATOM     22  C   UNL     1      -0.400  11.851  18.724  0.00  0.00    +0.000 C 
BRANCH  22  23
ATOM     23  C   UNL     1      -1.774  11.866  18.063  0.00  0.00    +0.000 C 
BRANCH  23  24
ATOM     24  C   UNL     1      -2.441  10.493  18.141  0.00  0.00    +0.000 C 
BRANCH  24  25
ATOM     25  C   UNL     1      -2.340   9.775  16.796  0.00  0.00    +0.000 C 
BRANCH  25  27
ATOM     26  C   UNL     1      -3.002  10.242  14.420  0.00  0.00    +0.000 C 
ATOM     27  C   UNL     1      -3.480  10.167  15.861  0.00  0.00    +0.000 C 
ENDBRANCH  25  27
ENDBRANCH  24  25
ENDBRANCH  23  24
ENDBRANCH  22  23
ENDBRANCH  21  22
ENDBRANCH  15  21
ENDBRANCH   1  18
BRANCH   5  28
ATOM     28  C   UNL     1       1.611   2.236  19.513  0.00  0.00    +0.000 C 
ATOM     29  C   UNL     1       0.381   2.630  18.717  0.00  0.00    +0.000 C 
ENDBRANCH   5  28
BRANCH   9  30
ATOM     30  C   UNL     1       5.185   4.164  16.554  0.00  0.00    +0.000 C 
ATOM     31  O   UNL     1       4.152   3.869  15.954  0.00  0.00    +0.000 OA
BRANCH  30  32
ATOM     32  O   UNL     1       6.412   3.718  16.171  0.00  0.00    +0.000 OA
ATOM     33  C   UNL     1       6.566   3.774  14.743  0.00  0.00    +0.000 C 
ENDBRANCH  30  32
ENDBRANCH   9  30
TORSDOF 10
ENDMDL
MODEL 5
REMARK VINA RESULT:      -7.2      0.670      1.047
REMARK  Name = 
REMARK  13 active torsions:
REMARK  status: ('A' for Active; 'I' for Inactive)
REMARK    1  A    between atoms: C_1  and  C_2
REMARK    2  A    between atoms: C_2  and  C_3
REMARK    3  A    between atoms: C_3  and  C_4
REMARK    4  A    between atoms: C_4  and  C_5
REMARK    5  A    between atoms: C_5  and  C_6
REMARK    6  A    between atoms: C_6  and  S_7
REMARK    7  A    between atoms: S_7  and  C_8
REMARK    8  A    between atoms: C_11  and  C_12
REMARK    9  A    between atoms: N_16  and  C_17
REMARK   10  A    between atoms: C_17  and  C_18
REMARK   11  A    between atoms: C_22  and  C_23
REMARK   12  A    between atoms: C_23  and  O_25
REMARK   13  A    between atoms: O_25  and  C_26
REMARK                            x       y       z     vdW  Elec       q    Type
REMARK                         _______ _______ _______ _____ _____    ______ ____
ROOT
ATOM      1  C   UNL     1       3.136   5.715  19.008  0.00  0.00    +0.000 C 
ATOM      2  C   UNL     1       3.317   5.667  17.488  0.00  0.00    +0.000 C 
ATOM      3  C   UNL     1       4.537   6.437  17.094  0.00  0.00    +0.000 C 
ATOM      4  O   UNL     1       4.576   7.639  16.871  0.00  0.00    +0.000 OA
ATOM      5  N   UNL     1       5.595   5.565  17.072  0.00  0.00    +0.000 N 
ATOM      6  C   UNL     1       5.181   4.263  17.091  0.00  0.00    +0.000 C 
ATOM      7  O   UNL     1       5.901   3.287  16.958  0.00  0.00    +0.000 OA
ATOM      8  C   UNL     1       3.667   4.220  17.191  0.00  0.00    +0.000 C 
ATOM      9  C   UNL     1       3.039   3.401  18.330  0.00  0.00    +0.000 C 
ATOM     10  C   UNL     1       1.854   2.537  17.822  0.00  0.00    +0.000 C 
ATOM     11  C   UNL     1       1.100   1.993  19.033  0.00  0.00    +0.000 C 
ATOM     12  C   UNL     1       0.295   3.143  19.594  0.00  0.00    +0.000 C 
ATOM     13  C   UNL     1       1.091   4.457  19.598  0.00  0.00    +0.000 C 
ATOM     14  N   UNL     1       2.549   4.395  19.375  0.00  0.00    +0.000 NA
ENDROOT
BRANCH   1  18
ATOM     15  C   UNL     1       0.863   9.216  20.267  0.00  0.00    +0.000 A 
ATOM     16  C   UNL     1       1.148   8.210  21.181  0.00  0.00    +0.000 A 
ATOM     17  C   UNL     1       1.943   7.111  20.810  0.00  0.00    +0.000 A 
ATOM     18  C   UNL     1       2.445   6.992  19.501  0.00  0.00    +0.000 A 
ATOM     19  C   UNL     1       2.205   8.053  18.611  0.00  0.00    +0.000 A 
ATOM     20  C   UNL     1       1.416   9.144  18.985  0.00  0.00    +0.000 A 
BRANCH  15  21
ATOM     21  S   UNL     1      -0.273  10.526  20.655  0.00  0.00    +0.000 S 
BRANCH  21  22
ATOM     22  C   UNL     1      -0.624  11.154  18.983  0.00  0.00    +0.000 C 
BRANCH  22  23
ATOM     23  C   UNL     1      -1.816  10.391  18.417  0.00  0.00    +0.000 C 
BRANCH  23  24
ATOM     24  C   UNL     1      -2.507  11.183  17.307  0.00  0.00    +0.000 C 
BRANCH  24  25
ATOM     25  C   UNL     1      -3.965  10.748  17.172  0.00  0.00    +0.000 C 
BRANCH  25  27
ATOM     26  C   UNL     1      -6.202  10.968  18.291  0.00  0.00    +0.000 C 
ATOM     27  C   UNL     1      -4.903  11.675  17.939  0.00  0.00    +0.000 C 
ENDBRANCH  25  27
ENDBRANCH  24  25
ENDBRANCH  23  24
ENDBRANCH  22  23
ENDBRANCH  21  22
ENDBRANCH  15  21
ENDBRANCH   1  18
BRANCH   5  28
ATOM     28  C   UNL     1       6.980   5.985  16.989  0.00  0.00    +0.000 C 
ATOM     29  C   UNL     1       7.623   6.216  18.344  0.00  0.00    +0.000 C 
ENDBRANCH   5  28
BRANCH   9  30
ATOM     30  C   UNL     1       4.060   2.357  18.874  0.00  0.00    +0.000 C 
ATOM     31  O   UNL     1       4.219   1.257  18.346  0.00  0.00    +0.000 OA
BRANCH  30  32
ATOM     32  O   UNL     1       4.781   2.768  19.952  0.00  0.00    +0.000 OA
ATOM     33  C   UNL     1       5.060   1.674  20.841  0.00  0.00    +0.000 C 
ENDBRANCH  30  32
ENDBRANCH   9  30
TORSDOF 10
ENDMDL
MODEL 6
REMARK VINA RESULT:      -7.1      1.391      4.059
REMARK  Name = 
REMARK  13 active torsions:
REMARK  status: ('A' for Active; 'I' for Inactive)
REMARK    1  A    between atoms: C_1  and  C_2
REMARK    2  A    between atoms: C_2  and  C_3
REMARK    3  A    between atoms: C_3  and  C_4
REMARK    4  A    between atoms: C_4  and  C_5
REMARK    5  A    between atoms: C_5  and  C_6
REMARK    6  A    between atoms: C_6  and  S_7
REMARK    7  A    between atoms: S_7  and  C_8
REMARK    8  A    between atoms: C_11  and  C_12
REMARK    9  A    between atoms: N_16  and  C_17
REMARK   10  A    between atoms: C_17  and  C_18
REMARK   11  A    between atoms: C_22  and  C_23
REMARK   12  A    between atoms: C_23  and  O_25
REMARK   13  A    between atoms: O_25  and  C_26
REMARK                            x       y       z     vdW  Elec       q    Type
REMARK                         _______ _______ _______ _____ _____    ______ ____
ROOT
ATOM      1  C   UNL     1       3.411   6.254  18.392  0.00  0.00    +0.000 C 
ATOM      2  C   UNL     1       3.795   5.546  19.694  0.00  0.00    +0.000 C 
ATOM      3  C   UNL     1       2.711   4.600  20.101  0.00  0.00    +0.000 C 
ATOM      4  O   UNL     1       1.730   4.892  20.771  0.00  0.00    +0.000 OA
ATOM      5  N   UNL     1       2.995   3.375  19.555  0.00  0.00    +0.000 N 
ATOM      6  C   UNL     1       4.284   3.305  19.104  0.00  0.00    +0.000 C 
ATOM      7  O   UNL     1       4.836   2.301  18.686  0.00  0.00    +0.000 OA
ATOM      8  C   UNL     1       4.959   4.649  19.310  0.00  0.00    +0.000 C 
ATOM      9  C   UNL     1       5.617   5.323  18.096  0.00  0.00    +0.000 C 
ATOM     10  C   UNL     1       7.018   5.889  18.451  0.00  0.00    +0.000 C 
ATOM     11  C   UNL     1       7.477   6.791  17.307  0.00  0.00    +0.000 C 
ATOM     12  C   UNL     1       6.694   8.078  17.430  0.00  0.00    +0.000 C 
ATOM     13  C   UNL     1       5.221   7.825  17.786  0.00  0.00    +0.000 C 
ATOM     14  N   UNL     1       4.694   6.452  17.659  0.00  0.00    +0.000 NA
ENDROOT
BRANCH   1  18
ATOM     15  C   UNL     1       1.082   9.872  19.091  0.00  0.00    +0.000 A 
ATOM     16  C   UNL     1       1.451   9.526  17.798  0.00  0.00    +0.000 A 
ATOM     17  C   UNL     1       2.137   8.324  17.548  0.00  0.00    +0.000 A 
ATOM     18  C   UNL     1       2.488   7.461  18.602  0.00  0.00    +0.000 A 
ATOM     19  C   UNL     1       2.045   7.794  19.895  0.00  0.00    +0.000 A 
ATOM     20  C   UNL     1       1.362   8.988  20.137  0.00  0.00    +0.000 A 
BRANCH  15  21
ATOM     21  S   UNL     1       0.365  11.457  19.458  0.00  0.00    +0.000 S 
BRANCH  21  22
ATOM     22  C   UNL     1      -1.369  10.973  19.723  0.00  0.00    +0.000 C 
BRANCH  22  23
ATOM     23  C   UNL     1      -1.892  10.321  18.447  0.00  0.00    +0.000 C 
BRANCH  23  24
ATOM     24  C   UNL     1      -2.854  11.248  17.704  0.00  0.00    +0.000 C 
BRANCH  24  25
ATOM     25  C   UNL     1      -2.578  11.207  16.202  0.00  0.00    +0.000 C 
BRANCH  25  27
ATOM     26  C   UNL     1      -3.359   9.998  14.145  0.00  0.00    +0.000 C 
ATOM     27  C   UNL     1      -2.939   9.854  15.599  0.00  0.00    +0.000 C 
ENDBRANCH  25  27
ENDBRANCH  24  25
ENDBRANCH  23  24
ENDBRANCH  22  23
ENDBRANCH  21  22
ENDBRANCH  15  21
ENDBRANCH   1  18
BRANCH   5  28
ATOM     28  C   UNL     1       2.050   2.276  19.510  0.00  0.00    +0.000 C 
ATOM     29  C   UNL     1       0.847   2.550  18.626  0.00  0.00    +0.000 C 
ENDBRANCH   5  28
BRANCH   9  30
ATOM     30  C   UNL     1       5.907   4.271  16.984  0.00  0.00    +0.000 C 
ATOM     31  O   UNL     1       6.943   3.607  16.961  0.00  0.00    +0.000 OA
BRANCH  30  32
ATOM     32  O   UNL     1       4.916   4.122  16.063  0.00  0.00    +0.000 OA
ATOM     33  C   UNL     1       5.438   4.149  14.725  0.00  0.00    +0.000 C 
ENDBRANCH  30  32
ENDBRANCH   9  30
TORSDOF 10
ENDMDL
MODEL 7
REMARK VINA RESULT:      -7.1      1.186      1.987
REMARK  Name = 
REMARK  13 active torsions:
REMARK  status: ('A' for Active; 'I' for Inactive)
REMARK    1  A    between atoms: C_1  and  C_2
REMARK    2  A    between atoms: C_2  and  C_3
REMARK    3  A    between atoms: C_3  and  C_4
REMARK    4  A    between atoms: C_4  and  C_5
REMARK    5  A    between atoms: C_5  and  C_6
REMARK    6  A    between atoms: C_6  and  S_7
REMARK    7  A    between atoms: S_7  and  C_8
REMARK    8  A    between atoms: C_11  and  C_12
REMARK    9  A    between atoms: N_16  and  C_17
REMARK   10  A    between atoms: C_17  and  C_18
REMARK   11  A    between atoms: C_22  and  C_23
REMARK   12  A    between atoms: C_23  and  O_25
REMARK   13  A    between atoms: O_25  and  C_26
REMARK                            x       y       z     vdW  Elec       q    Type
REMARK                         _______ _______ _______ _____ _____    ______ ____
ROOT
ATOM      1  C   UNL     1       3.156   5.760  18.944  0.00  0.00    +0.000 C 
ATOM      2  C   UNL     1       3.307   5.703  17.421  0.00  0.00    +0.000 C 
ATOM      3  C   UNL     1       4.518   6.472  16.998  0.00  0.00    +0.000 C 
ATOM      4  O   UNL     1       4.550   7.673  16.767  0.00  0.00    +0.000 OA
ATOM      5  N   UNL     1       5.577   5.602  16.961  0.00  0.00    +0.000 N 
ATOM      6  C   UNL     1       5.166   4.299  16.996  0.00  0.00    +0.000 C 
ATOM      7  O   UNL     1       5.884   3.323  16.855  0.00  0.00    +0.000 OA
ATOM      8  C   UNL     1       3.654   4.255  17.127  0.00  0.00    +0.000 C 
ATOM      9  C   UNL     1       3.050   3.442  18.283  0.00  0.00    +0.000 C 
ATOM     10  C   UNL     1       1.857   2.573  17.804  0.00  0.00    +0.000 C 
ATOM     11  C   UNL     1       1.128   2.035  19.033  0.00  0.00    +0.000 C 
ATOM     12  C   UNL     1       0.332   3.187  19.602  0.00  0.00    +0.000 C 
ATOM     13  C   UNL     1       1.126   4.503  19.582  0.00  0.00    +0.000 C 
ATOM     14  N   UNL     1       2.580   4.441  19.331  0.00  0.00    +0.000 NA
ENDROOT
BRANCH   1  18
ATOM     15  C   UNL     1       0.902   9.260  20.237  0.00  0.00    +0.000 A 
ATOM     16  C   UNL     1       1.241   8.277  21.157  0.00  0.00    +0.000 A 
ATOM     17  C   UNL     1       2.032   7.180  20.772  0.00  0.00    +0.000 A 
ATOM     18  C   UNL     1       2.474   7.039  19.443  0.00  0.00    +0.000 A 
ATOM     19  C   UNL     1       2.179   8.078  18.544  0.00  0.00    +0.000 A 
ATOM     20  C   UNL     1       1.395   9.168  18.932  0.00  0.00    +0.000 A 
BRANCH  15  21
ATOM     21  S   UNL     1      -0.232  10.565  20.652  0.00  0.00    +0.000 S 
BRANCH  21  22
ATOM     22  C   UNL     1      -1.304  10.539  19.181  0.00  0.00    +0.000 C 
BRANCH  22  23
ATOM     23  C   UNL     1      -1.178  11.878  18.464  0.00  0.00    +0.000 C 
BRANCH  23  24
ATOM     24  C   UNL     1      -0.651  12.964  19.403  0.00  0.00    +0.000 C 
BRANCH  24  25
ATOM     25  C   UNL     1       0.406  13.810  18.697  0.00  0.00    +0.000 C 
BRANCH  25  27
ATOM     26  C   UNL     1       2.545  12.627  18.124  0.00  0.00    +0.000 C 
ATOM     27  C   UNL     1       1.815  13.459  19.166  0.00  0.00    +0.000 C 
ENDBRANCH  25  27
ENDBRANCH  24  25
ENDBRANCH  23  24
ENDBRANCH  22  23
ENDBRANCH  21  22
ENDBRANCH  15  21
ENDBRANCH   1  18
BRANCH   5  28
ATOM     28  C   UNL     1       6.960   6.023  16.848  0.00  0.00    +0.000 C 
ATOM     29  C   UNL     1       7.580   6.422  18.174  0.00  0.00    +0.000 C 
ENDBRANCH   5  28
BRANCH   9  30
ATOM     30  C   UNL     1       4.083   2.403  18.812  0.00  0.00    +0.000 C 
ATOM     31  O   UNL     1       4.235   1.300  18.287  0.00  0.00    +0.000 OA
BRANCH  30  32
ATOM     32  O   UNL     1       4.823   2.821  19.875  0.00  0.00    +0.000 OA
ATOM     33  C   UNL     1       4.873   1.818  20.903  0.00  0.00    +0.000 C 
ENDBRANCH  30  32
ENDBRANCH   9  30
TORSDOF 10
ENDMDL
MODEL 8
REMARK VINA RESULT:      -7.1      1.017      1.497
REMARK  Name = 
REMARK  13 active torsions:
REMARK  status: ('A' for Active; 'I' for Inactive)
REMARK    1  A    between atoms: C_1  and  C_2
REMARK    2  A    between atoms: C_2  and  C_3
REMARK    3  A    between atoms: C_3  and  C_4
REMARK    4  A    between atoms: C_4  and  C_5
REMARK    5  A    between atoms: C_5  and  C_6
REMARK    6  A    between atoms: C_6  and  S_7
REMARK    7  A    between atoms: S_7  and  C_8
REMARK    8  A    between atoms: C_11  and  C_12
REMARK    9  A    between atoms: N_16  and  C_17
REMARK   10  A    between atoms: C_17  and  C_18
REMARK   11  A    between atoms: C_22  and  C_23
REMARK   12  A    between atoms: C_23  and  O_25
REMARK   13  A    between atoms: O_25  and  C_26
REMARK                            x       y       z     vdW  Elec       q    Type
REMARK                         _______ _______ _______ _____ _____    ______ ____
ROOT
ATOM      1  C   UNL     1       3.038   6.196  19.158  0.00  0.00    +0.000 C 
ATOM      2  C   UNL     1       3.174   5.903  17.661  0.00  0.00    +0.000 C 
ATOM      3  C   UNL     1       4.247   6.760  17.068  0.00  0.00    +0.000 C 
ATOM      4  O   UNL     1       4.090   7.895  16.638  0.00  0.00    +0.000 OA
ATOM      5  N   UNL     1       5.426   6.065  17.134  0.00  0.00    +0.000 N 
ATOM      6  C   UNL     1       5.221   4.740  17.403  0.00  0.00    +0.000 C 
ATOM      7  O   UNL     1       6.080   3.874  17.398  0.00  0.00    +0.000 OA
ATOM      8  C   UNL     1       3.737   4.494  17.599  0.00  0.00    +0.000 C 
ATOM      9  C   UNL     1       3.281   3.809  18.898  0.00  0.00    +0.000 C 
ATOM     10  C   UNL     1       2.230   2.703  18.618  0.00  0.00    +0.000 C 
ATOM     11  C   UNL     1       1.609   2.280  19.948  0.00  0.00    +0.000 C 
ATOM     12  C   UNL     1       0.653   3.381  20.348  0.00  0.00    +0.000 C 
ATOM     13  C   UNL     1       1.235   4.777  20.077  0.00  0.00    +0.000 C 
ATOM     14  N   UNL     1       2.677   4.892  19.782  0.00  0.00    +0.000 NA
ENDROOT
BRANCH   1  18
ATOM     15  C   UNL     1       0.885   9.863  20.116  0.00  0.00    +0.000 A 
ATOM     16  C   UNL     1       1.171   9.555  18.793  0.00  0.00    +0.000 A 
ATOM     17  C   UNL     1       1.798   8.340  18.462  0.00  0.00    +0.000 A 
ATOM     18  C   UNL     1       2.173   7.425  19.463  0.00  0.00    +0.000 A 
ATOM     19  C   UNL     1       1.813   7.723  20.789  0.00  0.00    +0.000 A 
ATOM     20  C   UNL     1       1.187   8.930  21.112  0.00  0.00    +0.000 A 
BRANCH  15  21
ATOM     21  S   UNL     1       0.249  11.457  20.579  0.00  0.00    +0.000 S 
BRANCH  21  22
ATOM     22  C   UNL     1       0.821  12.454  19.167  0.00  0.00    +0.000 C 
BRANCH  22  23
ATOM     23  C   UNL     1      -0.397  13.019  18.445  0.00  0.00    +0.000 C 
BRANCH  23  24
ATOM     24  C   UNL     1      -1.631  12.146  18.670  0.00  0.00    +0.000 C 
BRANCH  24  25
ATOM     25  C   UNL     1      -1.921  11.304  17.429  0.00  0.00    +0.000 C 
BRANCH  25  27
ATOM     26  C   UNL     1      -4.168  10.204  17.634  0.00  0.00    +0.000 C 
ATOM     27  C   UNL     1      -2.666  10.020  17.779  0.00  0.00    +0.000 C 
ENDBRANCH  25  27
ENDBRANCH  24  25
ENDBRANCH  23  24
ENDBRANCH  22  23
ENDBRANCH  21  22
ENDBRANCH  15  21
ENDBRANCH   1  18
BRANCH   5  28
ATOM     28  C   UNL     1       6.725   6.663  16.897  0.00  0.00    +0.000 C 
ATOM     29  C   UNL     1       7.557   6.820  18.157  0.00  0.00    +0.000 C 
ENDBRANCH   5  28
BRANCH   9  30
ATOM     30  C   UNL     1       4.469   3.043  19.552  0.00  0.00    +0.000 C 
ATOM     31  O   UNL     1       5.342   3.616  20.205  0.00  0.00    +0.000 OA
BRANCH  30  32
ATOM     32  O   UNL     1       4.449   1.694  19.374  0.00  0.00    +0.000 OA
ATOM     33  C   UNL     1       5.062   1.012  20.479  0.00  0.00    +0.000 C 
ENDBRANCH  30  32
ENDBRANCH   9  30
TORSDOF 10
ENDMDL
MODEL 9
REMARK VINA RESULT:      -7.0      1.467      4.155
REMARK  Name = 
REMARK  13 active torsions:
REMARK  status: ('A' for Active; 'I' for Inactive)
REMARK    1  A    between atoms: C_1  and  C_2
REMARK    2  A    between atoms: C_2  and  C_3
REMARK    3  A    between atoms: C_3  and  C_4
REMARK    4  A    between atoms: C_4  and  C_5
REMARK    5  A    between atoms: C_5  and  C_6
REMARK    6  A    between atoms: C_6  and  S_7
REMARK    7  A    between atoms: S_7  and  C_8
REMARK    8  A    between atoms: C_11  and  C_12
REMARK    9  A    between atoms: N_16  and  C_17
REMARK   10  A    between atoms: C_17  and  C_18
REMARK   11  A    between atoms: C_22  and  C_23
REMARK   12  A    between atoms: C_23  and  O_25
REMARK   13  A    between atoms: O_25  and  C_26
REMARK                            x       y       z     vdW  Elec       q    Type
REMARK                         _______ _______ _______ _____ _____    ______ ____
ROOT
ATOM      1  C   UNL     1       3.354   6.242  18.420  0.00  0.00    +0.000 C 
ATOM      2  C   UNL     1       3.757   5.523  19.711  0.00  0.00    +0.000 C 
ATOM      3  C   UNL     1       2.680   4.569  20.122  0.00  0.00    +0.000 C 
ATOM      4  O   UNL     1       1.706   4.852  20.807  0.00  0.00    +0.000 OA
ATOM      5  N   UNL     1       2.961   3.350  19.561  0.00  0.00    +0.000 N 
ATOM      6  C   UNL     1       4.244   3.289  19.094  0.00  0.00    +0.000 C 
ATOM      7  O   UNL     1       4.795   2.291  18.660  0.00  0.00    +0.000 OA
ATOM      8  C   UNL     1       4.918   4.633  19.305  0.00  0.00    +0.000 C 
ATOM      9  C   UNL     1       5.559   5.320  18.088  0.00  0.00    +0.000 C 
ATOM     10  C   UNL     1       6.962   5.887  18.431  0.00  0.00    +0.000 C 
ATOM     11  C   UNL     1       7.405   6.801  17.291  0.00  0.00    +0.000 C 
ATOM     12  C   UNL     1       6.620   8.084  17.435  0.00  0.00    +0.000 C 
ATOM     13  C   UNL     1       5.151   7.824  17.807  0.00  0.00    +0.000 C 
ATOM     14  N   UNL     1       4.627   6.450  17.674  0.00  0.00    +0.000 NA
ENDROOT
BRANCH   1  18
ATOM     15  C   UNL     1       1.023   9.848  19.176  0.00  0.00    +0.000 A 
ATOM     16  C   UNL     1       1.359   9.501  17.874  0.00  0.00    +0.000 A 
ATOM     17  C   UNL     1       2.046   8.303  17.608  0.00  0.00    +0.000 A 
ATOM     18  C   UNL     1       2.430   7.443  18.653  0.00  0.00    +0.000 A 
ATOM     19  C   UNL     1       2.021   7.776  19.957  0.00  0.00    +0.000 A 
ATOM     20  C   UNL     1       1.337   8.967  20.215  0.00  0.00    +0.000 A 
BRANCH  15  21
ATOM     21  S   UNL     1       0.308  11.429  19.558  0.00  0.00    +0.000 S 
BRANCH  21  22
ATOM     22  C   UNL     1      -1.457  11.050  19.323  0.00  0.00    +0.000 C 
BRANCH  22  23
ATOM     23  C   UNL     1      -1.773  11.115  17.833  0.00  0.00    +0.000 C 
BRANCH  23  24
ATOM     24  C   UNL     1      -2.912  10.164  17.465  0.00  0.00    +0.000 C 
BRANCH  24  25
ATOM     25  C   UNL     1      -3.797  10.786  16.387  0.00  0.00    +0.000 C 
BRANCH  25  27
ATOM     26  C   UNL     1      -5.620  10.984  18.102  0.00  0.00    +0.000 C 
ATOM     27  C   UNL     1      -4.866  11.693  16.988  0.00  0.00    +0.000 C 
ENDBRANCH  25  27
ENDBRANCH  24  25
ENDBRANCH  23  24
ENDBRANCH  22  23
ENDBRANCH  21  22
ENDBRANCH  15  21
ENDBRANCH   1  18
BRANCH   5  28
ATOM     28  C   UNL     1       2.018   2.250  19.518  0.00  0.00    +0.000 C 
ATOM     29  C   UNL     1       0.807   2.526  18.648  0.00  0.00    +0.000 C 
ENDBRANCH   5  28
BRANCH   9  30
ATOM     30  C   UNL     1       5.838   4.280  16.963  0.00  0.00    +0.000 C 
ATOM     31  O   UNL     1       6.868   3.606  16.931  0.00  0.00    +0.000 OA
BRANCH  30  32
ATOM     32  O   UNL     1       4.845   4.152  16.041  0.00  0.00    +0.000 OA
ATOM     33  C   UNL     1       5.327   4.419  14.715  0.00  0.00    +0.000 C 
ENDBRANCH  30  32
ENDBRANCH   9  30
TORSDOF 10
ENDMDL
