MODEL 1
REMARK VINA RESULT:      -7.7      0.000      0.000
REMARK  Name = 
REMARK  3 active torsions:
REMARK  status: ('A' for Active; 'I' for Inactive)
REMARK    1  A    between atoms: C_2  and  C_3
REMARK    2  A    between atoms: C_4  and  C_5
REMARK    3  A    between atoms: N_13  and  C_14
REMARK                            x       y       z     vdW  Elec       q    Type
REMARK                         _______ _______ _______ _____ _____    ______ ____
ROOT
ATOM      1  C   UNL     1       2.001   2.575  19.541  0.00  0.00    +0.000 C 
ATOM      2  C   UNL     1       3.514   2.752  19.200  0.00  0.00    +0.000 C 
ATOM      3  C   UNL     1       3.823   4.241  18.887  0.00  0.00    +0.000 C 
ATOM      4  C   UNL     1       3.123   4.536  17.538  0.00  0.00    +0.000 C 
ATOM      5  C   UNL     1       1.625   4.161  17.615  0.00  0.00    +0.000 C 
ATOM      6  C   UNL     1       1.204   3.826  19.062  0.00  0.00    +0.000 C 
ATOM      7  C   UNL     1       1.574   4.943  20.011  0.00  0.00    +0.000 C 
ATOM      8  C   UNL     1       3.227   5.117  19.979  0.00  0.00    +0.000 C 
ATOM      9  N   UNL     1       2.283   6.088  19.717  0.00  0.00    +0.000 N 
ENDROOT
BRANCH   9  10
ATOM     10  C   UNL     1       2.054   7.390  19.397  0.00  0.00    +0.000 A 
ATOM     11  C   UNL     1       1.428   8.226  20.330  0.00  0.00    +0.000 A 
ATOM     12  C   UNL     1       1.108   9.542  20.015  0.00  0.00    +0.000 A 
ATOM     13  C   UNL     1       1.424  10.044  18.757  0.00  0.00    +0.000 A 
ATOM     14  C   UNL     1       2.081   9.236  17.830  0.00  0.00    +0.000 A 
ATOM     15  C   UNL     1       2.398   7.915  18.153  0.00  0.00    +0.000 A 
ENDBRANCH   9  10
BRANCH   1  17
ATOM     16  N   UNL     1       1.638   2.393  22.292  0.00  0.00    +0.000 NA
ATOM     17  C   UNL     1       1.802   2.476  21.045  0.00  0.00    +0.000 C 
ENDBRANCH   1  17
BRANCH   2  18
ATOM     18  C   UNL     1       4.443   2.210  20.197  0.00  0.00    +0.000 C 
ATOM     19  N   UNL     1       5.198   1.769  20.960  0.00  0.00    +0.000 NA
ENDBRANCH   2  18
TORSDOF 3
ENDMDL
MODEL 2
REMARK VINA RESULT:      -7.4      0.084      1.108
REMARK  Name = 
REMARK  3 active torsions:
REMARK  status: ('A' for Active; 'I' for Inactive)
REMARK    1  A    between atoms: C_2  and  C_3
REMARK    2  A    between atoms: C_4  and  C_5
REMARK    3  A    between atoms: N_13  and  C_14
REMARK                            x       y       z     vdW  Elec       q    Type
REMARK                         _______ _______ _______ _____ _____    ______ ____
ROOT
ATOM      1  C   UNL     1       2.019   2.520  19.547  0.00  0.00    +0.000 C 
ATOM      2  C   UNL     1       3.528   2.725  19.205  0.00  0.00    +0.000 C 
ATOM      3  C   UNL     1       3.807   4.220  18.892  0.00  0.00    +0.000 C 
ATOM      4  C   UNL     1       3.103   4.500  17.542  0.00  0.00    +0.000 C 
ATOM      5  C   UNL     1       1.612   4.096  17.619  0.00  0.00    +0.000 C 
ATOM      6  C   UNL     1       1.197   3.754  19.066  0.00  0.00    +0.000 C 
ATOM      7  C   UNL     1       1.545   4.879  20.014  0.00  0.00    +0.000 C 
ATOM      8  C   UNL     1       3.194   5.085  19.983  0.00  0.00    +0.000 C 
ATOM      9  N   UNL     1       2.231   6.037  19.720  0.00  0.00    +0.000 N 
ENDROOT
BRANCH   9  10
ATOM     10  C   UNL     1       1.977   7.334  19.399  0.00  0.00    +0.000 A 
ATOM     11  C   UNL     1       2.332   7.809  18.130  0.00  0.00    +0.000 A 
ATOM     12  C   UNL     1       2.159   9.146  17.789  0.00  0.00    +0.000 A 
ATOM     13  C   UNL     1       1.613  10.027  18.718  0.00  0.00    +0.000 A 
ATOM     14  C   UNL     1       1.220   9.562  19.972  0.00  0.00    +0.000 A 
ATOM     15  C   UNL     1       1.398   8.219  20.307  0.00  0.00    +0.000 A 
ENDBRANCH   9  10
BRANCH   1  17
ATOM     16  N   UNL     1       1.658   2.332  22.298  0.00  0.00    +0.000 NA
ATOM     17  C   UNL     1       1.822   2.417  21.050  0.00  0.00    +0.000 C 
ENDBRANCH   1  17
BRANCH   2  18
ATOM     18  C   UNL     1       4.467   2.203  20.203  0.00  0.00    +0.000 C 
ATOM     19  N   UNL     1       5.204   1.757  20.982  0.00  0.00    +0.000 NA
ENDBRANCH   2  18
TORSDOF 3
ENDMDL
MODEL 3
REMARK VINA RESULT:      -7.0      2.583      3.980
REMARK  Name = 
REMARK  3 active torsions:
REMARK  status: ('A' for Active; 'I' for Inactive)
REMARK    1  A    between atoms: C_2  and  C_3
REMARK    2  A    between atoms: C_4  and  C_5
REMARK    3  A    between atoms: N_13  and  C_14
REMARK                            x       y       z     vdW  Elec       q    Type
REMARK                         _______ _______ _______ _____ _____    ______ ____
ROOT
ATOM      1  C   UNL     1       1.347   4.528  20.448  0.00  0.00    +0.000 C 
ATOM      2  C   UNL     1       1.064   4.092  18.976  0.00  0.00    +0.000 C 
ATOM      3  C   UNL     1       2.238   4.521  18.056  0.00  0.00    +0.000 C 
ATOM      4  C   UNL     1       2.166   6.066  17.982  0.00  0.00    +0.000 C 
ATOM      5  C   UNL     1       2.170   6.673  19.404  0.00  0.00    +0.000 C 
ATOM      6  C   UNL     1       2.478   5.601  20.471  0.00  0.00    +0.000 C 
ATOM      7  C   UNL     1       3.757   4.862  20.150  0.00  0.00    +0.000 C 
ATOM      8  C   UNL     1       3.554   4.096  18.689  0.00  0.00    +0.000 C 
ATOM      9  N   UNL     1       4.540   4.999  19.025  0.00  0.00    +0.000 N 
ENDROOT
BRANCH   9  10
ATOM     10  C   UNL     1       5.656   5.664  18.618  0.00  0.00    +0.000 A 
ATOM     11  C   UNL     1       6.849   5.501  19.333  0.00  0.00    +0.000 A 
ATOM     12  C   UNL     1       7.992   6.220  18.996  0.00  0.00    +0.000 A 
ATOM     13  C   UNL     1       7.955   7.107  17.925  0.00  0.00    +0.000 A 
ATOM     14  C   UNL     1       6.785   7.252  17.180  0.00  0.00    +0.000 A 
ATOM     15  C   UNL     1       5.642   6.528  17.525  0.00  0.00    +0.000 A 
ENDBRANCH   9  10
BRANCH   1  17
ATOM     16  N   UNL     1       2.253   2.369  21.948  0.00  0.00    +0.000 NA
ATOM     17  C   UNL     1       1.842   3.348  21.268  0.00  0.00    +0.000 C 
ENDBRANCH   1  17
BRANCH   2  18
ATOM     18  C   UNL     1       0.736   2.674  18.801  0.00  0.00    +0.000 C 
ATOM     19  N   UNL     1       0.450   1.560  18.642  0.00  0.00    +0.000 NA
ENDBRANCH   2  18
TORSDOF 3
ENDMDL
MODEL 4
REMARK VINA RESULT:      -7.0      3.172      5.364
REMARK  Name = 
REMARK  3 active torsions:
REMARK  status: ('A' for Active; 'I' for Inactive)
REMARK    1  A    between atoms: C_2  and  C_3
REMARK    2  A    between atoms: C_4  and  C_5
REMARK    3  A    between atoms: N_13  and  C_14
REMARK                            x       y       z     vdW  Elec       q    Type
REMARK                         _______ _______ _______ _____ _____    ______ ____
ROOT
ATOM      1  C   UNL     1       7.411   5.091  17.437  0.00  0.00    +0.000 C 
ATOM      2  C   UNL     1       6.771   6.419  16.924  0.00  0.00    +0.000 C 
ATOM      3  C   UNL     1       5.231   6.381  17.119  0.00  0.00    +0.000 C 
ATOM      4  C   UNL     1       4.710   5.329  16.109  0.00  0.00    +0.000 C 
ATOM      5  C   UNL     1       5.446   3.983  16.306  0.00  0.00    +0.000 C 
ATOM      6  C   UNL     1       6.310   3.998  17.585  0.00  0.00    +0.000 C 
ATOM      7  C   UNL     1       5.491   4.394  18.792  0.00  0.00    +0.000 C 
ATOM      8  C   UNL     1       4.915   5.933  18.538  0.00  0.00    +0.000 C 
ATOM      9  N   UNL     1       4.175   4.802  18.810  0.00  0.00    +0.000 N 
ENDROOT
BRANCH   9  10
ATOM     10  C   UNL     1       2.936   4.282  19.025  0.00  0.00    +0.000 A 
ATOM     11  C   UNL     1       2.186   4.725  20.121  0.00  0.00    +0.000 A 
ATOM     12  C   UNL     1       0.948   4.166  20.419  0.00  0.00    +0.000 A 
ATOM     13  C   UNL     1       0.438   3.156  19.609  0.00  0.00    +0.000 A 
ATOM     14  C   UNL     1       1.155   2.729  18.492  0.00  0.00    +0.000 A 
ATOM     15  C   UNL     1       2.398   3.295  18.201  0.00  0.00    +0.000 A 
ENDBRANCH   9  10
BRANCH   1  17
ATOM     16  N   UNL     1       8.528   5.456  19.957  0.00  0.00    +0.000 NA
ATOM     17  C   UNL     1       8.022   5.291  18.814  0.00  0.00    +0.000 C 
ENDBRANCH   1  17
BRANCH   2  18
ATOM     18  C   UNL     1       7.351   7.644  17.482  0.00  0.00    +0.000 C 
ATOM     19  N   UNL     1       7.812   8.628  17.892  0.00  0.00    +0.000 NA
ENDBRANCH   2  18
TORSDOF 3
ENDMDL
MODEL 5
REMARK VINA RESULT:      -6.9      3.904      6.227
REMARK  Name = 
REMARK  3 active torsions:
REMARK  status: ('A' for Active; 'I' for Inactive)
REMARK    1  A    between atoms: C_2  and  C_3
REMARK    2  A    between atoms: C_4  and  C_5
REMARK    3  A    between atoms: N_13  and  C_14
REMARK                            x       y       z     vdW  Elec       q    Type
REMARK                         _______ _______ _______ _____ _____    ______ ____
ROOT
ATOM      1  C   UNL     1       5.354   5.168  19.187  0.00  0.00    +0.000 C 
ATOM      2  C   UNL     1       4.067   5.873  18.656  0.00  0.00    +0.000 C 
ATOM      3  C   UNL     1       4.104   5.960  17.107  0.00  0.00    +0.000 C 
ATOM      4  C   UNL     1       5.222   6.978  16.774  0.00  0.00    +0.000 C 
ATOM      5  C   UNL     1       6.547   6.565  17.457  0.00  0.00    +0.000 C 
ATOM      6  C   UNL     1       6.444   5.153  18.073  0.00  0.00    +0.000 C 
ATOM      7  C   UNL     1       5.978   4.144  17.049  0.00  0.00    +0.000 C 
ATOM      8  C   UNL     1       4.463   4.597  16.535  0.00  0.00    +0.000 C 
ATOM      9  N   UNL     1       5.580   4.391  15.753  0.00  0.00    +0.000 N 
ENDROOT
BRANCH   9  10
ATOM     10  C   UNL     1       6.095   4.373  14.494  0.00  0.00    +0.000 A 
ATOM     11  C   UNL     1       5.487   3.577  13.516  0.00  0.00    +0.000 A 
ATOM     12  C   UNL     1       6.026   3.472  12.238  0.00  0.00    +0.000 A 
ATOM     13  C   UNL     1       7.182   4.178  11.919  0.00  0.00    +0.000 A 
ATOM     14  C   UNL     1       7.779   5.003  12.871  0.00  0.00    +0.000 A 
ATOM     15  C   UNL     1       7.232   5.103  14.152  0.00  0.00    +0.000 A 
ENDBRANCH   9  10
BRANCH   1  17
ATOM     16  N   UNL     1       4.820   2.515  19.827  0.00  0.00    +0.000 NA
ATOM     17  C   UNL     1       5.062   3.718  19.537  0.00  0.00    +0.000 C 
ENDBRANCH   1  17
BRANCH   2  18
ATOM     18  C   UNL     1       2.804   5.298  19.130  0.00  0.00    +0.000 C 
ATOM     19  N   UNL     1       1.822   4.819  19.521  0.00  0.00    +0.000 NA
ENDBRANCH   2  18
TORSDOF 3
ENDMDL
MODEL 6
REMARK VINA RESULT:      -6.9      3.937      6.239
REMARK  Name = 
REMARK  3 active torsions:
REMARK  status: ('A' for Active; 'I' for Inactive)
REMARK    1  A    between atoms: C_2  and  C_3
REMARK    2  A    between atoms: C_4  and  C_5
REMARK    3  A    between atoms: N_13  and  C_14
REMARK                            x       y       z     vdW  Elec       q    Type
REMARK                         _______ _______ _______ _____ _____    ______ ____
ROOT
ATOM      1  C   UNL     1       5.389   5.132  19.179  0.00  0.00    +0.000 C 
ATOM      2  C   UNL     1       4.123   5.857  18.626  0.00  0.00    +0.000 C 
ATOM      3  C   UNL     1       4.182   5.932  17.076  0.00  0.00    +0.000 C 
ATOM      4  C   UNL     1       5.324   6.926  16.751  0.00  0.00    +0.000 C 
ATOM      5  C   UNL     1       6.631   6.492  17.455  0.00  0.00    +0.000 C 
ATOM      6  C   UNL     1       6.493   5.087  18.079  0.00  0.00    +0.000 C 
ATOM      7  C   UNL     1       6.021   4.079  17.057  0.00  0.00    +0.000 C 
ATOM      8  C   UNL     1       4.521   4.558  16.519  0.00  0.00    +0.000 C 
ATOM      9  N   UNL     1       5.645   4.325  15.754  0.00  0.00    +0.000 N 
ENDROOT
BRANCH   9  10
ATOM     10  C   UNL     1       6.176   4.288  14.502  0.00  0.00    +0.000 A 
ATOM     11  C   UNL     1       7.313   5.053  14.216  0.00  0.00    +0.000 A 
ATOM     12  C   UNL     1       7.842   5.102  12.931  0.00  0.00    +0.000 A 
ATOM     13  C   UNL     1       7.241   4.370  11.912  0.00  0.00    +0.000 A 
ATOM     14  C   UNL     1       6.131   3.574  12.188  0.00  0.00    +0.000 A 
ATOM     15  C   UNL     1       5.605   3.530  13.481  0.00  0.00    +0.000 A 
ENDBRANCH   9  10
BRANCH   1  17
ATOM     16  N   UNL     1       4.795   2.494  19.831  0.00  0.00    +0.000 NA
ATOM     17  C   UNL     1       5.064   3.690  19.535  0.00  0.00    +0.000 C 
ENDBRANCH   1  17
BRANCH   2  18
ATOM     18  C   UNL     1       2.842   5.311  19.087  0.00  0.00    +0.000 C 
ATOM     19  N   UNL     1       1.846   4.851  19.464  0.00  0.00    +0.000 NA
ENDBRANCH   2  18
TORSDOF 3
ENDMDL
MODEL 7
REMARK VINA RESULT:      -6.9      2.560      4.045
REMARK  Name = 
REMARK  3 active torsions:
REMARK  status: ('A' for Active; 'I' for Inactive)
REMARK    1  A    between atoms: C_2  and  C_3
REMARK    2  A    between atoms: C_4  and  C_5
REMARK    3  A    between atoms: N_13  and  C_14
REMARK                            x       y       z     vdW  Elec       q    Type
REMARK                         _______ _______ _______ _____ _____    ______ ____
ROOT
ATOM      1  C   UNL     1       1.275   4.498  20.473  0.00  0.00    +0.000 C 
ATOM      2  C   UNL     1       1.000   4.126  18.982  0.00  0.00    +0.000 C 
ATOM      3  C   UNL     1       2.186   4.584  18.090  0.00  0.00    +0.000 C 
ATOM      4  C   UNL     1       2.127   6.131  18.081  0.00  0.00    +0.000 C 
ATOM      5  C   UNL     1       2.125   6.677  19.528  0.00  0.00    +0.000 C 
ATOM      6  C   UNL     1       2.414   5.558  20.550  0.00  0.00    +0.000 C 
ATOM      7  C   UNL     1       3.690   4.823  20.209  0.00  0.00    +0.000 C 
ATOM      8  C   UNL     1       3.493   4.121  18.714  0.00  0.00    +0.000 C 
ATOM      9  N   UNL     1       4.484   5.001  19.097  0.00  0.00    +0.000 N 
ENDROOT
BRANCH   9  10
ATOM     10  C   UNL     1       5.608   5.673  18.727  0.00  0.00    +0.000 A 
ATOM     11  C   UNL     1       5.556   6.552  17.639  0.00  0.00    +0.000 A 
ATOM     12  C   UNL     1       6.699   7.199  17.182  0.00  0.00    +0.000 A 
ATOM     13  C   UNL     1       7.914   6.981  17.823  0.00  0.00    +0.000 A 
ATOM     14  C   UNL     1       7.976   6.138  18.931  0.00  0.00    +0.000 A 
ATOM     15  C   UNL     1       6.825   5.490  19.383  0.00  0.00    +0.000 A 
ENDBRANCH   9  10
BRANCH   1  17
ATOM     16  N   UNL     1       2.150   2.269  21.887  0.00  0.00    +0.000 NA
ATOM     17  C   UNL     1       1.753   3.279  21.246  0.00  0.00    +0.000 C 
ENDBRANCH   1  17
BRANCH   2  18
ATOM     18  C   UNL     1       0.662   2.720  18.744  0.00  0.00    +0.000 C 
ATOM     19  N   UNL     1       0.393   1.613  18.521  0.00  0.00    +0.000 NA
ENDBRANCH   2  18
TORSDOF 3
ENDMDL
MODEL 8
REMARK VINA RESULT:      -6.9      1.333      1.749
REMARK  Name = 
REMARK  3 active torsions:
REMARK  status: ('A' for Active; 'I' for Inactive)
REMARK    1  A    between atoms: C_2  and  C_3
REMARK    2  A    between atoms: C_4  and  C_5
REMARK    3  A    between atoms: N_13  and  C_14
REMARK                            x       y       z     vdW  Elec       q    Type
REMARK                         _______ _______ _______ _____ _____    ______ ____
ROOT
ATOM      1  C   UNL     1       3.771   3.180  17.848  0.00  0.00    +0.000 C 
ATOM      2  C   UNL     1       4.832   3.497  18.949  0.00  0.00    +0.000 C 
ATOM      3  C   UNL     1       4.686   4.968  19.425  0.00  0.00    +0.000 C 
ATOM      4  C   UNL     1       5.151   5.838  18.231  0.00  0.00    +0.000 C 
ATOM      5  C   UNL     1       4.364   5.464  16.954  0.00  0.00    +0.000 C 
ATOM      6  C   UNL     1       3.194   4.509  17.275  0.00  0.00    +0.000 C 
ATOM      7  C   UNL     1       2.307   5.079  18.358  0.00  0.00    +0.000 C 
ATOM      8  C   UNL     1       3.225   5.254  19.734  0.00  0.00    +0.000 C 
ATOM      9  N   UNL     1       2.508   6.235  19.080  0.00  0.00    +0.000 N 
ENDROOT
BRANCH   9  10
ATOM     10  C   UNL     1       2.125   7.541  19.066  0.00  0.00    +0.000 A 
ATOM     11  C   UNL     1       1.565   8.104  20.220  0.00  0.00    +0.000 A 
ATOM     12  C   UNL     1       1.092   9.412  20.224  0.00  0.00    +0.000 A 
ATOM     13  C   UNL     1       1.187  10.180  19.068  0.00  0.00    +0.000 A 
ATOM     14  C   UNL     1       1.775   9.646  17.922  0.00  0.00    +0.000 A 
ATOM     15  C   UNL     1       2.247   8.332  17.926  0.00  0.00    +0.000 A 
ENDBRANCH   9  10
BRANCH   1  17
ATOM     16  N   UNL     1       1.631   1.773  18.933  0.00  0.00    +0.000 NA
ATOM     17  C   UNL     1       2.602   2.411  18.441  0.00  0.00    +0.000 C 
ENDBRANCH   1  17
BRANCH   2  18
ATOM     18  C   UNL     1       4.848   2.567  20.083  0.00  0.00    +0.000 C 
ATOM     19  N   UNL     1       4.894   1.826  20.975  0.00  0.00    +0.000 NA
ENDBRANCH   2  18
TORSDOF 3
ENDMDL
MODEL 9
REMARK VINA RESULT:      -6.8      2.402      4.543
REMARK  Name = 
REMARK  3 active torsions:
REMARK  status: ('A' for Active; 'I' for Inactive)
REMARK    1  A    between atoms: C_2  and  C_3
REMARK    2  A    between atoms: C_4  and  C_5
REMARK    3  A    between atoms: N_13  and  C_14
REMARK                            x       y       z     vdW  Elec       q    Type
REMARK                         _______ _______ _______ _____ _____    ______ ____
ROOT
ATOM      1  C   UNL     1       1.205   4.007  19.289  0.00  0.00    +0.000 C 
ATOM      2  C   UNL     1       1.950   2.752  19.844  0.00  0.00    +0.000 C 
ATOM      3  C   UNL     1       3.287   2.544  19.083  0.00  0.00    +0.000 C 
ATOM      4  C   UNL     1       2.887   2.108  17.652  0.00  0.00    +0.000 C 
ATOM      5  C   UNL     1       1.912   3.134  17.030  0.00  0.00    +0.000 C 
ATOM      6  C   UNL     1       1.799   4.401  17.904  0.00  0.00    +0.000 C 
ATOM      7  C   UNL     1       3.161   4.992  18.188  0.00  0.00    +0.000 C 
ATOM      8  C   UNL     1       4.045   3.861  19.028  0.00  0.00    +0.000 C 
ATOM      9  N   UNL     1       4.387   4.470  17.838  0.00  0.00    +0.000 N 
ENDROOT
BRANCH   9  10
ATOM     10  C   UNL     1       5.321   4.596  16.856  0.00  0.00    +0.000 A 
ATOM     11  C   UNL     1       4.926   4.491  15.517  0.00  0.00    +0.000 A 
ATOM     12  C   UNL     1       5.859   4.539  14.487  0.00  0.00    +0.000 A 
ATOM     13  C   UNL     1       7.208   4.705  14.789  0.00  0.00    +0.000 A 
ATOM     14  C   UNL     1       7.612   4.849  16.115  0.00  0.00    +0.000 A 
ATOM     15  C   UNL     1       6.669   4.799  17.144  0.00  0.00    +0.000 A 
ENDBRANCH   9  10
BRANCH   1  17
ATOM     16  N   UNL     1       1.576   6.186  20.976  0.00  0.00    +0.000 NA
ATOM     17  C   UNL     1       1.408   5.198  20.211  0.00  0.00    +0.000 C 
ENDBRANCH   1  17
BRANCH   2  18
ATOM     18  C   UNL     1       2.154   2.742  21.296  0.00  0.00    +0.000 C 
ATOM     19  N   UNL     1       2.349   2.737  22.441  0.00  0.00    +0.000 NA
ENDBRANCH   2  18
TORSDOF 3
ENDMDL
