MODEL 1
REMARK VINA RESULT:      -7.7      0.000      0.000
REMARK  Name = 
REMARK  8 active torsions:
REMARK  status: ('A' for Active; 'I' for Inactive)
REMARK    1  A    between atoms: C_1  and  C_2
REMARK    2  A    between atoms: C_9  and  O_10
REMARK    3  A    between atoms: C_14  and  C_15
REMARK    4  A    between atoms: N_17  and  C_18
REMARK    5  A    between atoms: C_19  and  C_20
REMARK    6  A    between atoms: C_23  and  C_24
REMARK    7  A    between atoms: C_24  and  O_26
REMARK    8  A    between atoms: C_27  and  C_28
REMARK                            x       y       z     vdW  Elec       q    Type
REMARK                         _______ _______ _______ _____ _____    ______ ____
ROOT
ATOM      1  C   UNL     1       2.482   7.730  18.379  0.00  0.00    +0.000 C 
ATOM      2  O   UNL     1       2.402   8.039  17.195  0.00  0.00    +0.000 OA
ATOM      3  N   UNL     1       3.123   6.586  18.856  0.00  0.00    +0.000 N 
ATOM      4  H   UNL     1       2.832   6.338  19.798  0.00  0.00    +0.000 HD
ENDROOT
BRANCH   1  17
ATOM      5  C   UNL     1       1.411   6.556  21.019  0.00  0.00    +0.000 C 
ATOM      6  C   UNL     1       1.316   8.004  20.649  0.00  0.00    +0.000 A 
ATOM      7  C   UNL     1       0.688   8.873  21.539  0.00  0.00    +0.000 A 
ATOM      8  C   UNL     1       0.594  10.226  21.240  0.00  0.00    +0.000 A 
ATOM      9  C   UNL     1       1.137  10.733  20.062  0.00  0.00    +0.000 A 
ATOM     10  N   UNL     1       1.059  12.083  19.779  0.00  0.00    +0.000 N 
ATOM     11  C   UNL     1       1.057  13.099  20.827  0.00  0.00    +0.000 C 
ATOM     12  C   UNL     1       2.253  14.028  20.644  0.00  0.00    +0.000 C 
ATOM     13  C   UNL     1       2.319  14.597  19.231  0.00  0.00    +0.000 C 
ATOM     14  C   UNL     1       2.246  13.498  18.168  0.00  0.00    +0.000 C 
ATOM     15  C   UNL     1       1.077  12.544  18.395  0.00  0.00    +0.000 C 
ATOM     16  N   UNL     1       1.738   9.904  19.177  0.00  0.00    +0.000 NA
ATOM     17  C   UNL     1       1.812   8.561  19.463  0.00  0.00    +0.000 A 
BRANCH  13  18
ATOM     18  O   UNL     1       1.288  15.565  19.037  0.00  0.00    +0.000 OA
ATOM     19  H   UNL     1       0.462  15.111  18.805  0.00  0.00    +0.000 HD
ENDBRANCH  13  18
ENDBRANCH   1  17
BRANCH   3  20
ATOM     20  C   UNL     1       3.724   5.591  18.038  0.00  0.00    +0.000 A 
ATOM     21  C   UNL     1       2.995   4.469  17.581  0.00  0.00    +0.000 A 
ATOM     22  C   UNL     1       1.516   4.280  17.793  0.00  0.00    +0.000 C 
ATOM     23  C   UNL     1       3.636   3.497  16.797  0.00  0.00    +0.000 A 
ATOM     24  C   UNL     1       4.964   3.650  16.411  0.00  0.00    +0.000 A 
ATOM     25  C   UNL     1       5.694   4.776  16.815  0.00  0.00    +0.000 A 
ATOM     26  C   UNL     1       5.075   5.771  17.618  0.00  0.00    +0.000 A 
ATOM     27  C   UNL     1       5.808   7.016  18.064  0.00  0.00    +0.000 C 
BRANCH  25  28
ATOM     28  C   UNL     1       7.094   4.896  16.302  0.00  0.00    +0.000 C 
ATOM     29  O   UNL     1       7.401   5.546  15.315  0.00  0.00    +0.000 OA
BRANCH  28  30
ATOM     30  O   UNL     1       8.009   4.200  17.012  0.00  0.00    +0.000 OA
ATOM     31  H   UNL     1       8.567   3.582  16.507  0.00  0.00    +0.000 HD
ENDBRANCH  28  30
ENDBRANCH  25  28
ENDBRANCH   3  20
TORSDOF 5
ENDMDL
MODEL 2
REMARK VINA RESULT:      -7.3      2.369      3.181
REMARK  Name = 
REMARK  8 active torsions:
REMARK  status: ('A' for Active; 'I' for Inactive)
REMARK    1  A    between atoms: C_1  and  C_2
REMARK    2  A    between atoms: C_9  and  O_10
REMARK    3  A    between atoms: C_14  and  C_15
REMARK    4  A    between atoms: N_17  and  C_18
REMARK    5  A    between atoms: C_19  and  C_20
REMARK    6  A    between atoms: C_23  and  C_24
REMARK    7  A    between atoms: C_24  and  O_26
REMARK    8  A    between atoms: C_27  and  C_28
REMARK                            x       y       z     vdW  Elec       q    Type
REMARK                         _______ _______ _______ _____ _____    ______ ____
ROOT
ATOM      1  C   UNL     1       1.478   8.545  18.825  0.00  0.00    +0.000 C 
ATOM      2  O   UNL     1       1.067   8.460  17.673  0.00  0.00    +0.000 OA
ATOM      3  N   UNL     1       2.290   7.595  19.447  0.00  0.00    +0.000 N 
ATOM      4  H   UNL     1       2.276   7.672  20.461  0.00  0.00    +0.000 HD
ENDROOT
BRANCH   1  17
ATOM      5  C   UNL     1      -0.249   8.215  21.356  0.00  0.00    +0.000 C 
ATOM      6  C   UNL     1       0.273   9.530  20.865  0.00  0.00    +0.000 A 
ATOM      7  C   UNL     1      -0.058  10.679  21.581  0.00  0.00    +0.000 A 
ATOM      8  C   UNL     1       0.419  11.917  21.168  0.00  0.00    +0.000 A 
ATOM      9  C   UNL     1       1.243  12.023  20.050  0.00  0.00    +0.000 A 
ATOM     10  N   UNL     1       1.732  13.254  19.655  0.00  0.00    +0.000 N 
ATOM     11  C   UNL     1       2.014  14.322  20.610  0.00  0.00    +0.000 C 
ATOM     12  C   UNL     1       3.490  14.698  20.539  0.00  0.00    +0.000 C 
ATOM     13  C   UNL     1       3.928  15.011  19.112  0.00  0.00    +0.000 C 
ATOM     14  C   UNL     1       3.548  13.894  18.137  0.00  0.00    +0.000 C 
ATOM     15  C   UNL     1       2.081  13.491  18.259  0.00  0.00    +0.000 C 
ATOM     16  N   UNL     1       1.563  10.922  19.332  0.00  0.00    +0.000 NA
ATOM     17  C   UNL     1       1.074   9.700  19.729  0.00  0.00    +0.000 A 
BRANCH  13  18
ATOM     18  O   UNL     1       3.388  16.264  18.691  0.00  0.00    +0.000 OA
ATOM     19  H   UNL     1       2.913  16.673  19.433  0.00  0.00    +0.000 HD
ENDBRANCH  13  18
ENDBRANCH   1  17
BRANCH   3  20
ATOM     20  C   UNL     1       2.709   6.372  18.856  0.00  0.00    +0.000 A 
ATOM     21  C   UNL     1       3.643   6.345  17.795  0.00  0.00    +0.000 A 
ATOM     22  C   UNL     1       4.373   7.558  17.282  0.00  0.00    +0.000 C 
ATOM     23  C   UNL     1       4.009   5.116  17.223  0.00  0.00    +0.000 A 
ATOM     24  C   UNL     1       3.511   3.918  17.724  0.00  0.00    +0.000 A 
ATOM     25  C   UNL     1       2.618   3.917  18.804  0.00  0.00    +0.000 A 
ATOM     26  C   UNL     1       2.222   5.146  19.396  0.00  0.00    +0.000 A 
ATOM     27  C   UNL     1       1.279   5.203  20.576  0.00  0.00    +0.000 C 
BRANCH  25  28
ATOM     28  C   UNL     1       2.183   2.583  19.323  0.00  0.00    +0.000 C 
ATOM     29  O   UNL     1       2.364   2.212  20.473  0.00  0.00    +0.000 OA
BRANCH  28  30
ATOM     30  O   UNL     1       1.585   1.796  18.403  0.00  0.00    +0.000 OA
ATOM     31  H   UNL     1       2.122   1.555  17.628  0.00  0.00    +0.000 HD
ENDBRANCH  28  30
ENDBRANCH  25  28
ENDBRANCH   3  20
TORSDOF 5
ENDMDL
MODEL 3
REMARK VINA RESULT:      -7.2      1.791      2.617
REMARK  Name = 
REMARK  8 active torsions:
REMARK  status: ('A' for Active; 'I' for Inactive)
REMARK    1  A    between atoms: C_1  and  C_2
REMARK    2  A    between atoms: C_9  and  O_10
REMARK    3  A    between atoms: C_14  and  C_15
REMARK    4  A    between atoms: N_17  and  C_18
REMARK    5  A    between atoms: C_19  and  C_20
REMARK    6  A    between atoms: C_23  and  C_24
REMARK    7  A    between atoms: C_24  and  O_26
REMARK    8  A    between atoms: C_27  and  C_28
REMARK                            x       y       z     vdW  Elec       q    Type
REMARK                         _______ _______ _______ _____ _____    ______ ____
ROOT
ATOM      1  C   UNL     1       2.027   7.995  18.588  0.00  0.00    +0.000 C 
ATOM      2  O   UNL     1       1.680   8.086  17.416  0.00  0.00    +0.000 OA
ATOM      3  N   UNL     1       2.876   7.006  19.087  0.00  0.00    +0.000 N 
ATOM      4  H   UNL     1       2.807   6.904  20.097  0.00  0.00    +0.000 HD
ENDROOT
BRANCH   1  17
ATOM      5  C   UNL     1       0.922   7.073  21.314  0.00  0.00    +0.000 C 
ATOM      6  C   UNL     1       0.980   8.504  20.875  0.00  0.00    +0.000 A 
ATOM      7  C   UNL     1       0.486   9.479  21.739  0.00  0.00    +0.000 A 
ATOM      8  C   UNL     1       0.535  10.819  21.377  0.00  0.00    +0.000 A 
ATOM      9  C   UNL     1       1.092  11.206  20.160  0.00  0.00    +0.000 A 
ATOM     10  N   UNL     1       1.158  12.541  19.814  0.00  0.00    +0.000 N 
ATOM     11  C   UNL     1       1.307  13.598  20.810  0.00  0.00    +0.000 C 
ATOM     12  C   UNL     1       2.594  14.374  20.547  0.00  0.00    +0.000 C 
ATOM     13  C   UNL     1       2.675  14.866  19.106  0.00  0.00    +0.000 C 
ATOM     14  C   UNL     1       2.441  13.736  18.100  0.00  0.00    +0.000 C 
ATOM     15  C   UNL     1       1.180  12.934  18.409  0.00  0.00    +0.000 C 
ATOM     16  N   UNL     1       1.563  10.274  19.300  0.00  0.00    +0.000 NA
ATOM     17  C   UNL     1       1.495   8.946  19.649  0.00  0.00    +0.000 A 
BRANCH  13  18
ATOM     18  O   UNL     1       1.755  15.937  18.895  0.00  0.00    +0.000 OA
ATOM     19  H   UNL     1       0.910  15.723  19.324  0.00  0.00    +0.000 HD
ENDBRANCH  13  18
ENDBRANCH   1  17
BRANCH   3  20
ATOM     20  C   UNL     1       3.414   5.935  18.323  0.00  0.00    +0.000 A 
ATOM     21  C   UNL     1       4.454   6.142  17.388  0.00  0.00    +0.000 A 
ATOM     22  C   UNL     1       5.175   7.451  17.204  0.00  0.00    +0.000 C 
ATOM     23  C   UNL     1       4.937   5.060  16.636  0.00  0.00    +0.000 A 
ATOM     24  C   UNL     1       4.447   3.773  16.837  0.00  0.00    +0.000 A 
ATOM     25  C   UNL     1       3.447   3.536  17.789  0.00  0.00    +0.000 A 
ATOM     26  C   UNL     1       2.932   4.614  18.558  0.00  0.00    +0.000 A 
ATOM     27  C   UNL     1       1.868   4.412  19.613  0.00  0.00    +0.000 C 
BRANCH  25  28
ATOM     28  C   UNL     1       3.024   2.115  17.989  0.00  0.00    +0.000 C 
ATOM     29  O   UNL     1       3.704   1.282  18.568  0.00  0.00    +0.000 OA
BRANCH  28  30
ATOM     30  O   UNL     1       1.823   1.811  17.452  0.00  0.00    +0.000 OA
ATOM     31  H   UNL     1       1.092   1.673  18.080  0.00  0.00    +0.000 HD
ENDBRANCH  28  30
ENDBRANCH  25  28
ENDBRANCH   3  20
TORSDOF 5
ENDMDL
MODEL 4
REMARK VINA RESULT:      -7.2      2.412      7.896
REMARK  Name = 
REMARK  8 active torsions:
REMARK  status: ('A' for Active; 'I' for Inactive)
REMARK    1  A    between atoms: C_1  and  C_2
REMARK    2  A    between atoms: C_9  and  O_10
REMARK    3  A    between atoms: C_14  and  C_15
REMARK    4  A    between atoms: N_17  and  C_18
REMARK    5  A    between atoms: C_19  and  C_20
REMARK    6  A    between atoms: C_23  and  C_24
REMARK    7  A    between atoms: C_24  and  O_26
REMARK    8  A    between atoms: C_27  and  C_28
REMARK                            x       y       z     vdW  Elec       q    Type
REMARK                         _______ _______ _______ _____ _____    ______ ____
ROOT
ATOM      1  C   UNL     1       1.711   6.127  20.407  0.00  0.00    +0.000 C 
ATOM      2  O   UNL     1       0.570   5.870  20.775  0.00  0.00    +0.000 OA
ATOM      3  N   UNL     1       2.209   7.416  20.215  0.00  0.00    +0.000 N 
ATOM      4  H   UNL     1       3.042   7.431  19.632  0.00  0.00    +0.000 HD
ENDROOT
BRANCH   1  17
ATOM      5  C   UNL     1       1.739   3.359  21.764  0.00  0.00    +0.000 C 
ATOM      6  C   UNL     1       2.705   3.779  20.698  0.00  0.00    +0.000 A 
ATOM      7  C   UNL     1       3.691   2.874  20.309  0.00  0.00    +0.000 A 
ATOM      8  C   UNL     1       4.596   3.219  19.313  0.00  0.00    +0.000 A 
ATOM      9  C   UNL     1       4.521   4.458  18.682  0.00  0.00    +0.000 A 
ATOM     10  N   UNL     1       5.411   4.787  17.678  0.00  0.00    +0.000 N 
ATOM     11  C   UNL     1       5.981   3.785  16.783  0.00  0.00    +0.000 C 
ATOM     12  C   UNL     1       5.598   4.106  15.342  0.00  0.00    +0.000 C 
ATOM     13  C   UNL     1       5.950   5.542  14.968  0.00  0.00    +0.000 C 
ATOM     14  C   UNL     1       5.391   6.550  15.974  0.00  0.00    +0.000 C 
ATOM     15  C   UNL     1       5.735   6.185  17.415  0.00  0.00    +0.000 C 
ATOM     16  N   UNL     1       3.581   5.357  19.056  0.00  0.00    +0.000 NA
ATOM     17  C   UNL     1       2.698   5.024  20.056  0.00  0.00    +0.000 A 
BRANCH  13  18
ATOM     18  O   UNL     1       7.364   5.686  14.830  0.00  0.00    +0.000 OA
ATOM     19  H   UNL     1       7.808   5.063  15.428  0.00  0.00    +0.000 HD
ENDBRANCH  13  18
ENDBRANCH   1  17
BRANCH   3  20
ATOM     20  C   UNL     1       1.451   8.610  20.363  0.00  0.00    +0.000 A 
ATOM     21  C   UNL     1       1.257   9.211  21.628  0.00  0.00    +0.000 A 
ATOM     22  C   UNL     1       1.922   8.743  22.896  0.00  0.00    +0.000 C 
ATOM     23  C   UNL     1       0.480  10.375  21.731  0.00  0.00    +0.000 A 
ATOM     24  C   UNL     1      -0.055  10.982  20.599  0.00  0.00    +0.000 A 
ATOM     25  C   UNL     1       0.161  10.428  19.330  0.00  0.00    +0.000 A 
ATOM     26  C   UNL     1       0.935   9.245  19.196  0.00  0.00    +0.000 A 
ATOM     27  C   UNL     1       1.218   8.617  17.850  0.00  0.00    +0.000 C 
BRANCH  25  28
ATOM     28  C   UNL     1      -0.392  11.179  18.160  0.00  0.00    +0.000 C 
ATOM     29  O   UNL     1      -1.330  10.784  17.484  0.00  0.00    +0.000 OA
BRANCH  28  30
ATOM     30  O   UNL     1       0.248  12.336  17.888  0.00  0.00    +0.000 OA
ATOM     31  H   UNL     1       0.112  13.064  18.521  0.00  0.00    +0.000 HD
ENDBRANCH  28  30
ENDBRANCH  25  28
ENDBRANCH   3  20
TORSDOF 5
ENDMDL
MODEL 5
REMARK VINA RESULT:      -6.9      4.332      9.317
REMARK  Name = 
REMARK  8 active torsions:
REMARK  status: ('A' for Active; 'I' for Inactive)
REMARK    1  A    between atoms: C_1  and  C_2
REMARK    2  A    between atoms: C_9  and  O_10
REMARK    3  A    between atoms: C_14  and  C_15
REMARK    4  A    between atoms: N_17  and  C_18
REMARK    5  A    between atoms: C_19  and  C_20
REMARK    6  A    between atoms: C_23  and  C_24
REMARK    7  A    between atoms: C_24  and  O_26
REMARK    8  A    between atoms: C_27  and  C_28
REMARK                            x       y       z     vdW  Elec       q    Type
REMARK                         _______ _______ _______ _____ _____    ______ ____
ROOT
ATOM      1  C   UNL     1      -1.095  11.015  19.305  0.00  0.00    +0.000 C 
ATOM      2  O   UNL     1      -0.691  12.070  18.830  0.00  0.00    +0.000 OA
ATOM      3  N   UNL     1      -2.346  10.456  19.042  0.00  0.00    +0.000 N 
ATOM      4  H   UNL     1      -2.622   9.768  19.739  0.00  0.00    +0.000 HD
ENDROOT
BRANCH   1  17
ATOM      5  C   UNL     1      -1.122  11.541  22.342  0.00  0.00    +0.000 C 
ATOM      6  C   UNL     1      -0.278  10.494  21.682  0.00  0.00    +0.000 A 
ATOM      7  C   UNL     1       0.564   9.724  22.482  0.00  0.00    +0.000 A 
ATOM      8  C   UNL     1       1.351   8.733  21.911  0.00  0.00    +0.000 A 
ATOM      9  C   UNL     1       1.298   8.484  20.542  0.00  0.00    +0.000 A 
ATOM     10  N   UNL     1       2.067   7.483  19.981  0.00  0.00    +0.000 N 
ATOM     11  C   UNL     1       2.421   6.270  20.714  0.00  0.00    +0.000 C 
ATOM     12  C   UNL     1       1.874   5.050  19.981  0.00  0.00    +0.000 C 
ATOM     13  C   UNL     1       2.295   5.033  18.515  0.00  0.00    +0.000 C 
ATOM     14  C   UNL     1       1.968   6.351  17.809  0.00  0.00    +0.000 C 
ATOM     15  C   UNL     1       2.473   7.566  18.582  0.00  0.00    +0.000 C 
ATOM     16  N   UNL     1       0.499   9.231  19.744  0.00  0.00    +0.000 NA
ATOM     17  C   UNL     1      -0.264  10.226  20.307  0.00  0.00    +0.000 A 
BRANCH  13  18
ATOM     18  O   UNL     1       3.684   4.722  18.401  0.00  0.00    +0.000 OA
ATOM     19  H   UNL     1       4.202   5.404  18.859  0.00  0.00    +0.000 HD
ENDBRANCH  13  18
ENDBRANCH   1  17
BRANCH   3  20
ATOM     20  C   UNL     1      -3.350  11.056  18.233  0.00  0.00    +0.000 A 
ATOM     21  C   UNL     1      -3.447  10.781  16.850  0.00  0.00    +0.000 A 
ATOM     22  C   UNL     1      -2.611   9.754  16.133  0.00  0.00    +0.000 C 
ATOM     23  C   UNL     1      -4.437  11.416  16.084  0.00  0.00    +0.000 A 
ATOM     24  C   UNL     1      -5.364  12.267  16.676  0.00  0.00    +0.000 A 
ATOM     25  C   UNL     1      -5.315  12.520  18.054  0.00  0.00    +0.000 A 
ATOM     26  C   UNL     1      -4.317  11.900  18.852  0.00  0.00    +0.000 A 
ATOM     27  C   UNL     1      -4.231  12.120  20.346  0.00  0.00    +0.000 C 
BRANCH  25  28
ATOM     28  C   UNL     1      -6.388  13.395  18.621  0.00  0.00    +0.000 C 
ATOM     29  O   UNL     1      -7.455  12.973  19.039  0.00  0.00    +0.000 OA
BRANCH  28  30
ATOM     30  O   UNL     1      -6.093  14.713  18.615  0.00  0.00    +0.000 OA
ATOM     31  H   UNL     1      -6.555  15.261  19.275  0.00  0.00    +0.000 HD
ENDBRANCH  28  30
ENDBRANCH  25  28
ENDBRANCH   3  20
TORSDOF 5
ENDMDL
MODEL 6
REMARK VINA RESULT:      -6.9      2.597      8.138
REMARK  Name = 
REMARK  8 active torsions:
REMARK  status: ('A' for Active; 'I' for Inactive)
REMARK    1  A    between atoms: C_1  and  C_2
REMARK    2  A    between atoms: C_9  and  O_10
REMARK    3  A    between atoms: C_14  and  C_15
REMARK    4  A    between atoms: N_17  and  C_18
REMARK    5  A    between atoms: C_19  and  C_20
REMARK    6  A    between atoms: C_23  and  C_24
REMARK    7  A    between atoms: C_24  and  O_26
REMARK    8  A    between atoms: C_27  and  C_28
REMARK                            x       y       z     vdW  Elec       q    Type
REMARK                         _______ _______ _______ _____ _____    ______ ____
ROOT
ATOM      1  C   UNL     1       1.764   6.257  20.132  0.00  0.00    +0.000 C 
ATOM      2  O   UNL     1       0.607   5.964  20.412  0.00  0.00    +0.000 OA
ATOM      3  N   UNL     1       2.228   7.561  19.949  0.00  0.00    +0.000 N 
ATOM      4  H   UNL     1       3.104   7.595  19.435  0.00  0.00    +0.000 HD
ENDROOT
BRANCH   1  17
ATOM      5  C   UNL     1       1.946   3.639  21.748  0.00  0.00    +0.000 C 
ATOM      6  C   UNL     1       2.894   4.011  20.649  0.00  0.00    +0.000 A 
ATOM      7  C   UNL     1       3.934   3.134  20.350  0.00  0.00    +0.000 A 
ATOM      8  C   UNL     1       4.824   3.435  19.327  0.00  0.00    +0.000 A 
ATOM      9  C   UNL     1       4.680   4.601  18.579  0.00  0.00    +0.000 A 
ATOM     10  N   UNL     1       5.556   4.886  17.550  0.00  0.00    +0.000 N 
ATOM     11  C   UNL     1       6.191   3.837  16.755  0.00  0.00    +0.000 C 
ATOM     12  C   UNL     1       5.799   3.996  15.290  0.00  0.00    +0.000 C 
ATOM     13  C   UNL     1       6.069   5.407  14.780  0.00  0.00    +0.000 C 
ATOM     14  C   UNL     1       5.444   6.472  15.684  0.00  0.00    +0.000 C 
ATOM     15  C   UNL     1       5.798   6.269  17.154  0.00  0.00    +0.000 C 
ATOM     16  N   UNL     1       3.686   5.474  18.864  0.00  0.00    +0.000 NA
ATOM     17  C   UNL     1       2.818   5.186  19.890  0.00  0.00    +0.000 A 
BRANCH  13  18
ATOM     18  O   UNL     1       7.472   5.622  14.631  0.00  0.00    +0.000 OA
ATOM     19  H   UNL     1       7.834   5.965  15.465  0.00  0.00    +0.000 HD
ENDBRANCH  13  18
ENDBRANCH   1  17
BRANCH   3  20
ATOM     20  C   UNL     1       1.416   8.727  20.006  0.00  0.00    +0.000 A 
ATOM     21  C   UNL     1       1.037   9.422  18.834  0.00  0.00    +0.000 A 
ATOM     22  C   UNL     1       1.329   8.942  17.437  0.00  0.00    +0.000 C 
ATOM     23  C   UNL     1       0.257  10.584  18.939  0.00  0.00    +0.000 A 
ATOM     24  C   UNL     1      -0.200  11.031  20.174  0.00  0.00    +0.000 A 
ATOM     25  C   UNL     1       0.126  10.333  21.345  0.00  0.00    +0.000 A 
ATOM     26  C   UNL     1       0.923   9.160  21.271  0.00  0.00    +0.000 A 
ATOM     27  C   UNL     1       1.287   8.356  22.499  0.00  0.00    +0.000 C 
BRANCH  25  28
ATOM     28  C   UNL     1      -0.460  10.843  22.623  0.00  0.00    +0.000 C 
ATOM     29  O   UNL     1      -0.392  12.009  22.982  0.00  0.00    +0.000 OA
BRANCH  28  30
ATOM     30  O   UNL     1      -1.061   9.897  23.377  0.00  0.00    +0.000 OA
ATOM     31  H   UNL     1      -1.465   9.154  22.894  0.00  0.00    +0.000 HD
ENDBRANCH  28  30
ENDBRANCH  25  28
ENDBRANCH   3  20
TORSDOF 5
ENDMDL
MODEL 7
REMARK VINA RESULT:      -6.9      1.949      8.438
REMARK  Name = 
REMARK  8 active torsions:
REMARK  status: ('A' for Active; 'I' for Inactive)
REMARK    1  A    between atoms: C_1  and  C_2
REMARK    2  A    between atoms: C_9  and  O_10
REMARK    3  A    between atoms: C_14  and  C_15
REMARK    4  A    between atoms: N_17  and  C_18
REMARK    5  A    between atoms: C_19  and  C_20
REMARK    6  A    between atoms: C_23  and  C_24
REMARK    7  A    between atoms: C_24  and  O_26
REMARK    8  A    between atoms: C_27  and  C_28
REMARK                            x       y       z     vdW  Elec       q    Type
REMARK                         _______ _______ _______ _____ _____    ______ ____
ROOT
ATOM      1  C   UNL     1       1.646   9.035  18.484  0.00  0.00    +0.000 C 
ATOM      2  O   UNL     1       2.083   9.681  17.538  0.00  0.00    +0.000 OA
ATOM      3  N   UNL     1       0.567   9.426  19.278  0.00  0.00    +0.000 N 
ATOM      4  H   UNL     1       0.544   8.942  20.172  0.00  0.00    +0.000 HD
ENDROOT
BRANCH   1  17
ATOM      5  C   UNL     1       0.813   7.472  21.006  0.00  0.00    +0.000 C 
ATOM      6  C   UNL     1       1.921   7.052  20.089  0.00  0.00    +0.000 A 
ATOM      7  C   UNL     1       2.634   5.897  20.404  0.00  0.00    +0.000 A 
ATOM      8  C   UNL     1       3.658   5.465  19.571  0.00  0.00    +0.000 A 
ATOM      9  C   UNL     1       3.973   6.165  18.409  0.00  0.00    +0.000 A 
ATOM     10  N   UNL     1       4.978   5.719  17.574  0.00  0.00    +0.000 N 
ATOM     11  C   UNL     1       5.297   4.301  17.426  0.00  0.00    +0.000 C 
ATOM     12  C   UNL     1       5.107   3.882  15.972  0.00  0.00    +0.000 C 
ATOM     13  C   UNL     1       5.871   4.791  15.015  0.00  0.00    +0.000 C 
ATOM     14  C   UNL     1       5.558   6.269  15.256  0.00  0.00    +0.000 C 
ATOM     15  C   UNL     1       5.698   6.662  16.724  0.00  0.00    +0.000 C 
ATOM     16  N   UNL     1       3.302   7.298  18.094  0.00  0.00    +0.000 NA
ATOM     17  C   UNL     1       2.303   7.737  18.929  0.00  0.00    +0.000 A 
BRANCH  13  18
ATOM     18  O   UNL     1       7.274   4.543  15.108  0.00  0.00    +0.000 OA
ATOM     19  H   UNL     1       7.706   5.305  15.527  0.00  0.00    +0.000 HD
ENDBRANCH  13  18
ENDBRANCH   1  17
BRANCH   3  20
ATOM     20  C   UNL     1      -0.142  10.650  19.140  0.00  0.00    +0.000 A 
ATOM     21  C   UNL     1      -1.134  10.823  18.148  0.00  0.00    +0.000 A 
ATOM     22  C   UNL     1      -1.628   9.722  17.247  0.00  0.00    +0.000 C 
ATOM     23  C   UNL     1      -1.791  12.059  18.031  0.00  0.00    +0.000 A 
ATOM     24  C   UNL     1      -1.522  13.099  18.914  0.00  0.00    +0.000 A 
ATOM     25  C   UNL     1      -0.573  12.936  19.934  0.00  0.00    +0.000 A 
ATOM     26  C   UNL     1       0.114  11.701  20.070  0.00  0.00    +0.000 A 
ATOM     27  C   UNL     1       1.130  11.462  21.163  0.00  0.00    +0.000 C 
BRANCH  25  28
ATOM     28  C   UNL     1      -0.392  14.080  20.880  0.00  0.00    +0.000 C 
ATOM     29  O   UNL     1       0.473  14.933  20.754  0.00  0.00    +0.000 OA
BRANCH  28  30
ATOM     30  O   UNL     1      -1.258  14.087  21.917  0.00  0.00    +0.000 OA
ATOM     31  H   UNL     1      -1.167  13.362  22.560  0.00  0.00    +0.000 HD
ENDBRANCH  28  30
ENDBRANCH  25  28
ENDBRANCH   3  20
TORSDOF 5
ENDMDL
MODEL 8
REMARK VINA RESULT:      -6.8      1.897      8.646
REMARK  Name = 
REMARK  8 active torsions:
REMARK  status: ('A' for Active; 'I' for Inactive)
REMARK    1  A    between atoms: C_1  and  C_2
REMARK    2  A    between atoms: C_9  and  O_10
REMARK    3  A    between atoms: C_14  and  C_15
REMARK    4  A    between atoms: N_17  and  C_18
REMARK    5  A    between atoms: C_19  and  C_20
REMARK    6  A    between atoms: C_23  and  C_24
REMARK    7  A    between atoms: C_24  and  O_26
REMARK    8  A    between atoms: C_27  and  C_28
REMARK                            x       y       z     vdW  Elec       q    Type
REMARK                         _______ _______ _______ _____ _____    ______ ____
ROOT
ATOM      1  C   UNL     1       1.226   9.299  18.864  0.00  0.00    +0.000 C 
ATOM      2  O   UNL     1       0.684   9.421  17.771  0.00  0.00    +0.000 OA
ATOM      3  N   UNL     1       1.375  10.329  19.793  0.00  0.00    +0.000 N 
ATOM      4  H   UNL     1       2.096  10.133  20.483  0.00  0.00    +0.000 HD
ENDROOT
BRANCH   1  17
ATOM      5  C   UNL     1       0.335   7.695  21.340  0.00  0.00    +0.000 C 
ATOM      6  C   UNL     1       1.452   7.280  20.432  0.00  0.00    +0.000 A 
ATOM      7  C   UNL     1       2.147   6.110  20.733  0.00  0.00    +0.000 A 
ATOM      8  C   UNL     1       3.179   5.683  19.908  0.00  0.00    +0.000 A 
ATOM      9  C   UNL     1       3.520   6.403  18.766  0.00  0.00    +0.000 A 
ATOM     10  N   UNL     1       4.533   5.962  17.937  0.00  0.00    +0.000 N 
ATOM     11  C   UNL     1       4.837   4.544  17.765  0.00  0.00    +0.000 C 
ATOM     12  C   UNL     1       4.666   4.157  16.299  0.00  0.00    +0.000 C 
ATOM     13  C   UNL     1       5.456   5.076  15.373  0.00  0.00    +0.000 C 
ATOM     14  C   UNL     1       5.156   6.553  15.641  0.00  0.00    +0.000 C 
ATOM     15  C   UNL     1       5.277   6.913  17.118  0.00  0.00    +0.000 C 
ATOM     16  N   UNL     1       2.868   7.550  18.464  0.00  0.00    +0.000 NA
ATOM     17  C   UNL     1       1.861   7.984  19.292  0.00  0.00    +0.000 A 
BRANCH  13  18
ATOM     18  O   UNL     1       6.854   4.809  15.484  0.00  0.00    +0.000 OA
ATOM     19  H   UNL     1       7.301   5.107  14.675  0.00  0.00    +0.000 HD
ENDBRANCH  13  18
ENDBRANCH   1  17
BRANCH   3  20
ATOM     20  C   UNL     1       0.972  11.677  19.583  0.00  0.00    +0.000 A 
ATOM     21  C   UNL     1       1.696  12.541  18.730  0.00  0.00    +0.000 A 
ATOM     22  C   UNL     1       2.855  12.106  17.874  0.00  0.00    +0.000 C 
ATOM     23  C   UNL     1       1.276  13.872  18.573  0.00  0.00    +0.000 A 
ATOM     24  C   UNL     1       0.125  14.338  19.198  0.00  0.00    +0.000 A 
ATOM     25  C   UNL     1      -0.634  13.486  20.014  0.00  0.00    +0.000 A 
ATOM     26  C   UNL     1      -0.228  12.138  20.200  0.00  0.00    +0.000 A 
ATOM     27  C   UNL     1      -1.019  11.171  21.051  0.00  0.00    +0.000 C 
BRANCH  25  28
ATOM     28  C   UNL     1      -1.892  14.048  20.595  0.00  0.00    +0.000 C 
ATOM     29  O   UNL     1      -1.929  14.709  21.622  0.00  0.00    +0.000 OA
BRANCH  28  30
ATOM     30  O   UNL     1      -3.010  13.746  19.899  0.00  0.00    +0.000 OA
ATOM     31  H   UNL     1      -2.876  13.329  19.029  0.00  0.00    +0.000 HD
ENDBRANCH  28  30
ENDBRANCH  25  28
ENDBRANCH   3  20
TORSDOF 5
ENDMDL
MODEL 9
REMARK VINA RESULT:      -6.8      1.329      1.660
REMARK  Name = 
REMARK  8 active torsions:
REMARK  status: ('A' for Active; 'I' for Inactive)
REMARK    1  A    between atoms: C_1  and  C_2
REMARK    2  A    between atoms: C_9  and  O_10
REMARK    3  A    between atoms: C_14  and  C_15
REMARK    4  A    between atoms: N_17  and  C_18
REMARK    5  A    between atoms: C_19  and  C_20
REMARK    6  A    between atoms: C_23  and  C_24
REMARK    7  A    between atoms: C_24  and  O_26
REMARK    8  A    between atoms: C_27  and  C_28
REMARK                            x       y       z     vdW  Elec       q    Type
REMARK                         _______ _______ _______ _____ _____    ______ ____
ROOT
ATOM      1  C   UNL     1       1.526   8.318  18.914  0.00  0.00    +0.000 C 
ATOM      2  O   UNL     1       1.129   8.183  17.762  0.00  0.00    +0.000 OA
ATOM      3  N   UNL     1       2.352   7.410  19.578  0.00  0.00    +0.000 N 
ATOM      4  H   UNL     1       2.325   7.523  20.588  0.00  0.00    +0.000 HD
ENDROOT
BRANCH   1  17
ATOM      5  C   UNL     1      -0.220   8.040  21.439  0.00  0.00    +0.000 C 
ATOM      6  C   UNL     1       0.278   9.349  20.906  0.00  0.00    +0.000 A 
ATOM      7  C   UNL     1      -0.085  10.515  21.577  0.00  0.00    +0.000 A 
ATOM      8  C   UNL     1       0.369  11.747  21.124  0.00  0.00    +0.000 A 
ATOM      9  C   UNL     1       1.202  11.832  20.011  0.00  0.00    +0.000 A 
ATOM     10  N   UNL     1       1.667  13.058  19.577  0.00  0.00    +0.000 N 
ATOM     11  C   UNL     1       1.915  14.166  20.496  0.00  0.00    +0.000 C 
ATOM     12  C   UNL     1       3.384  14.572  20.425  0.00  0.00    +0.000 C 
ATOM     13  C   UNL     1       3.829  14.844  18.992  0.00  0.00    +0.000 C 
ATOM     14  C   UNL     1       3.484  13.685  18.055  0.00  0.00    +0.000 C 
ATOM     15  C   UNL     1       2.025  13.253  18.176  0.00  0.00    +0.000 C 
ATOM     16  N   UNL     1       1.554  10.713  19.336  0.00  0.00    +0.000 NA
ATOM     17  C   UNL     1       1.087   9.496  19.772  0.00  0.00    +0.000 A 
BRANCH  13  18
ATOM     18  O   UNL     1       3.266  16.068  18.521  0.00  0.00    +0.000 OA
ATOM     19  H   UNL     1       3.446  16.772  19.165  0.00  0.00    +0.000 HD
ENDBRANCH  13  18
ENDBRANCH   1  17
BRANCH   3  20
ATOM     20  C   UNL     1       2.804   6.176  19.035  0.00  0.00    +0.000 A 
ATOM     21  C   UNL     1       2.229   4.944  19.420  0.00  0.00    +0.000 A 
ATOM     22  C   UNL     1       1.024   4.817  20.315  0.00  0.00    +0.000 C 
ATOM     23  C   UNL     1       2.724   3.747  18.877  0.00  0.00    +0.000 A 
ATOM     24  C   UNL     1       3.735   3.759  17.922  0.00  0.00    +0.000 A 
ATOM     25  C   UNL     1       4.291   4.972  17.492  0.00  0.00    +0.000 A 
ATOM     26  C   UNL     1       3.817   6.198  18.031  0.00  0.00    +0.000 A 
ATOM     27  C   UNL     1       4.364   7.536  17.589  0.00  0.00    +0.000 C 
BRANCH  25  28
ATOM     28  C   UNL     1       5.325   4.900  16.415  0.00  0.00    +0.000 C 
ATOM     29  O   UNL     1       5.253   5.519  15.364  0.00  0.00    +0.000 OA
BRANCH  28  30
ATOM     30  O   UNL     1       6.353   4.066  16.685  0.00  0.00    +0.000 OA
ATOM     31  H   UNL     1       6.576   3.419  15.992  0.00  0.00    +0.000 HD
ENDBRANCH  28  30
ENDBRANCH  25  28
ENDBRANCH   3  20
TORSDOF 5
ENDMDL
