MODEL 1
REMARK VINA RESULT:      -7.9      0.000      0.000
REMARK  Name = 
REMARK  10 active torsions:
REMARK  status: ('A' for Active; 'I' for Inactive)
REMARK    1  A    between atoms: C_1  and  O_2
REMARK    2  A    between atoms: O_2  and  C_3
REMARK    3  A    between atoms: C_5  and  C_6
REMARK    4  A    between atoms: C_7  and  C_8
REMARK    5  A    between atoms: N_10  and  C_11
REMARK    6  A    between atoms: C_11  and  C_12
REMARK    7  A    between atoms: C_12  and  C_13
REMARK    8  A    between atoms: C_20  and  O_21
REMARK    9  A    between atoms: O_21  and  C_22
REMARK   10  A    between atoms: C_23  and  O_24
REMARK                            x       y       z     vdW  Elec       q    Type
REMARK                         _______ _______ _______ _____ _____    ______ ____
ROOT
ATOM      1  C   UNL     1       2.467   6.769  18.241  0.00  0.00    +0.000 C 
ATOM      2  C   UNL     1       2.323   7.870  19.005  0.00  0.00    +0.000 C 
ENDROOT
BRANCH   1   5
ATOM      3  C   UNL     1       5.169   4.193  18.905  0.00  0.00    +0.000 A 
ATOM      4  C   UNL     1       4.494   5.354  18.486  0.00  0.00    +0.000 A 
ATOM      5  C   UNL     1       3.114   5.517  18.677  0.00  0.00    +0.000 A 
ATOM      6  C   UNL     1       2.416   4.490  19.319  0.00  0.00    +0.000 A 
ATOM      7  C   UNL     1       3.063   3.321  19.746  0.00  0.00    +0.000 A 
ATOM      8  C   UNL     1       4.442   3.172  19.535  0.00  0.00    +0.000 A 
BRANCH   3  10
ATOM      9  C   UNL     1       7.036   5.369  17.953  0.00  0.00    +0.000 C 
ATOM     10  O   UNL     1       6.501   4.211  18.577  0.00  0.00    +0.000 OA
ENDBRANCH   3  10
BRANCH   7  11
ATOM     11  O   UNL     1       2.215   2.362  20.239  0.00  0.00    +0.000 OA
ATOM     12  C   UNL     1       1.462   2.687  21.404  0.00  0.00    +0.000 C 
ENDBRANCH   7  11
BRANCH   8  13
ATOM     13  O   UNL     1       5.061   2.005  19.888  0.00  0.00    +0.000 OA
ATOM     14  H   UNL     1       4.348   1.371  20.071  0.00  0.00    +0.000 HD
ENDBRANCH   8  13
ENDBRANCH   1   5
BRANCH   2  15
ATOM     15  C   UNL     1       1.671   9.088  18.442  0.00  0.00    +0.000 C 
ATOM     16  O   UNL     1       1.934   9.514  17.326  0.00  0.00    +0.000 OA
ATOM     17  N   UNL     1       0.756   9.667  19.289  0.00  0.00    +0.000 N 
ATOM     18  H   UNL     1       0.574   9.264  20.198  0.00  0.00    +0.000 HD
BRANCH  17  19
ATOM     19  C   UNL     1       0.035  10.867  18.887  0.00  0.00    +0.000 C 
BRANCH  19  20
ATOM     20  C   UNL     1      -1.461  10.811  19.210  0.00  0.00    +0.000 C 
BRANCH  20  21
ATOM     21  C   UNL     1      -2.314  10.761  17.962  0.00  0.00    +0.000 A 
ATOM     22  C   UNL     1      -3.501  11.501  17.878  0.00  0.00    +0.000 A 
ATOM     23  C   UNL     1      -4.298  11.436  16.732  0.00  0.00    +0.000 A 
ATOM     24  C   UNL     1      -3.921  10.628  15.662  0.00  0.00    +0.000 A 
ATOM     25  C   UNL     1      -2.744   9.886  15.736  0.00  0.00    +0.000 A 
ATOM     26  C   UNL     1      -1.945   9.949  16.880  0.00  0.00    +0.000 A 
ENDBRANCH  20  21
ENDBRANCH  19  20
ENDBRANCH  17  19
ENDBRANCH   2  15
TORSDOF 8
ENDMDL
MODEL 2
REMARK VINA RESULT:      -7.8      0.708      1.212
REMARK  Name = 
REMARK  10 active torsions:
REMARK  status: ('A' for Active; 'I' for Inactive)
REMARK    1  A    between atoms: C_1  and  O_2
REMARK    2  A    between atoms: O_2  and  C_3
REMARK    3  A    between atoms: C_5  and  C_6
REMARK    4  A    between atoms: C_7  and  C_8
REMARK    5  A    between atoms: N_10  and  C_11
REMARK    6  A    between atoms: C_11  and  C_12
REMARK    7  A    between atoms: C_12  and  C_13
REMARK    8  A    between atoms: C_20  and  O_21
REMARK    9  A    between atoms: O_21  and  C_22
REMARK   10  A    between atoms: C_23  and  O_24
REMARK                            x       y       z     vdW  Elec       q    Type
REMARK                         _______ _______ _______ _____ _____    ______ ____
ROOT
ATOM      1  C   UNL     1       2.660   7.142  18.047  0.00  0.00    +0.000 C 
ATOM      2  C   UNL     1       2.168   8.030  18.933  0.00  0.00    +0.000 C 
ENDROOT
BRANCH   1   5
ATOM      3  C   UNL     1       5.224   4.566  19.128  0.00  0.00    +0.000 A 
ATOM      4  C   UNL     1       4.610   5.776  18.759  0.00  0.00    +0.000 A 
ATOM      5  C   UNL     1       3.256   5.838  18.399  0.00  0.00    +0.000 A 
ATOM      6  C   UNL     1       2.514   4.654  18.432  0.00  0.00    +0.000 A 
ATOM      7  C   UNL     1       3.101   3.434  18.796  0.00  0.00    +0.000 A 
ATOM      8  C   UNL     1       4.460   3.390  19.142  0.00  0.00    +0.000 A 
BRANCH   3  10
ATOM      9  C   UNL     1       7.445   4.996  18.314  0.00  0.00    +0.000 C 
ATOM     10  O   UNL     1       6.562   4.714  19.391  0.00  0.00    +0.000 OA
ENDBRANCH   3  10
BRANCH   7  11
ATOM     11  O   UNL     1       2.270   2.351  18.654  0.00  0.00    +0.000 OA
ATOM     12  C   UNL     1       1.026   2.381  19.346  0.00  0.00    +0.000 C 
ENDBRANCH   7  11
BRANCH   8  13
ATOM     13  O   UNL     1       5.050   2.191  19.428  0.00  0.00    +0.000 OA
ATOM     14  H   UNL     1       4.921   2.051  20.381  0.00  0.00    +0.000 HD
ENDBRANCH   8  13
ENDBRANCH   1   5
BRANCH   2  15
ATOM     15  C   UNL     1       1.613   9.330  18.456  0.00  0.00    +0.000 C 
ATOM     16  O   UNL     1       2.041   9.898  17.462  0.00  0.00    +0.000 OA
ATOM     17  N   UNL     1       0.584   9.809  19.232  0.00  0.00    +0.000 N 
ATOM     18  H   UNL     1       0.266   9.290  20.039  0.00  0.00    +0.000 HD
BRANCH  17  19
ATOM     19  C   UNL     1      -0.064  11.071  18.900  0.00  0.00    +0.000 C 
BRANCH  19  20
ATOM     20  C   UNL     1      -1.568  11.074  19.191  0.00  0.00    +0.000 C 
BRANCH  20  21
ATOM     21  C   UNL     1      -2.392  10.869  17.939  0.00  0.00    +0.000 A 
ATOM     22  C   UNL     1      -1.928  10.046  16.904  0.00  0.00    +0.000 A 
ATOM     23  C   UNL     1      -2.682   9.876  15.740  0.00  0.00    +0.000 A 
ATOM     24  C   UNL     1      -3.904  10.529  15.597  0.00  0.00    +0.000 A 
ATOM     25  C   UNL     1      -4.375  11.351  16.618  0.00  0.00    +0.000 A 
ATOM     26  C   UNL     1      -3.624  11.523  17.783  0.00  0.00    +0.000 A 
ENDBRANCH  20  21
ENDBRANCH  19  20
ENDBRANCH  17  19
ENDBRANCH   2  15
TORSDOF 8
ENDMDL
MODEL 3
REMARK VINA RESULT:      -7.4      5.803      9.041
REMARK  Name = 
REMARK  10 active torsions:
REMARK  status: ('A' for Active; 'I' for Inactive)
REMARK    1  A    between atoms: C_1  and  O_2
REMARK    2  A    between atoms: O_2  and  C_3
REMARK    3  A    between atoms: C_5  and  C_6
REMARK    4  A    between atoms: C_7  and  C_8
REMARK    5  A    between atoms: N_10  and  C_11
REMARK    6  A    between atoms: C_11  and  C_12
REMARK    7  A    between atoms: C_12  and  C_13
REMARK    8  A    between atoms: C_20  and  O_21
REMARK    9  A    between atoms: O_21  and  C_22
REMARK   10  A    between atoms: C_23  and  O_24
REMARK                            x       y       z     vdW  Elec       q    Type
REMARK                         _______ _______ _______ _____ _____    ______ ____
ROOT
ATOM      1  C   UNL     1       8.243   9.156  17.811  0.00  0.00    +0.000 C 
ATOM      2  C   UNL     1       8.173   7.859  18.171  0.00  0.00    +0.000 C 
ENDROOT
BRANCH   1   5
ATOM      3  C   UNL     1      10.815  11.891  18.343  0.00  0.00    +0.000 A 
ATOM      4  C   UNL     1      10.024  10.887  17.755  0.00  0.00    +0.000 A 
ATOM      5  C   UNL     1       9.061  10.180  18.489  0.00  0.00    +0.000 A 
ATOM      6  C   UNL     1       8.888  10.513  19.836  0.00  0.00    +0.000 A 
ATOM      7  C   UNL     1       9.663  11.510  20.447  0.00  0.00    +0.000 A 
ATOM      8  C   UNL     1      10.629  12.198  19.699  0.00  0.00    +0.000 A 
BRANCH   3  10
ATOM      9  C   UNL     1      11.373  13.575  16.721  0.00  0.00    +0.000 C 
ATOM     10  O   UNL     1      11.729  12.420  17.468  0.00  0.00    +0.000 OA
ENDBRANCH   3  10
BRANCH   7  11
ATOM     11  O   UNL     1       9.458  11.624  21.799  0.00  0.00    +0.000 OA
ATOM     12  C   UNL     1       8.635  12.694  22.251  0.00  0.00    +0.000 C 
ENDBRANCH   7  11
BRANCH   8  13
ATOM     13  O   UNL     1      11.432  13.120  20.310  0.00  0.00    +0.000 OA
ATOM     14  H   UNL     1      12.228  13.189  19.757  0.00  0.00    +0.000 HD
ENDBRANCH   8  13
ENDBRANCH   1   5
BRANCH   2  15
ATOM     15  C   UNL     1       7.287   6.923  17.421  0.00  0.00    +0.000 C 
ATOM     16  O   UNL     1       7.562   6.520  16.299  0.00  0.00    +0.000 OA
ATOM     17  N   UNL     1       6.154   6.561  18.111  0.00  0.00    +0.000 N 
ATOM     18  H   UNL     1       5.985   6.920  19.040  0.00  0.00    +0.000 HD
BRANCH  17  19
ATOM     19  C   UNL     1       5.185   5.654  17.512  0.00  0.00    +0.000 C 
BRANCH  19  20
ATOM     20  C   UNL     1       3.737   5.976  17.896  0.00  0.00    +0.000 C 
BRANCH  20  21
ATOM     21  C   UNL     1       2.924   4.727  18.156  0.00  0.00    +0.000 A 
ATOM     22  C   UNL     1       1.936   4.712  19.151  0.00  0.00    +0.000 A 
ATOM     23  C   UNL     1       1.202   3.551  19.404  0.00  0.00    +0.000 A 
ATOM     24  C   UNL     1       1.448   2.393  18.669  0.00  0.00    +0.000 A 
ATOM     25  C   UNL     1       2.428   2.396  17.680  0.00  0.00    +0.000 A 
ATOM     26  C   UNL     1       3.165   3.555  17.424  0.00  0.00    +0.000 A 
ENDBRANCH  20  21
ENDBRANCH  19  20
ENDBRANCH  17  19
ENDBRANCH   2  15
TORSDOF 8
ENDMDL
MODEL 4
REMARK VINA RESULT:      -7.4      1.736      2.165
REMARK  Name = 
REMARK  10 active torsions:
REMARK  status: ('A' for Active; 'I' for Inactive)
REMARK    1  A    between atoms: C_1  and  O_2
REMARK    2  A    between atoms: O_2  and  C_3
REMARK    3  A    between atoms: C_5  and  C_6
REMARK    4  A    between atoms: C_7  and  C_8
REMARK    5  A    between atoms: N_10  and  C_11
REMARK    6  A    between atoms: C_11  and  C_12
REMARK    7  A    between atoms: C_12  and  C_13
REMARK    8  A    between atoms: C_20  and  O_21
REMARK    9  A    between atoms: O_21  and  C_22
REMARK   10  A    between atoms: C_23  and  O_24
REMARK                            x       y       z     vdW  Elec       q    Type
REMARK                         _______ _______ _______ _____ _____    ______ ____
ROOT
ATOM      1  C   UNL     1       2.390   7.321  18.707  0.00  0.00    +0.000 C 
ATOM      2  C   UNL     1       2.114   8.533  18.185  0.00  0.00    +0.000 C 
ENDROOT
BRANCH   1   5
ATOM      3  C   UNL     1       5.282   5.719  16.849  0.00  0.00    +0.000 A 
ATOM      4  C   UNL     1       4.435   6.663  17.460  0.00  0.00    +0.000 A 
ATOM      5  C   UNL     1       3.223   6.290  18.058  0.00  0.00    +0.000 A 
ATOM      6  C   UNL     1       2.877   4.936  18.049  0.00  0.00    +0.000 A 
ATOM      7  C   UNL     1       3.702   3.974  17.448  0.00  0.00    +0.000 A 
ATOM      8  C   UNL     1       4.905   4.368  16.844  0.00  0.00    +0.000 A 
BRANCH   3  10
ATOM      9  C   UNL     1       7.430   6.761  17.125  0.00  0.00    +0.000 C 
ATOM     10  O   UNL     1       6.388   6.296  16.279  0.00  0.00    +0.000 OA
ENDBRANCH   3  10
BRANCH   7  11
ATOM     11  O   UNL     1       3.157   2.715  17.414  0.00  0.00    +0.000 OA
ATOM     12  C   UNL     1       1.975   2.490  18.175  0.00  0.00    +0.000 C 
ENDBRANCH   7  11
BRANCH   8  13
ATOM     13  O   UNL     1       5.675   3.443  16.196  0.00  0.00    +0.000 OA
ATOM     14  H   UNL     1       5.770   3.766  15.285  0.00  0.00    +0.000 HD
ENDBRANCH   8  13
ENDBRANCH   1   5
BRANCH   2  15
ATOM     15  C   UNL     1       1.236   9.482  18.928  0.00  0.00    +0.000 C 
ATOM     16  O   UNL     1       1.026   9.376  20.129  0.00  0.00    +0.000 OA
ATOM     17  N   UNL     1       0.702  10.474  18.140  0.00  0.00    +0.000 N 
ATOM     18  H   UNL     1       0.919  10.515  17.153  0.00  0.00    +0.000 HD
BRANCH  17  19
ATOM     19  C   UNL     1      -0.180  11.479  18.717  0.00  0.00    +0.000 C 
BRANCH  19  20
ATOM     20  C   UNL     1      -1.579  10.943  19.039  0.00  0.00    +0.000 C 
BRANCH  20  21
ATOM     21  C   UNL     1      -2.439  10.810  17.803  0.00  0.00    +0.000 A 
ATOM     22  C   UNL     1      -2.069   9.945  16.763  0.00  0.00    +0.000 A 
ATOM     23  C   UNL     1      -2.854   9.841  15.613  0.00  0.00    +0.000 A 
ATOM     24  C   UNL     1      -4.015  10.602  15.487  0.00  0.00    +0.000 A 
ATOM     25  C   UNL     1      -4.392  11.465  16.512  0.00  0.00    +0.000 A 
ATOM     26  C   UNL     1      -3.609  11.572  17.664  0.00  0.00    +0.000 A 
ENDBRANCH  20  21
ENDBRANCH  19  20
ENDBRANCH  17  19
ENDBRANCH   2  15
TORSDOF 8
ENDMDL
MODEL 5
REMARK VINA RESULT:      -7.3      1.071      1.071
REMARK  Name = 
REMARK  10 active torsions:
REMARK  status: ('A' for Active; 'I' for Inactive)
REMARK    1  A    between atoms: C_1  and  O_2
REMARK    2  A    between atoms: O_2  and  C_3
REMARK    3  A    between atoms: C_5  and  C_6
REMARK    4  A    between atoms: C_7  and  C_8
REMARK    5  A    between atoms: N_10  and  C_11
REMARK    6  A    between atoms: C_11  and  C_12
REMARK    7  A    between atoms: C_12  and  C_13
REMARK    8  A    between atoms: C_20  and  O_21
REMARK    9  A    between atoms: O_21  and  C_22
REMARK   10  A    between atoms: C_23  and  O_24
REMARK                            x       y       z     vdW  Elec       q    Type
REMARK                         _______ _______ _______ _____ _____    ______ ____
ROOT
ATOM      1  C   UNL     1       1.948   6.819  17.967  0.00  0.00    +0.000 C 
ATOM      2  C   UNL     1       2.519   7.948  18.434  0.00  0.00    +0.000 C 
ENDROOT
BRANCH   1   5
ATOM      3  C   UNL     1       4.299   3.869  17.588  0.00  0.00    +0.000 A 
ATOM      4  C   UNL     1       3.705   5.138  17.461  0.00  0.00    +0.000 A 
ATOM      5  C   UNL     1       2.508   5.463  18.116  0.00  0.00    +0.000 A 
ATOM      6  C   UNL     1       1.918   4.487  18.925  0.00  0.00    +0.000 A 
ATOM      7  C   UNL     1       2.489   3.214  19.069  0.00  0.00    +0.000 A 
ATOM      8  C   UNL     1       3.680   2.904  18.397  0.00  0.00    +0.000 A 
BRANCH   3  10
ATOM      9  C   UNL     1       5.414   4.211  15.487  0.00  0.00    +0.000 C 
ATOM     10  O   UNL     1       5.433   3.740  16.827  0.00  0.00    +0.000 OA
ENDBRANCH   3  10
BRANCH   7  11
ATOM     11  O   UNL     1       1.720   2.337  19.792  0.00  0.00    +0.000 OA
ATOM     12  C   UNL     1       1.676   2.511  21.205  0.00  0.00    +0.000 C 
ENDBRANCH   7  11
BRANCH   8  13
ATOM     13  O   UNL     1       4.199   1.643  18.480  0.00  0.00    +0.000 OA
ATOM     14  H   UNL     1       3.439   1.038  18.436  0.00  0.00    +0.000 HD
ENDBRANCH   8  13
ENDBRANCH   1   5
BRANCH   2  15
ATOM     15  C   UNL     1       1.867   9.267  18.197  0.00  0.00    +0.000 C 
ATOM     16  O   UNL     1       2.187   9.999  17.271  0.00  0.00    +0.000 OA
ATOM     17  N   UNL     1       0.882   9.567  19.108  0.00  0.00    +0.000 N 
ATOM     18  H   UNL     1       0.655   8.919  19.849  0.00  0.00    +0.000 HD
BRANCH  17  19
ATOM     19  C   UNL     1       0.150  10.824  19.015  0.00  0.00    +0.000 C 
BRANCH  19  20
ATOM     20  C   UNL     1      -1.341  10.681  19.339  0.00  0.00    +0.000 C 
BRANCH  20  21
ATOM     21  C   UNL     1      -2.200  10.700  18.095  0.00  0.00    +0.000 A 
ATOM     22  C   UNL     1      -3.357  11.490  18.037  0.00  0.00    +0.000 A 
ATOM     23  C   UNL     1      -4.160  11.488  16.894  0.00  0.00    +0.000 A 
ATOM     24  C   UNL     1      -3.820  10.695  15.800  0.00  0.00    +0.000 A 
ATOM     25  C   UNL     1      -2.675   9.904  15.848  0.00  0.00    +0.000 A 
ATOM     26  C   UNL     1      -1.869   9.904  16.989  0.00  0.00    +0.000 A 
ENDBRANCH  20  21
ENDBRANCH  19  20
ENDBRANCH  17  19
ENDBRANCH   2  15
TORSDOF 8
ENDMDL
MODEL 6
REMARK VINA RESULT:      -7.3      5.965      9.493
REMARK  Name = 
REMARK  10 active torsions:
REMARK  status: ('A' for Active; 'I' for Inactive)
REMARK    1  A    between atoms: C_1  and  O_2
REMARK    2  A    between atoms: O_2  and  C_3
REMARK    3  A    between atoms: C_5  and  C_6
REMARK    4  A    between atoms: C_7  and  C_8
REMARK    5  A    between atoms: N_10  and  C_11
REMARK    6  A    between atoms: C_11  and  C_12
REMARK    7  A    between atoms: C_12  and  C_13
REMARK    8  A    between atoms: C_20  and  O_21
REMARK    9  A    between atoms: O_21  and  C_22
REMARK   10  A    between atoms: C_23  and  O_24
REMARK                            x       y       z     vdW  Elec       q    Type
REMARK                         _______ _______ _______ _____ _____    ______ ____
ROOT
ATOM      1  C   UNL     1       8.791   9.039  18.560  0.00  0.00    +0.000 C 
ATOM      2  C   UNL     1       7.785   8.780  17.701  0.00  0.00    +0.000 C 
ENDROOT
BRANCH   1   5
ATOM      3  C   UNL     1      10.059  12.598  18.241  0.00  0.00    +0.000 A 
ATOM      4  C   UNL     1       9.635  11.291  17.939  0.00  0.00    +0.000 A 
ATOM      5  C   UNL     1       9.253  10.387  18.941  0.00  0.00    +0.000 A 
ATOM      6  C   UNL     1       9.287  10.827  20.267  0.00  0.00    +0.000 A 
ATOM      7  C   UNL     1       9.706  12.124  20.597  0.00  0.00    +0.000 A 
ATOM      8  C   UNL     1      10.095  13.010  19.581  0.00  0.00    +0.000 A 
BRANCH   3  10
ATOM      9  C   UNL     1      11.816  13.368  16.793  0.00  0.00    +0.000 C 
ATOM     10  O   UNL     1      10.437  13.300  17.125  0.00  0.00    +0.000 OA
ENDBRANCH   3  10
BRANCH   7  11
ATOM     11  O   UNL     1       9.803  12.352  21.946  0.00  0.00    +0.000 OA
ATOM     12  C   UNL     1       8.636  12.810  22.622  0.00  0.00    +0.000 C 
ENDBRANCH   7  11
BRANCH   8  13
ATOM     13  O   UNL     1      10.569  14.250  19.906  0.00  0.00    +0.000 OA
ATOM     14  H   UNL     1       9.853  14.872  19.698  0.00  0.00    +0.000 HD
ENDBRANCH   8  13
ENDBRANCH   1   5
BRANCH   2  15
ATOM     15  C   UNL     1       7.427   7.370  17.375  0.00  0.00    +0.000 C 
ATOM     16  O   UNL     1       7.865   6.794  16.389  0.00  0.00    +0.000 OA
ATOM     17  N   UNL     1       6.574   6.792  18.286  0.00  0.00    +0.000 N 
ATOM     18  H   UNL     1       6.251   7.315  19.088  0.00  0.00    +0.000 HD
BRANCH  17  19
ATOM     19  C   UNL     1       6.126   5.417  18.107  0.00  0.00    +0.000 C 
BRANCH  19  20
ATOM     20  C   UNL     1       5.300   4.893  19.286  0.00  0.00    +0.000 C 
BRANCH  20  21
ATOM     21  C   UNL     1       4.105   4.085  18.832  0.00  0.00    +0.000 A 
ATOM     22  C   UNL     1       3.010   4.711  18.219  0.00  0.00    +0.000 A 
ATOM     23  C   UNL     1       1.898   3.965  17.820  0.00  0.00    +0.000 A 
ATOM     24  C   UNL     1       1.866   2.588  18.032  0.00  0.00    +0.000 A 
ATOM     25  C   UNL     1       2.947   1.956  18.641  0.00  0.00    +0.000 A 
ATOM     26  C   UNL     1       4.061   2.699  19.042  0.00  0.00    +0.000 A 
ENDBRANCH  20  21
ENDBRANCH  19  20
ENDBRANCH  17  19
ENDBRANCH   2  15
TORSDOF 8
ENDMDL
MODEL 7
REMARK VINA RESULT:      -7.3      0.900      2.809
REMARK  Name = 
REMARK  10 active torsions:
REMARK  status: ('A' for Active; 'I' for Inactive)
REMARK    1  A    between atoms: C_1  and  O_2
REMARK    2  A    between atoms: O_2  and  C_3
REMARK    3  A    between atoms: C_5  and  C_6
REMARK    4  A    between atoms: C_7  and  C_8
REMARK    5  A    between atoms: N_10  and  C_11
REMARK    6  A    between atoms: C_11  and  C_12
REMARK    7  A    between atoms: C_12  and  C_13
REMARK    8  A    between atoms: C_20  and  O_21
REMARK    9  A    between atoms: O_21  and  C_22
REMARK   10  A    between atoms: C_23  and  O_24
REMARK                            x       y       z     vdW  Elec       q    Type
REMARK                         _______ _______ _______ _____ _____    ______ ____
ROOT
ATOM      1  C   UNL     1       2.196   6.722  18.207  0.00  0.00    +0.000 C 
ATOM      2  C   UNL     1       2.509   7.919  18.742  0.00  0.00    +0.000 C 
ENDROOT
BRANCH   1   5
ATOM      3  C   UNL     1       3.229   3.533  19.981  0.00  0.00    +0.000 A 
ATOM      4  C   UNL     1       2.606   4.756  19.670  0.00  0.00    +0.000 A 
ATOM      5  C   UNL     1       2.902   5.457  18.492  0.00  0.00    +0.000 A 
ATOM      6  C   UNL     1       3.830   4.896  17.611  0.00  0.00    +0.000 A 
ATOM      7  C   UNL     1       4.465   3.679  17.896  0.00  0.00    +0.000 A 
ATOM      8  C   UNL     1       4.166   2.998  19.085  0.00  0.00    +0.000 A 
BRANCH   3  10
ATOM      9  C   UNL     1       1.462   2.780  21.426  0.00  0.00    +0.000 C 
ATOM     10  O   UNL     1       2.840   3.041  21.201  0.00  0.00    +0.000 OA
ENDBRANCH   3  10
BRANCH   7  11
ATOM     11  O   UNL     1       5.440   3.334  16.993  0.00  0.00    +0.000 OA
ATOM     12  C   UNL     1       5.559   4.129  15.818  0.00  0.00    +0.000 C 
ENDBRANCH   7  11
BRANCH   8  13
ATOM     13  O   UNL     1       4.835   1.848  19.397  0.00  0.00    +0.000 OA
ATOM     14  H   UNL     1       5.444   2.081  20.118  0.00  0.00    +0.000 HD
ENDBRANCH   8  13
ENDBRANCH   1   5
BRANCH   2  15
ATOM     15  C   UNL     1       1.735   9.133  18.355  0.00  0.00    +0.000 C 
ATOM     16  O   UNL     1       1.857   9.666  17.260  0.00  0.00    +0.000 OA
ATOM     17  N   UNL     1       0.881   9.580  19.335  0.00  0.00    +0.000 N 
ATOM     18  H   UNL     1       0.816   9.093  20.218  0.00  0.00    +0.000 HD
BRANCH  17  19
ATOM     19  C   UNL     1       0.056  10.760  19.112  0.00  0.00    +0.000 C 
BRANCH  19  20
ATOM     20  C   UNL     1      -1.431  10.518  19.391  0.00  0.00    +0.000 C 
BRANCH  20  21
ATOM     21  C   UNL     1      -2.268  10.593  18.133  0.00  0.00    +0.000 A 
ATOM     22  C   UNL     1      -1.894   9.884  16.983  0.00  0.00    +0.000 A 
ATOM     23  C   UNL     1      -2.657   9.972  15.816  0.00  0.00    +0.000 A 
ATOM     24  C   UNL     1      -3.798  10.772  15.784  0.00  0.00    +0.000 A 
ATOM     25  C   UNL     1      -4.177  11.482  16.920  0.00  0.00    +0.000 A 
ATOM     26  C   UNL     1      -3.417  11.396  18.089  0.00  0.00    +0.000 A 
ENDBRANCH  20  21
ENDBRANCH  19  20
ENDBRANCH  17  19
ENDBRANCH   2  15
TORSDOF 8
ENDMDL
MODEL 8
REMARK VINA RESULT:      -7.3      6.053      9.722
REMARK  Name = 
REMARK  10 active torsions:
REMARK  status: ('A' for Active; 'I' for Inactive)
REMARK    1  A    between atoms: C_1  and  O_2
REMARK    2  A    between atoms: O_2  and  C_3
REMARK    3  A    between atoms: C_5  and  C_6
REMARK    4  A    between atoms: C_7  and  C_8
REMARK    5  A    between atoms: N_10  and  C_11
REMARK    6  A    between atoms: C_11  and  C_12
REMARK    7  A    between atoms: C_12  and  C_13
REMARK    8  A    between atoms: C_20  and  O_21
REMARK    9  A    between atoms: O_21  and  C_22
REMARK   10  A    between atoms: C_23  and  O_24
REMARK                            x       y       z     vdW  Elec       q    Type
REMARK                         _______ _______ _______ _____ _____    ______ ____
ROOT
ATOM      1  C   UNL     1       8.570   9.285  18.174  0.00  0.00    +0.000 C 
ATOM      2  C   UNL     1       8.561   8.127  18.864  0.00  0.00    +0.000 C 
ENDROOT
BRANCH   1   5
ATOM      3  C   UNL     1       9.885  11.973  20.504  0.00  0.00    +0.000 A 
ATOM      4  C   UNL     1       9.272  10.808  20.007  0.00  0.00    +0.000 A 
ATOM      5  C   UNL     1       9.201  10.538  18.633  0.00  0.00    +0.000 A 
ATOM      6  C   UNL     1       9.777  11.459  17.754  0.00  0.00    +0.000 A 
ATOM      7  C   UNL     1      10.393  12.629  18.221  0.00  0.00    +0.000 A 
ATOM      8  C   UNL     1      10.445  12.887  19.598  0.00  0.00    +0.000 A 
BRANCH   3  10
ATOM      9  C   UNL     1       8.655  12.683  22.442  0.00  0.00    +0.000 C 
ATOM     10  O   UNL     1       9.801  12.071  21.869  0.00  0.00    +0.000 OA
ENDBRANCH   3  10
BRANCH   7  11
ATOM     11  O   UNL     1      10.792  13.484  17.225  0.00  0.00    +0.000 OA
ATOM     12  C   UNL     1      12.135  13.376  16.763  0.00  0.00    +0.000 C 
ENDBRANCH   7  11
BRANCH   8  13
ATOM     13  O   UNL     1      10.983  14.059  20.051  0.00  0.00    +0.000 OA
ATOM     14  H   UNL     1      11.373  13.857  20.917  0.00  0.00    +0.000 HD
ENDBRANCH   8  13
ENDBRANCH   1   5
BRANCH   2  15
ATOM     15  C   UNL     1       7.866   6.932  18.304  0.00  0.00    +0.000 C 
ATOM     16  O   UNL     1       7.735   5.895  18.939  0.00  0.00    +0.000 OA
ATOM     17  N   UNL     1       7.392   7.116  17.027  0.00  0.00    +0.000 N 
ATOM     18  H   UNL     1       7.523   8.000  16.555  0.00  0.00    +0.000 HD
BRANCH  17  19
ATOM     19  C   UNL     1       6.691   6.040  16.339  0.00  0.00    +0.000 C 
BRANCH  19  20
ATOM     20  C   UNL     1       5.212   6.348  16.083  0.00  0.00    +0.000 C 
BRANCH  20  21
ATOM     21  C   UNL     1       4.296   5.495  16.932  0.00  0.00    +0.000 A 
ATOM     22  C   UNL     1       4.294   4.099  16.801  0.00  0.00    +0.000 A 
ATOM     23  C   UNL     1       3.431   3.315  17.571  0.00  0.00    +0.000 A 
ATOM     24  C   UNL     1       2.559   3.917  18.475  0.00  0.00    +0.000 A 
ATOM     25  C   UNL     1       2.551   5.302  18.612  0.00  0.00    +0.000 A 
ATOM     26  C   UNL     1       3.412   6.090  17.845  0.00  0.00    +0.000 A 
ENDBRANCH  20  21
ENDBRANCH  19  20
ENDBRANCH  17  19
ENDBRANCH   2  15
TORSDOF 8
ENDMDL
MODEL 9
REMARK VINA RESULT:      -7.2      5.814      9.134
REMARK  Name = 
REMARK  10 active torsions:
REMARK  status: ('A' for Active; 'I' for Inactive)
REMARK    1  A    between atoms: C_1  and  O_2
REMARK    2  A    between atoms: O_2  and  C_3
REMARK    3  A    between atoms: C_5  and  C_6
REMARK    4  A    between atoms: C_7  and  C_8
REMARK    5  A    between atoms: N_10  and  C_11
REMARK    6  A    between atoms: C_11  and  C_12
REMARK    7  A    between atoms: C_12  and  C_13
REMARK    8  A    between atoms: C_20  and  O_21
REMARK    9  A    between atoms: O_21  and  C_22
REMARK   10  A    between atoms: C_23  and  O_24
REMARK                            x       y       z     vdW  Elec       q    Type
REMARK                         _______ _______ _______ _____ _____    ______ ____
ROOT
ATOM      1  C   UNL     1       8.712   8.797  18.591  0.00  0.00    +0.000 C 
ATOM      2  C   UNL     1       7.824   8.503  17.621  0.00  0.00    +0.000 C 
ENDROOT
BRANCH   1   5
ATOM      3  C   UNL     1       9.899  12.378  18.203  0.00  0.00    +0.000 A 
ATOM      4  C   UNL     1       9.492  11.060  17.925  0.00  0.00    +0.000 A 
ATOM      5  C   UNL     1       9.158  10.158  18.946  0.00  0.00    +0.000 A 
ATOM      6  C   UNL     1       9.222  10.612  20.267  0.00  0.00    +0.000 A 
ATOM      7  C   UNL     1       9.623  11.920  20.572  0.00  0.00    +0.000 A 
ATOM      8  C   UNL     1       9.965  12.803  19.538  0.00  0.00    +0.000 A 
BRANCH   3  10
ATOM      9  C   UNL     1      11.603  13.289  16.774  0.00  0.00    +0.000 C 
ATOM     10  O   UNL     1      10.230  13.076  17.070  0.00  0.00    +0.000 OA
ENDBRANCH   3  10
BRANCH   7  11
ATOM     11  O   UNL     1       9.755  12.163  21.916  0.00  0.00    +0.000 OA
ATOM     12  C   UNL     1       8.626  12.695  22.602  0.00  0.00    +0.000 C 
ENDBRANCH   7  11
BRANCH   8  13
ATOM     13  O   UNL     1      10.424  14.055  19.837  0.00  0.00    +0.000 OA
ATOM     14  H   UNL     1       9.764  14.673  19.482  0.00  0.00    +0.000 HD
ENDBRANCH   8  13
ENDBRANCH   1   5
BRANCH   2  15
ATOM     15  C   UNL     1       7.471   7.082  17.339  0.00  0.00    +0.000 C 
ATOM     16  O   UNL     1       7.718   6.547  16.267  0.00  0.00    +0.000 OA
ATOM     17  N   UNL     1       6.857   6.446  18.391  0.00  0.00    +0.000 N 
ATOM     18  H   UNL     1       6.687   6.937  19.258  0.00  0.00    +0.000 HD
BRANCH  17  19
ATOM     19  C   UNL     1       6.447   5.053  18.273  0.00  0.00    +0.000 C 
BRANCH  19  20
ATOM     20  C   UNL     1       5.054   4.883  17.658  0.00  0.00    +0.000 C 
BRANCH  20  21
ATOM     21  C   UNL     1       3.952   5.206  18.641  0.00  0.00    +0.000 A 
ATOM     22  C   UNL     1       3.340   6.468  18.640  0.00  0.00    +0.000 A 
ATOM     23  C   UNL     1       2.337   6.771  19.565  0.00  0.00    +0.000 A 
ATOM     24  C   UNL     1       1.938   5.819  20.501  0.00  0.00    +0.000 A 
ATOM     25  C   UNL     1       2.540   4.564  20.512  0.00  0.00    +0.000 A 
ATOM     26  C   UNL     1       3.543   4.257  19.590  0.00  0.00    +0.000 A 
ENDBRANCH  20  21
ENDBRANCH  19  20
ENDBRANCH  17  19
ENDBRANCH   2  15
TORSDOF 8
ENDMDL
