MODEL 1
REMARK VINA RESULT:      -9.9      0.000      0.000
REMARK  Name = 
REMARK  5 active torsions:
REMARK  status: ('A' for Active; 'I' for Inactive)
REMARK    1  A    between atoms: C_2  and  C_15
REMARK    2  A    between atoms: N_3  and  C_4
REMARK    3  A    between atoms: C_6  and  C_7
REMARK    4  A    between atoms: C_19  and  O_20
REMARK    5  A    between atoms: O_20  and  C_21
REMARK                            x       y       z     vdW  Elec       q    Type
REMARK                         _______ _______ _______ _____ _____    ______ ____
ROOT
ATOM      1  C   UNL     1       1.392   8.788  19.575  0.00  0.00    +0.000 A 
ATOM      2  C   UNL     1       1.075   8.475  20.896  0.00  0.00    +0.000 A 
ATOM      3  C   UNL     1       0.261   9.352  21.621  0.00  0.00    +0.000 A 
ATOM      4  C   UNL     1      -0.274  10.494  21.011  0.00  0.00    +0.000 A 
ATOM      5  C   UNL     1       0.018  10.782  19.679  0.00  0.00    +0.000 A 
ATOM      6  C   UNL     1       0.919   9.974  18.996  0.00  0.00    +0.000 A 
ENDROOT
BRANCH   1   8
ATOM      7  O   UNL     1       2.463   8.392  17.583  0.00  0.00    +0.000 OA
ATOM      8  C   UNL     1       2.253   7.953  18.715  0.00  0.00    +0.000 C 
ATOM      9  N   UNL     1       2.681   6.732  19.208  0.00  0.00    +0.000 N 
ATOM     10  H   UNL     1       2.282   6.371  20.068  0.00  0.00    +0.000 HD
BRANCH   9  11
ATOM     11  C   UNL     1       3.473   5.818  18.458  0.00  0.00    +0.000 A 
ATOM     12  C   UNL     1       4.872   5.911  18.398  0.00  0.00    +0.000 A 
ATOM     13  C   UNL     1       5.644   5.035  17.622  0.00  0.00    +0.000 A 
ATOM     14  C   UNL     1       4.995   4.015  16.912  0.00  0.00    +0.000 A 
ATOM     15  C   UNL     1       3.605   3.892  16.974  0.00  0.00    +0.000 A 
ATOM     16  C   UNL     1       2.859   4.789  17.741  0.00  0.00    +0.000 A 
ATOM     17  F   UNL     1       1.522   4.664  17.768  0.00  0.00    +0.000 F 
BRANCH  13  18
ATOM     18  C   UNL     1       7.142   5.210  17.566  0.00  0.00    +0.000 C 
ATOM     19  F   UNL     1       7.753   5.148  18.781  0.00  0.00    +0.000 F 
ATOM     20  F   UNL     1       7.745   4.258  16.799  0.00  0.00    +0.000 F 
ATOM     21  F   UNL     1       7.506   6.409  17.030  0.00  0.00    +0.000 F 
ENDBRANCH  13  18
ENDBRANCH   9  11
ENDBRANCH   1   8
BRANCH   5  22
ATOM     22  O   UNL     1      -0.589  11.885  19.124  0.00  0.00    +0.000 OA
BRANCH  22  23
ATOM     23  C   UNL     1      -1.921  11.845  18.787  0.00  0.00    +0.000 A 
ATOM     24  C   UNL     1      -2.821  12.299  19.763  0.00  0.00    +0.000 A 
ATOM     25  C   UNL     1      -4.217  12.309  19.535  0.00  0.00    +0.000 A 
ATOM     26  C   UNL     1      -4.751  11.866  18.322  0.00  0.00    +0.000 A 
ATOM     27  C   UNL     1      -3.856  11.408  17.386  0.00  0.00    +0.000 A 
ATOM     28  N   UNL     1      -4.101  10.940  16.098  0.00  0.00    +0.000 N 
ATOM     29  C   UNL     1      -2.881  10.606  15.501  0.00  0.00    +0.000 A 
ATOM     30  O   UNL     1      -2.705  10.207  14.364  0.00  0.00    +0.000 OA
ATOM     31  N   UNL     1      -1.892  10.832  16.462  0.00  0.00    +0.000 N 
ATOM     32  C   UNL     1      -2.477  11.368  17.613  0.00  0.00    +0.000 A 
ATOM     33  H   UNL     1      -4.988  10.883  15.626  0.00  0.00    +0.000 HD
ATOM     34  H   UNL     1      -0.911  10.691  16.291  0.00  0.00    +0.000 HD
ENDBRANCH  22  23
ENDBRANCH   5  22
TORSDOF 5
ENDMDL
MODEL 2
REMARK VINA RESULT:      -9.5      1.669      2.408
REMARK  Name = 
REMARK  5 active torsions:
REMARK  status: ('A' for Active; 'I' for Inactive)
REMARK    1  A    between atoms: C_2  and  C_15
REMARK    2  A    between atoms: N_3  and  C_4
REMARK    3  A    between atoms: C_6  and  C_7
REMARK    4  A    between atoms: C_19  and  O_20
REMARK    5  A    between atoms: O_20  and  C_21
REMARK                            x       y       z     vdW  Elec       q    Type
REMARK                         _______ _______ _______ _____ _____    ______ ____
ROOT
ATOM      1  C   UNL     1       1.548   8.206  20.293  0.00  0.00    +0.000 A 
ATOM      2  C   UNL     1       1.315   8.483  21.640  0.00  0.00    +0.000 A 
ATOM      3  C   UNL     1       0.680   9.681  21.982  0.00  0.00    +0.000 A 
ATOM      4  C   UNL     1       0.232  10.559  20.985  0.00  0.00    +0.000 A 
ATOM      5  C   UNL     1       0.437  10.259  19.639  0.00  0.00    +0.000 A 
ATOM      6  C   UNL     1       1.170   9.127  19.306  0.00  0.00    +0.000 A 
ENDROOT
BRANCH   1   8
ATOM      7  O   UNL     1       2.291   6.058  20.618  0.00  0.00    +0.000 OA
ATOM      8  C   UNL     1       2.223   6.986  19.809  0.00  0.00    +0.000 C 
ATOM      9  N   UNL     1       2.784   7.008  18.544  0.00  0.00    +0.000 N 
ATOM     10  H   UNL     1       2.856   7.886  18.042  0.00  0.00    +0.000 HD
BRANCH   9  11
ATOM     11  C   UNL     1       3.502   5.912  17.986  0.00  0.00    +0.000 A 
ATOM     12  C   UNL     1       4.890   5.950  17.781  0.00  0.00    +0.000 A 
ATOM     13  C   UNL     1       5.585   4.886  17.191  0.00  0.00    +0.000 A 
ATOM     14  C   UNL     1       4.871   3.735  16.827  0.00  0.00    +0.000 A 
ATOM     15  C   UNL     1       3.492   3.669  17.041  0.00  0.00    +0.000 A 
ATOM     16  C   UNL     1       2.822   4.750  17.614  0.00  0.00    +0.000 A 
ATOM     17  F   UNL     1       1.493   4.671  17.790  0.00  0.00    +0.000 F 
BRANCH  13  18
ATOM     18  C   UNL     1       7.072   5.003  16.960  0.00  0.00    +0.000 C 
ATOM     19  F   UNL     1       7.532   6.284  16.942  0.00  0.00    +0.000 F 
ATOM     20  F   UNL     1       7.796   4.364  17.924  0.00  0.00    +0.000 F 
ATOM     21  F   UNL     1       7.459   4.454  15.775  0.00  0.00    +0.000 F 
ENDBRANCH  13  18
ENDBRANCH   9  11
ENDBRANCH   1   8
BRANCH   5  22
ATOM     22  O   UNL     1      -0.081  11.133  18.713  0.00  0.00    +0.000 OA
BRANCH  22  23
ATOM     23  C   UNL     1      -1.399  11.039  18.335  0.00  0.00    +0.000 A 
ATOM     24  C   UNL     1      -1.687  10.120  17.315  0.00  0.00    +0.000 A 
ATOM     25  C   UNL     1      -3.006   9.930  16.839  0.00  0.00    +0.000 A 
ATOM     26  C   UNL     1      -4.075  10.654  17.374  0.00  0.00    +0.000 A 
ATOM     27  C   UNL     1      -3.770  11.563  18.359  0.00  0.00    +0.000 A 
ATOM     28  N   UNL     1      -4.628  12.390  19.079  0.00  0.00    +0.000 N 
ATOM     29  C   UNL     1      -3.873  13.128  19.998  0.00  0.00    +0.000 A 
ATOM     30  O   UNL     1      -4.292  13.918  20.825  0.00  0.00    +0.000 OA
ATOM     31  N   UNL     1      -2.538  12.774  19.793  0.00  0.00    +0.000 N 
ATOM     32  C   UNL     1      -2.466  11.778  18.815  0.00  0.00    +0.000 A 
ATOM     33  H   UNL     1      -5.630  12.440  19.012  0.00  0.00    +0.000 HD
ATOM     34  H   UNL     1      -1.776  13.144  20.336  0.00  0.00    +0.000 HD
ENDBRANCH  22  23
ENDBRANCH   5  22
TORSDOF 5
ENDMDL
MODEL 3
REMARK VINA RESULT:      -9.5      4.381      9.259
REMARK  Name = 
REMARK  5 active torsions:
REMARK  status: ('A' for Active; 'I' for Inactive)
REMARK    1  A    between atoms: C_2  and  C_15
REMARK    2  A    between atoms: N_3  and  C_4
REMARK    3  A    between atoms: C_6  and  C_7
REMARK    4  A    between atoms: C_19  and  O_20
REMARK    5  A    between atoms: O_20  and  C_21
REMARK                            x       y       z     vdW  Elec       q    Type
REMARK                         _______ _______ _______ _____ _____    ______ ____
ROOT
ATOM      1  C   UNL     1       2.480   4.452  19.794  0.00  0.00    +0.000 A 
ATOM      2  C   UNL     1       1.894   3.193  19.664  0.00  0.00    +0.000 A 
ATOM      3  C   UNL     1       2.693   2.115  19.267  0.00  0.00    +0.000 A 
ATOM      4  C   UNL     1       4.068   2.287  19.064  0.00  0.00    +0.000 A 
ATOM      5  C   UNL     1       4.654   3.541  19.230  0.00  0.00    +0.000 A 
ATOM      6  C   UNL     1       3.841   4.632  19.509  0.00  0.00    +0.000 A 
ENDROOT
BRANCH   1   8
ATOM      7  O   UNL     1       0.648   5.474  20.727  0.00  0.00    +0.000 OA
ATOM      8  C   UNL     1       1.740   5.667  20.188  0.00  0.00    +0.000 C 
ATOM      9  N   UNL     1       2.279   6.897  19.857  0.00  0.00    +0.000 N 
ATOM     10  H   UNL     1       3.076   6.944  19.231  0.00  0.00    +0.000 HD
BRANCH   9  11
ATOM     11  C   UNL     1       1.637   8.136  20.139  0.00  0.00    +0.000 A 
ATOM     12  C   UNL     1       1.077   8.423  21.393  0.00  0.00    +0.000 A 
ATOM     13  C   UNL     1       0.407   9.626  21.651  0.00  0.00    +0.000 A 
ATOM     14  C   UNL     1       0.326  10.585  20.631  0.00  0.00    +0.000 A 
ATOM     15  C   UNL     1       0.896  10.328  19.381  0.00  0.00    +0.000 A 
ATOM     16  C   UNL     1       1.542   9.113  19.145  0.00  0.00    +0.000 A 
ATOM     17  F   UNL     1       2.062   8.881  17.930  0.00  0.00    +0.000 F 
BRANCH  13  18
ATOM     18  C   UNL     1      -0.211   9.860  23.009  0.00  0.00    +0.000 C 
ATOM     19  F   UNL     1       0.603   9.535  24.051  0.00  0.00    +0.000 F 
ATOM     20  F   UNL     1      -0.555  11.166  23.202  0.00  0.00    +0.000 F 
ATOM     21  F   UNL     1      -1.352   9.141  23.192  0.00  0.00    +0.000 F 
ENDBRANCH  13  18
ENDBRANCH   9  11
ENDBRANCH   1   8
BRANCH   5  22
ATOM     22  O   UNL     1       6.017   3.626  19.074  0.00  0.00    +0.000 OA
BRANCH  22  23
ATOM     23  C   UNL     1       6.565   4.631  18.312  0.00  0.00    +0.000 A 
ATOM     24  C   UNL     1       7.086   5.728  19.014  0.00  0.00    +0.000 A 
ATOM     25  C   UNL     1       7.677   6.824  18.343  0.00  0.00    +0.000 A 
ATOM     26  C   UNL     1       7.765   6.851  16.948  0.00  0.00    +0.000 A 
ATOM     27  C   UNL     1       7.232   5.777  16.277  0.00  0.00    +0.000 A 
ATOM     28  N   UNL     1       7.204   5.529  14.908  0.00  0.00    +0.000 N 
ATOM     29  C   UNL     1       6.581   4.296  14.686  0.00  0.00    +0.000 A 
ATOM     30  O   UNL     1       6.421   3.736  13.617  0.00  0.00    +0.000 OA
ATOM     31  N   UNL     1       6.186   3.819  15.938  0.00  0.00    +0.000 N 
ATOM     32  C   UNL     1       6.620   4.703  16.931  0.00  0.00    +0.000 A 
ATOM     33  H   UNL     1       7.599   6.095  14.175  0.00  0.00    +0.000 HD
ATOM     34  H   UNL     1       5.727   2.934  16.076  0.00  0.00    +0.000 HD
ENDBRANCH  22  23
ENDBRANCH   5  22
TORSDOF 5
ENDMDL
MODEL 4
REMARK VINA RESULT:      -9.4      3.723      5.894
REMARK  Name = 
REMARK  5 active torsions:
REMARK  status: ('A' for Active; 'I' for Inactive)
REMARK    1  A    between atoms: C_2  and  C_15
REMARK    2  A    between atoms: N_3  and  C_4
REMARK    3  A    between atoms: C_6  and  C_7
REMARK    4  A    between atoms: C_19  and  O_20
REMARK    5  A    between atoms: O_20  and  C_21
REMARK                            x       y       z     vdW  Elec       q    Type
REMARK                         _______ _______ _______ _____ _____    ______ ____
ROOT
ATOM      1  C   UNL     1       2.729   3.733  18.520  0.00  0.00    +0.000 A 
ATOM      2  C   UNL     1       1.692   2.835  18.771  0.00  0.00    +0.000 A 
ATOM      3  C   UNL     1       0.795   3.113  19.807  0.00  0.00    +0.000 A 
ATOM      4  C   UNL     1       0.901   4.302  20.539  0.00  0.00    +0.000 A 
ATOM      5  C   UNL     1       1.919   5.213  20.260  0.00  0.00    +0.000 A 
ATOM      6  C   UNL     1       2.877   4.881  19.311  0.00  0.00    +0.000 A 
ENDROOT
BRANCH   1   8
ATOM      7  O   UNL     1       4.133   2.382  17.304  0.00  0.00    +0.000 OA
ATOM      8  C   UNL     1       3.747   3.541  17.468  0.00  0.00    +0.000 C 
ATOM      9  N   UNL     1       4.235   4.662  16.819  0.00  0.00    +0.000 N 
ATOM     10  H   UNL     1       4.005   5.585  17.171  0.00  0.00    +0.000 HD
BRANCH   9  11
ATOM     11  C   UNL     1       5.251   4.611  15.823  0.00  0.00    +0.000 A 
ATOM     12  C   UNL     1       5.013   4.111  14.533  0.00  0.00    +0.000 A 
ATOM     13  C   UNL     1       6.027   4.021  13.571  0.00  0.00    +0.000 A 
ATOM     14  C   UNL     1       7.311   4.479  13.901  0.00  0.00    +0.000 A 
ATOM     15  C   UNL     1       7.564   4.999  15.173  0.00  0.00    +0.000 A 
ATOM     16  C   UNL     1       6.539   5.060  16.118  0.00  0.00    +0.000 A 
ATOM     17  F   UNL     1       6.813   5.545  17.340  0.00  0.00    +0.000 F 
BRANCH  13  18
ATOM     18  C   UNL     1       5.719   3.437  12.213  0.00  0.00    +0.000 C 
ATOM     19  F   UNL     1       5.920   2.093  12.130  0.00  0.00    +0.000 F 
ATOM     20  F   UNL     1       4.422   3.642  11.845  0.00  0.00    +0.000 F 
ATOM     21  F   UNL     1       6.480   3.987  11.226  0.00  0.00    +0.000 F 
ENDBRANCH  13  18
ENDBRANCH   9  11
ENDBRANCH   1   8
BRANCH   5  22
ATOM     22  O   UNL     1       1.929   6.387  20.976  0.00  0.00    +0.000 OA
BRANCH  22  23
ATOM     23  C   UNL     1       1.658   7.580  20.350  0.00  0.00    +0.000 A 
ATOM     24  C   UNL     1       2.010   7.663  18.994  0.00  0.00    +0.000 A 
ATOM     25  C   UNL     1       1.781   8.837  18.240  0.00  0.00    +0.000 A 
ATOM     26  C   UNL     1       1.189   9.962  18.821  0.00  0.00    +0.000 A 
ATOM     27  C   UNL     1       0.868   9.869  20.154  0.00  0.00    +0.000 A 
ATOM     28  N   UNL     1       0.253  10.812  20.972  0.00  0.00    +0.000 N 
ATOM     29  C   UNL     1       0.104  10.268  22.252  0.00  0.00    +0.000 A 
ATOM     30  O   UNL     1      -0.433  10.788  23.213  0.00  0.00    +0.000 OA
ATOM     31  N   UNL     1       0.682   8.997  22.214  0.00  0.00    +0.000 N 
ATOM     32  C   UNL     1       1.118   8.722  20.915  0.00  0.00    +0.000 A 
ATOM     33  H   UNL     1      -0.085  11.723  20.710  0.00  0.00    +0.000 HD
ATOM     34  H   UNL     1       0.698   8.370  23.001  0.00  0.00    +0.000 HD
ENDBRANCH  22  23
ENDBRANCH   5  22
TORSDOF 5
ENDMDL
MODEL 5
REMARK VINA RESULT:      -9.3      1.275      1.596
REMARK  Name = 
REMARK  5 active torsions:
REMARK  status: ('A' for Active; 'I' for Inactive)
REMARK    1  A    between atoms: C_2  and  C_15
REMARK    2  A    between atoms: N_3  and  C_4
REMARK    3  A    between atoms: C_6  and  C_7
REMARK    4  A    between atoms: C_19  and  O_20
REMARK    5  A    between atoms: O_20  and  C_21
REMARK                            x       y       z     vdW  Elec       q    Type
REMARK                         _______ _______ _______ _____ _____    ______ ____
ROOT
ATOM      1  C   UNL     1       0.834   9.592  19.701  0.00  0.00    +0.000 A 
ATOM      2  C   UNL     1       0.860   9.586  21.095  0.00  0.00    +0.000 A 
ATOM      3  C   UNL     1       0.167  10.584  21.788  0.00  0.00    +0.000 A 
ATOM      4  C   UNL     1      -0.589  11.537  21.092  0.00  0.00    +0.000 A 
ATOM      5  C   UNL     1      -0.640  11.516  19.699  0.00  0.00    +0.000 A 
ATOM      6  C   UNL     1       0.142  10.597  19.011  0.00  0.00    +0.000 A 
ENDROOT
BRANCH   1   8
ATOM      7  O   UNL     1       1.499   8.811  17.646  0.00  0.00    +0.000 OA
ATOM      8  C   UNL     1       1.539   8.604  18.861  0.00  0.00    +0.000 C 
ATOM      9  N   UNL     1       2.108   7.506  19.482  0.00  0.00    +0.000 N 
ATOM     10  H   UNL     1       1.906   7.321  20.459  0.00  0.00    +0.000 HD
BRANCH   9  11
ATOM     11  C   UNL     1       2.771   6.462  18.776  0.00  0.00    +0.000 A 
ATOM     12  C   UNL     1       3.706   6.718  17.762  0.00  0.00    +0.000 A 
ATOM     13  C   UNL     1       4.323   5.688  17.040  0.00  0.00    +0.000 A 
ATOM     14  C   UNL     1       4.017   4.359  17.368  0.00  0.00    +0.000 A 
ATOM     15  C   UNL     1       3.103   4.082  18.388  0.00  0.00    +0.000 A 
ATOM     16  C   UNL     1       2.490   5.128  19.080  0.00  0.00    +0.000 A 
ATOM     17  F   UNL     1       1.600   4.837  20.042  0.00  0.00    +0.000 F 
BRANCH  13  18
ATOM     18  C   UNL     1       5.291   6.027  15.933  0.00  0.00    +0.000 C 
ATOM     19  F   UNL     1       5.445   5.040  15.008  0.00  0.00    +0.000 F 
ATOM     20  F   UNL     1       4.909   7.134  15.233  0.00  0.00    +0.000 F 
ATOM     21  F   UNL     1       6.542   6.294  16.401  0.00  0.00    +0.000 F 
ENDBRANCH  13  18
ENDBRANCH   9  11
ENDBRANCH   1   8
BRANCH   5  22
ATOM     22  O   UNL     1      -1.449  12.441  19.083  0.00  0.00    +0.000 OA
BRANCH  22  23
ATOM     23  C   UNL     1      -2.700  12.080  18.640  0.00  0.00    +0.000 A 
ATOM     24  C   UNL     1      -3.761  12.304  19.530  0.00  0.00    +0.000 A 
ATOM     25  C   UNL     1      -5.094  11.976  19.191  0.00  0.00    +0.000 A 
ATOM     26  C   UNL     1      -5.403  11.417  17.947  0.00  0.00    +0.000 A 
ATOM     27  C   UNL     1      -4.349  11.189  17.096  0.00  0.00    +0.000 A 
ATOM     28  N   UNL     1      -4.367  10.675  15.803  0.00  0.00    +0.000 N 
ATOM     29  C   UNL     1      -3.056  10.645  15.313  0.00  0.00    +0.000 A 
ATOM     30  O   UNL     1      -2.695  10.301  14.203  0.00  0.00    +0.000 OA
ATOM     31  N   UNL     1      -2.235  11.104  16.346  0.00  0.00    +0.000 N 
ATOM     32  C   UNL     1      -3.025  11.483  17.435  0.00  0.00    +0.000 A 
ATOM     33  H   UNL     1      -5.171  10.405  15.262  0.00  0.00    +0.000 HD
ATOM     34  H   UNL     1      -1.238  11.204  16.259  0.00  0.00    +0.000 HD
ENDBRANCH  22  23
ENDBRANCH   5  22
TORSDOF 5
ENDMDL
MODEL 6
REMARK VINA RESULT:      -9.3      1.467      2.138
REMARK  Name = 
REMARK  5 active torsions:
REMARK  status: ('A' for Active; 'I' for Inactive)
REMARK    1  A    between atoms: C_2  and  C_15
REMARK    2  A    between atoms: N_3  and  C_4
REMARK    3  A    between atoms: C_6  and  C_7
REMARK    4  A    between atoms: C_19  and  O_20
REMARK    5  A    between atoms: O_20  and  C_21
REMARK                            x       y       z     vdW  Elec       q    Type
REMARK                         _______ _______ _______ _____ _____    ______ ____
ROOT
ATOM      1  C   UNL     1       1.431   8.484  19.839  0.00  0.00    +0.000 A 
ATOM      2  C   UNL     1       1.084   8.110  21.137  0.00  0.00    +0.000 A 
ATOM      3  C   UNL     1       0.178   8.904  21.848  0.00  0.00    +0.000 A 
ATOM      4  C   UNL     1      -0.415  10.021  21.244  0.00  0.00    +0.000 A 
ATOM      5  C   UNL     1      -0.089  10.369  19.934  0.00  0.00    +0.000 A 
ATOM      6  C   UNL     1       0.896   9.649  19.271  0.00  0.00    +0.000 A 
ENDROOT
BRANCH   1   8
ATOM      7  O   UNL     1       2.692   8.279  17.930  0.00  0.00    +0.000 OA
ATOM      8  C   UNL     1       2.387   7.739  18.996  0.00  0.00    +0.000 C 
ATOM      9  N   UNL     1       2.794   6.486  19.421  0.00  0.00    +0.000 N 
ATOM     10  H   UNL     1       2.326   6.046  20.206  0.00  0.00    +0.000 HD
BRANCH   9  11
ATOM     11  C   UNL     1       3.673   5.652  18.674  0.00  0.00    +0.000 A 
ATOM     12  C   UNL     1       5.069   5.789  18.732  0.00  0.00    +0.000 A 
ATOM     13  C   UNL     1       5.928   4.995  17.961  0.00  0.00    +0.000 A 
ATOM     14  C   UNL     1       5.371   4.011  17.131  0.00  0.00    +0.000 A 
ATOM     15  C   UNL     1       3.985   3.845  17.073  0.00  0.00    +0.000 A 
ATOM     16  C   UNL     1       3.152   4.662  17.839  0.00  0.00    +0.000 A 
ATOM     17  F   UNL     1       1.822   4.497  17.750  0.00  0.00    +0.000 F 
BRANCH  13  18
ATOM     18  C   UNL     1       7.419   5.217  18.037  0.00  0.00    +0.000 C 
ATOM     19  F   UNL     1       7.873   5.507  19.287  0.00  0.00    +0.000 F 
ATOM     20  F   UNL     1       8.125   4.122  17.631  0.00  0.00    +0.000 F 
ATOM     21  F   UNL     1       7.833   6.244  17.245  0.00  0.00    +0.000 F 
ENDBRANCH  13  18
ENDBRANCH   9  11
ENDBRANCH   1   8
BRANCH   5  22
ATOM     22  O   UNL     1      -0.753  11.440  19.383  0.00  0.00    +0.000 OA
BRANCH  22  23
ATOM     23  C   UNL     1      -1.860  11.236  18.594  0.00  0.00    +0.000 A 
ATOM     24  C   UNL     1      -1.684  10.393  17.486  0.00  0.00    +0.000 A 
ATOM     25  C   UNL     1      -2.748  10.104  16.599  0.00  0.00    +0.000 A 
ATOM     26  C   UNL     1      -4.019  10.648  16.799  0.00  0.00    +0.000 A 
ATOM     27  C   UNL     1      -4.168  11.485  17.879  0.00  0.00    +0.000 A 
ATOM     28  N   UNL     1      -5.313  12.137  18.328  0.00  0.00    +0.000 N 
ATOM     29  C   UNL     1      -4.994  12.862  19.481  0.00  0.00    +0.000 A 
ATOM     30  O   UNL     1      -5.755  13.516  20.171  0.00  0.00    +0.000 OA
ATOM     31  N   UNL     1      -3.626  12.682  19.700  0.00  0.00    +0.000 N 
ATOM     32  C   UNL     1      -3.115  11.800  18.744  0.00  0.00    +0.000 A 
ATOM     33  H   UNL     1      -6.240  12.081  17.942  0.00  0.00    +0.000 HD
ATOM     34  H   UNL     1      -3.132  13.080  20.480  0.00  0.00    +0.000 HD
ENDBRANCH  22  23
ENDBRANCH   5  22
TORSDOF 5
ENDMDL
MODEL 7
REMARK VINA RESULT:      -9.3      0.937      1.045
REMARK  Name = 
REMARK  5 active torsions:
REMARK  status: ('A' for Active; 'I' for Inactive)
REMARK    1  A    between atoms: C_2  and  C_15
REMARK    2  A    between atoms: N_3  and  C_4
REMARK    3  A    between atoms: C_6  and  C_7
REMARK    4  A    between atoms: C_19  and  O_20
REMARK    5  A    between atoms: O_20  and  C_21
REMARK                            x       y       z     vdW  Elec       q    Type
REMARK                         _______ _______ _______ _____ _____    ______ ____
ROOT
ATOM      1  C   UNL     1       1.499   8.311  20.337  0.00  0.00    +0.000 A 
ATOM      2  C   UNL     1       1.222   8.542  21.684  0.00  0.00    +0.000 A 
ATOM      3  C   UNL     1       0.581   9.731  22.047  0.00  0.00    +0.000 A 
ATOM      4  C   UNL     1       0.172  10.645  21.067  0.00  0.00    +0.000 A 
ATOM      5  C   UNL     1       0.420  10.391  19.719  0.00  0.00    +0.000 A 
ATOM      6  C   UNL     1       1.159   9.268  19.371  0.00  0.00    +0.000 A 
ENDROOT
BRANCH   1   8
ATOM      7  O   UNL     1       2.276   6.170  20.633  0.00  0.00    +0.000 OA
ATOM      8  C   UNL     1       2.184   7.104  19.833  0.00  0.00    +0.000 C 
ATOM      9  N   UNL     1       2.729   7.145  18.562  0.00  0.00    +0.000 N 
ATOM     10  H   UNL     1       2.782   8.028  18.066  0.00  0.00    +0.000 HD
BRANCH   9  11
ATOM     11  C   UNL     1       3.454   6.064  17.985  0.00  0.00    +0.000 A 
ATOM     12  C   UNL     1       4.831   6.138  17.725  0.00  0.00    +0.000 A 
ATOM     13  C   UNL     1       5.532   5.089  17.116  0.00  0.00    +0.000 A 
ATOM     14  C   UNL     1       4.837   3.915  16.790  0.00  0.00    +0.000 A 
ATOM     15  C   UNL     1       3.470   3.813  17.059  0.00  0.00    +0.000 A 
ATOM     16  C   UNL     1       2.793   4.881  17.650  0.00  0.00    +0.000 A 
ATOM     17  F   UNL     1       1.475   4.766  17.879  0.00  0.00    +0.000 F 
BRANCH  13  18
ATOM     18  C   UNL     1       7.006   5.244  16.826  0.00  0.00    +0.000 C 
ATOM     19  F   UNL     1       7.517   6.453  17.184  0.00  0.00    +0.000 F 
ATOM     20  F   UNL     1       7.761   4.314  17.478  0.00  0.00    +0.000 F 
ATOM     21  F   UNL     1       7.292   5.098  15.502  0.00  0.00    +0.000 F 
ENDBRANCH  13  18
ENDBRANCH   9  11
ENDBRANCH   1   8
BRANCH   5  22
ATOM     22  O   UNL     1      -0.062  11.300  18.807  0.00  0.00    +0.000 OA
BRANCH  22  23
ATOM     23  C   UNL     1      -1.416  11.487  18.667  0.00  0.00    +0.000 A 
ATOM     24  C   UNL     1      -2.081  12.051  19.766  0.00  0.00    +0.000 A 
ATOM     25  C   UNL     1      -3.474  12.294  19.745  0.00  0.00    +0.000 A 
ATOM     26  C   UNL     1      -4.242  11.983  18.619  0.00  0.00    +0.000 A 
ATOM     27  C   UNL     1      -3.577  11.415  17.559  0.00  0.00    +0.000 A 
ATOM     28  N   UNL     1      -4.077  11.034  16.318  0.00  0.00    +0.000 N 
ATOM     29  C   UNL     1      -3.027  10.525  15.547  0.00  0.00    +0.000 A 
ATOM     30  O   UNL     1      -3.083  10.139  14.393  0.00  0.00    +0.000 OA
ATOM     31  N   UNL     1      -1.888  10.557  16.354  0.00  0.00    +0.000 N 
ATOM     32  C   UNL     1      -2.205  11.144  17.583  0.00  0.00    +0.000 A 
ATOM     33  H   UNL     1      -5.019  11.136  15.979  0.00  0.00    +0.000 HD
ATOM     34  H   UNL     1      -0.977  10.264  16.042  0.00  0.00    +0.000 HD
ENDBRANCH  22  23
ENDBRANCH   5  22
TORSDOF 5
ENDMDL
MODEL 8
REMARK VINA RESULT:      -9.2      4.286      9.261
REMARK  Name = 
REMARK  5 active torsions:
REMARK  status: ('A' for Active; 'I' for Inactive)
REMARK    1  A    between atoms: C_2  and  C_15
REMARK    2  A    between atoms: N_3  and  C_4
REMARK    3  A    between atoms: C_6  and  C_7
REMARK    4  A    between atoms: C_19  and  O_20
REMARK    5  A    between atoms: O_20  and  C_21
REMARK                            x       y       z     vdW  Elec       q    Type
REMARK                         _______ _______ _______ _____ _____    ______ ____
ROOT
ATOM      1  C   UNL     1       2.290   5.648  20.094  0.00  0.00    +0.000 A 
ATOM      2  C   UNL     1       1.528   4.679  20.746  0.00  0.00    +0.000 A 
ATOM      3  C   UNL     1       2.010   3.367  20.801  0.00  0.00    +0.000 A 
ATOM      4  C   UNL     1       3.264   3.047  20.264  0.00  0.00    +0.000 A 
ATOM      5  C   UNL     1       4.036   4.029  19.645  0.00  0.00    +0.000 A 
ATOM      6  C   UNL     1       3.506   5.302  19.488  0.00  0.00    +0.000 A 
ENDROOT
BRANCH   1   8
ATOM      7  O   UNL     1       2.481   7.707  19.095  0.00  0.00    +0.000 OA
ATOM      8  C   UNL     1       1.880   7.060  19.955  0.00  0.00    +0.000 C 
ATOM      9  N   UNL     1       0.934   7.555  20.835  0.00  0.00    +0.000 N 
ATOM     10  H   UNL     1       0.655   7.000  21.637  0.00  0.00    +0.000 HD
BRANCH   9  11
ATOM     11  C   UNL     1       0.494   8.909  20.832  0.00  0.00    +0.000 A 
ATOM     12  C   UNL     1      -0.195   9.473  19.747  0.00  0.00    +0.000 A 
ATOM     13  C   UNL     1      -0.586  10.818  19.731  0.00  0.00    +0.000 A 
ATOM     14  C   UNL     1      -0.308  11.613  20.853  0.00  0.00    +0.000 A 
ATOM     15  C   UNL     1       0.358  11.066  21.952  0.00  0.00    +0.000 A 
ATOM     16  C   UNL     1       0.753   9.727  21.934  0.00  0.00    +0.000 A 
ATOM     17  F   UNL     1       1.411   9.231  22.994  0.00  0.00    +0.000 F 
BRANCH  13  18
ATOM     18  C   UNL     1      -1.289  11.377  18.518  0.00  0.00    +0.000 C 
ATOM     19  F   UNL     1      -1.347  10.516  17.465  0.00  0.00    +0.000 F 
ATOM     20  F   UNL     1      -2.580  11.725  18.784  0.00  0.00    +0.000 F 
ATOM     21  F   UNL     1      -0.688  12.503  18.042  0.00  0.00    +0.000 F 
ENDBRANCH  13  18
ENDBRANCH   9  11
ENDBRANCH   1   8
BRANCH   5  22
ATOM     22  O   UNL     1       5.282   3.660  19.194  0.00  0.00    +0.000 OA
BRANCH  22  23
ATOM     23  C   UNL     1       6.049   4.549  18.479  0.00  0.00    +0.000 A 
ATOM     24  C   UNL     1       6.683   5.557  19.221  0.00  0.00    +0.000 A 
ATOM     25  C   UNL     1       7.500   6.530  18.601  0.00  0.00    +0.000 A 
ATOM     26  C   UNL     1       7.709   6.520  17.219  0.00  0.00    +0.000 A 
ATOM     27  C   UNL     1       7.066   5.536  16.507  0.00  0.00    +0.000 A 
ATOM     28  N   UNL     1       7.114   5.274  15.141  0.00  0.00    +0.000 N 
ATOM     29  C   UNL     1       6.317   4.156  14.870  0.00  0.00    +0.000 A 
ATOM     30  O   UNL     1       6.159   3.612  13.792  0.00  0.00    +0.000 OA
ATOM     31  N   UNL     1       5.745   3.771  16.084  0.00  0.00    +0.000 N 
ATOM     32  C   UNL     1       6.233   4.588  17.108  0.00  0.00    +0.000 A 
ATOM     33  H   UNL     1       7.657   5.755  14.443  0.00  0.00    +0.000 HD
ATOM     34  H   UNL     1       5.137   2.975  16.183  0.00  0.00    +0.000 HD
ENDBRANCH  22  23
ENDBRANCH   5  22
TORSDOF 5
ENDMDL
MODEL 9
REMARK VINA RESULT:      -9.2      4.482      9.008
REMARK  Name = 
REMARK  5 active torsions:
REMARK  status: ('A' for Active; 'I' for Inactive)
REMARK    1  A    between atoms: C_2  and  C_15
REMARK    2  A    between atoms: N_3  and  C_4
REMARK    3  A    between atoms: C_6  and  C_7
REMARK    4  A    between atoms: C_19  and  O_20
REMARK    5  A    between atoms: O_20  and  C_21
REMARK                            x       y       z     vdW  Elec       q    Type
REMARK                         _______ _______ _______ _____ _____    ______ ____
ROOT
ATOM      1  C   UNL     1       2.370   5.571  20.108  0.00  0.00    +0.000 A 
ATOM      2  C   UNL     1       1.662   4.611  20.831  0.00  0.00    +0.000 A 
ATOM      3  C   UNL     1       2.181   3.315  20.920  0.00  0.00    +0.000 A 
ATOM      4  C   UNL     1       3.420   3.004  20.344  0.00  0.00    +0.000 A 
ATOM      5  C   UNL     1       4.139   3.978  19.653  0.00  0.00    +0.000 A 
ATOM      6  C   UNL     1       3.569   5.230  19.466  0.00  0.00    +0.000 A 
ENDROOT
BRANCH   1   8
ATOM      7  O   UNL     1       2.209   7.485  18.850  0.00  0.00    +0.000 OA
ATOM      8  C   UNL     1       1.917   6.964  19.929  0.00  0.00    +0.000 C 
ATOM      9  N   UNL     1       1.287   7.588  20.991  0.00  0.00    +0.000 N 
ATOM     10  H   UNL     1       1.282   7.144  21.903  0.00  0.00    +0.000 HD
BRANCH   9  11
ATOM     11  C   UNL     1       0.849   8.943  20.956  0.00  0.00    +0.000 A 
ATOM     12  C   UNL     1       1.358   9.873  20.037  0.00  0.00    +0.000 A 
ATOM     13  C   UNL     1       0.957  11.215  20.036  0.00  0.00    +0.000 A 
ATOM     14  C   UNL     1      -0.010  11.630  20.963  0.00  0.00    +0.000 A 
ATOM     15  C   UNL     1      -0.545  10.715  21.874  0.00  0.00    +0.000 A 
ATOM     16  C   UNL     1      -0.114   9.387  21.864  0.00  0.00    +0.000 A 
ATOM     17  F   UNL     1      -0.627   8.532  22.764  0.00  0.00    +0.000 F 
BRANCH  13  18
ATOM     18  C   UNL     1       1.570  12.178  19.047  0.00  0.00    +0.000 C 
ATOM     19  F   UNL     1       0.661  12.937  18.376  0.00  0.00    +0.000 F 
ATOM     20  F   UNL     1       2.420  13.060  19.645  0.00  0.00    +0.000 F 
ATOM     21  F   UNL     1       2.301  11.543  18.089  0.00  0.00    +0.000 F 
ENDBRANCH  13  18
ENDBRANCH   9  11
ENDBRANCH   1   8
BRANCH   5  22
ATOM     22  O   UNL     1       5.375   3.622  19.165  0.00  0.00    +0.000 OA
BRANCH  22  23
ATOM     23  C   UNL     1       6.121   4.525  18.446  0.00  0.00    +0.000 A 
ATOM     24  C   UNL     1       6.756   5.533  19.187  0.00  0.00    +0.000 A 
ATOM     25  C   UNL     1       7.553   6.521  18.563  0.00  0.00    +0.000 A 
ATOM     26  C   UNL     1       7.739   6.526  17.177  0.00  0.00    +0.000 A 
ATOM     27  C   UNL     1       7.094   5.542  16.467  0.00  0.00    +0.000 A 
ATOM     28  N   UNL     1       7.122   5.293  15.098  0.00  0.00    +0.000 N 
ATOM     29  C   UNL     1       6.333   4.169  14.829  0.00  0.00    +0.000 A 
ATOM     30  O   UNL     1       6.162   3.634  13.749  0.00  0.00    +0.000 OA
ATOM     31  N   UNL     1       5.784   3.767  16.049  0.00  0.00    +0.000 N 
ATOM     32  C   UNL     1       6.281   4.579  17.073  0.00  0.00    +0.000 A 
ATOM     33  H   UNL     1       7.648   5.786  14.396  0.00  0.00    +0.000 HD
ATOM     34  H   UNL     1       5.187   2.964  16.151  0.00  0.00    +0.000 HD
ENDBRANCH  22  23
ENDBRANCH   5  22
TORSDOF 5
ENDMDL
