MODEL 1
REMARK VINA RESULT:      -7.7      0.000      0.000
REMARK  Name = 
REMARK  7 active torsions:
REMARK  status: ('A' for Active; 'I' for Inactive)
REMARK    1  A    between atoms: C_1  and  C_2
REMARK    2  A    between atoms: C_2  and  C_3
REMARK    3  A    between atoms: C_13  and  S_14
REMARK    4  A    between atoms: S_14  and  C_17
REMARK    5  A    between atoms: C_17  and  C_18
REMARK    6  A    between atoms: C_18  and  O_20
REMARK    7  A    between atoms: O_20  and  C_21
REMARK                            x       y       z     vdW  Elec       q    Type
REMARK                         _______ _______ _______ _____ _____    ______ ____
ROOT
ATOM      1  C   UNL     1       4.350   3.644  18.869  0.00  0.00    +0.000 C 
ATOM      2  O   UNL     1       5.281   3.745  18.081  0.00  0.00    +0.000 OA
ATOM      3  N   UNL     1       3.463   4.653  19.250  0.00  0.00    +0.000 N 
ATOM      4  C   UNL     1       2.592   4.462  20.423  0.00  0.00    +0.000 C 
ATOM      5  C   UNL     1       1.892   5.760  20.737  0.00  0.00    +0.000 C 
ATOM      6  C   UNL     1       2.340   6.623  19.606  0.00  0.00    +0.000 A 
ATOM      7  C   UNL     1       1.900   7.931  19.438  0.00  0.00    +0.000 A 
ATOM      8  C   UNL     1       2.416   8.656  18.380  0.00  0.00    +0.000 A 
ATOM      9 BR   UNL     1       1.829  10.436  18.119  0.00  0.00    +0.000 Br
ATOM     10  C   UNL     1       3.349   8.085  17.510  0.00  0.00    +0.000 A 
ATOM     11  C   UNL     1       3.765   6.744  17.664  0.00  0.00    +0.000 A 
ATOM     12  C   UNL     1       3.270   5.990  18.750  0.00  0.00    +0.000 A 
ENDROOT
BRANCH  11  13
ATOM     13  S   UNL     1       4.875   6.048  16.474  0.00  0.00    +0.000 S 
ATOM     14  O   UNL     1       4.562   4.629  16.462  0.00  0.00    +0.000 OA
ATOM     15  O   UNL     1       4.811   6.916  15.311  0.00  0.00    +0.000 OA
BRANCH  13  16
ATOM     16  C   UNL     1       6.647   6.100  16.910  0.00  0.00    +0.000 C 
ATOM     17  C   UNL     1       7.164   7.378  17.542  0.00  0.00    +0.000 C 
ATOM     18  C   UNL     1       6.754   6.250  18.438  0.00  0.00    +0.000 C 
BRANCH  16  19
ATOM     19  C   UNL     1       7.533   5.149  16.237  0.00  0.00    +0.000 C 
ATOM     20  O   UNL     1       8.025   4.196  16.825  0.00  0.00    +0.000 OA
BRANCH  19  21
ATOM     21  O   UNL     1       7.651   5.399  14.906  0.00  0.00    +0.000 OA
ATOM     22  C   UNL     1       7.035   4.433  14.054  0.00  0.00    +0.000 C 
ENDBRANCH  19  21
ENDBRANCH  16  19
ENDBRANCH  13  16
ENDBRANCH  11  13
BRANCH   1  24
ATOM     23  C   UNL     1       3.629   1.198  18.555  0.00  0.00    +0.000 C 
ATOM     24  C   UNL     1       4.091   2.275  19.525  0.00  0.00    +0.000 C 
ENDBRANCH   1  24
TORSDOF 5
ENDMDL
MODEL 2
REMARK VINA RESULT:      -7.7      3.726      5.978
REMARK  Name = 
REMARK  7 active torsions:
REMARK  status: ('A' for Active; 'I' for Inactive)
REMARK    1  A    between atoms: C_1  and  C_2
REMARK    2  A    between atoms: C_2  and  C_3
REMARK    3  A    between atoms: C_13  and  S_14
REMARK    4  A    between atoms: S_14  and  C_17
REMARK    5  A    between atoms: C_17  and  C_18
REMARK    6  A    between atoms: C_18  and  O_20
REMARK    7  A    between atoms: O_20  and  C_21
REMARK                            x       y       z     vdW  Elec       q    Type
REMARK                         _______ _______ _______ _____ _____    ______ ____
ROOT
ATOM      1  C   UNL     1       0.828   8.184  20.820  0.00  0.00    +0.000 C 
ATOM      2  O   UNL     1       0.847   7.291  21.655  0.00  0.00    +0.000 OA
ATOM      3  N   UNL     1       1.554   8.230  19.627  0.00  0.00    +0.000 N 
ATOM      4  C   UNL     1       1.659   9.494  18.878  0.00  0.00    +0.000 C 
ATOM      5  C   UNL     1       2.650   9.324  17.755  0.00  0.00    +0.000 C 
ATOM      6  C   UNL     1       2.985   7.875  17.868  0.00  0.00    +0.000 A 
ATOM      7  C   UNL     1       3.846   7.231  16.987  0.00  0.00    +0.000 A 
ATOM      8  C   UNL     1       4.122   5.895  17.212  0.00  0.00    +0.000 A 
ATOM      9 BR   UNL     1       5.284   4.989  16.025  0.00  0.00    +0.000 Br
ATOM     10  C   UNL     1       3.549   5.219  18.293  0.00  0.00    +0.000 A 
ATOM     11  C   UNL     1       2.645   5.868  19.163  0.00  0.00    +0.000 A 
ATOM     12  C   UNL     1       2.366   7.239  18.967  0.00  0.00    +0.000 A 
ENDROOT
BRANCH  11  13
ATOM     13  S   UNL     1       1.876   4.935  20.455  0.00  0.00    +0.000 S 
ATOM     14  O   UNL     1       2.607   5.295  21.658  0.00  0.00    +0.000 OA
ATOM     15  O   UNL     1       0.445   5.108  20.276  0.00  0.00    +0.000 OA
BRANCH  13  16
ATOM     16  C   UNL     1       2.071   3.122  20.353  0.00  0.00    +0.000 C 
ATOM     17  C   UNL     1       2.957   2.464  21.392  0.00  0.00    +0.000 C 
ATOM     18  C   UNL     1       1.479   2.509  21.634  0.00  0.00    +0.000 C 
BRANCH  16  19
ATOM     19  C   UNL     1       1.769   2.485  19.069  0.00  0.00    +0.000 C 
ATOM     20  O   UNL     1       0.872   2.889  18.342  0.00  0.00    +0.000 OA
BRANCH  19  21
ATOM     21  O   UNL     1       2.645   1.492  18.762  0.00  0.00    +0.000 OA
ATOM     22  C   UNL     1       3.653   1.849  17.816  0.00  0.00    +0.000 C 
ENDBRANCH  19  21
ENDBRANCH  16  19
ENDBRANCH  13  16
ENDBRANCH  11  13
BRANCH   1  24
ATOM     23  C   UNL     1      -0.411   9.643  22.534  0.00  0.00    +0.000 C 
ATOM     24  C   UNL     1      -0.083   9.400  21.069  0.00  0.00    +0.000 C 
ENDBRANCH   1  24
TORSDOF 5
ENDMDL
MODEL 3
REMARK VINA RESULT:      -7.5      7.579      9.992
REMARK  Name = 
REMARK  7 active torsions:
REMARK  status: ('A' for Active; 'I' for Inactive)
REMARK    1  A    between atoms: C_1  and  C_2
REMARK    2  A    between atoms: C_2  and  C_3
REMARK    3  A    between atoms: C_13  and  S_14
REMARK    4  A    between atoms: S_14  and  C_17
REMARK    5  A    between atoms: C_17  and  C_18
REMARK    6  A    between atoms: C_18  and  O_20
REMARK    7  A    between atoms: O_20  and  C_21
REMARK                            x       y       z     vdW  Elec       q    Type
REMARK                         _______ _______ _______ _____ _____    ______ ____
ROOT
ATOM      1  C   UNL     1      -3.028  11.043  16.811  0.00  0.00    +0.000 C 
ATOM      2  O   UNL     1      -1.945  10.558  17.108  0.00  0.00    +0.000 OA
ATOM      3  N   UNL     1      -3.928  11.674  17.674  0.00  0.00    +0.000 N 
ATOM      4  C   UNL     1      -5.310  11.934  17.234  0.00  0.00    +0.000 C 
ATOM      5  C   UNL     1      -6.118  12.429  18.406  0.00  0.00    +0.000 C 
ATOM      6  C   UNL     1      -5.075  12.532  19.468  0.00  0.00    +0.000 A 
ATOM      7  C   UNL     1      -5.347  13.006  20.745  0.00  0.00    +0.000 A 
ATOM      8  C   UNL     1      -4.314  13.016  21.665  0.00  0.00    +0.000 A 
ATOM      9 BR   UNL     1      -4.651  13.664  23.410  0.00  0.00    +0.000 Br
ATOM     10  C   UNL     1      -3.040  12.561  21.313  0.00  0.00    +0.000 A 
ATOM     11  C   UNL     1      -2.760  12.114  20.003  0.00  0.00    +0.000 A 
ATOM     12  C   UNL     1      -3.804  12.074  19.052  0.00  0.00    +0.000 A 
ENDROOT
BRANCH  11  13
ATOM     13  S   UNL     1      -1.105  11.644  19.591  0.00  0.00    +0.000 S 
ATOM     14  O   UNL     1      -1.169  10.208  19.381  0.00  0.00    +0.000 OA
ATOM     15  O   UNL     1      -0.652  12.604  18.600  0.00  0.00    +0.000 OA
BRANCH  13  16
ATOM     16  C   UNL     1       0.132  11.835  20.921  0.00  0.00    +0.000 C 
ATOM     17  C   UNL     1       1.347  12.691  20.615  0.00  0.00    +0.000 C 
ATOM     18  C   UNL     1       0.181  13.322  21.312  0.00  0.00    +0.000 C 
BRANCH  16  19
ATOM     19  C   UNL     1       0.134  10.832  21.986  0.00  0.00    +0.000 C 
ATOM     20  O   UNL     1      -0.848  10.631  22.688  0.00  0.00    +0.000 OA
BRANCH  19  21
ATOM     21  O   UNL     1       1.288  10.115  22.026  0.00  0.00    +0.000 OA
ATOM     22  C   UNL     1       1.157   8.740  21.666  0.00  0.00    +0.000 C 
ENDBRANCH  19  21
ENDBRANCH  16  19
ENDBRANCH  13  16
ENDBRANCH  11  13
BRANCH   1  24
ATOM     23  C   UNL     1      -2.809   9.881  14.530  0.00  0.00    +0.000 C 
ATOM     24  C   UNL     1      -3.481  10.979  15.341  0.00  0.00    +0.000 C 
ENDBRANCH   1  24
TORSDOF 5
ENDMDL
MODEL 4
REMARK VINA RESULT:      -7.3      1.043      1.858
REMARK  Name = 
REMARK  7 active torsions:
REMARK  status: ('A' for Active; 'I' for Inactive)
REMARK    1  A    between atoms: C_1  and  C_2
REMARK    2  A    between atoms: C_2  and  C_3
REMARK    3  A    between atoms: C_13  and  S_14
REMARK    4  A    between atoms: S_14  and  C_17
REMARK    5  A    between atoms: C_17  and  C_18
REMARK    6  A    between atoms: C_18  and  O_20
REMARK    7  A    between atoms: O_20  and  C_21
REMARK                            x       y       z     vdW  Elec       q    Type
REMARK                         _______ _______ _______ _____ _____    ______ ____
ROOT
ATOM      1  C   UNL     1       4.475   3.548  18.869  0.00  0.00    +0.000 C 
ATOM      2  O   UNL     1       5.387   3.632  18.059  0.00  0.00    +0.000 OA
ATOM      3  N   UNL     1       3.589   4.563  19.240  0.00  0.00    +0.000 N 
ATOM      4  C   UNL     1       2.746   4.403  20.437  0.00  0.00    +0.000 C 
ATOM      5  C   UNL     1       2.042   5.704  20.726  0.00  0.00    +0.000 C 
ATOM      6  C   UNL     1       2.459   6.535  19.559  0.00  0.00    +0.000 A 
ATOM      7  C   UNL     1       2.006   7.834  19.362  0.00  0.00    +0.000 A 
ATOM      8  C   UNL     1       2.492   8.530  18.270  0.00  0.00    +0.000 A 
ATOM      9 BR   UNL     1       1.887  10.297  17.968  0.00  0.00    +0.000 Br
ATOM     10  C   UNL     1       3.411   7.939  17.398  0.00  0.00    +0.000 A 
ATOM     11  C   UNL     1       3.841   6.607  17.583  0.00  0.00    +0.000 A 
ATOM     12  C   UNL     1       3.375   5.883  18.703  0.00  0.00    +0.000 A 
ENDROOT
BRANCH  11  13
ATOM     13  S   UNL     1       4.929   5.881  16.391  0.00  0.00    +0.000 S 
ATOM     14  O   UNL     1       4.485   4.503  16.275  0.00  0.00    +0.000 OA
ATOM     15  O   UNL     1       4.996   6.822  15.286  0.00  0.00    +0.000 OA
BRANCH  13  16
ATOM     16  C   UNL     1       6.678   5.736  16.893  0.00  0.00    +0.000 C 
ATOM     17  C   UNL     1       7.337   4.381  16.714  0.00  0.00    +0.000 C 
ATOM     18  C   UNL     1       7.506   5.410  15.638  0.00  0.00    +0.000 C 
BRANCH  16  19
ATOM     19  C   UNL     1       7.194   6.735  17.830  0.00  0.00    +0.000 C 
ATOM     20  O   UNL     1       7.651   6.424  18.921  0.00  0.00    +0.000 OA
BRANCH  19  21
ATOM     21  O   UNL     1       7.189   7.990  17.308  0.00  0.00    +0.000 OA
ATOM     22  C   UNL     1       8.106   8.900  17.916  0.00  0.00    +0.000 C 
ENDBRANCH  19  21
ENDBRANCH  16  19
ENDBRANCH  13  16
ENDBRANCH  11  13
BRANCH   1  24
ATOM     23  C   UNL     1       3.582   1.146  18.695  0.00  0.00    +0.000 C 
ATOM     24  C   UNL     1       4.241   2.199  19.573  0.00  0.00    +0.000 C 
ENDBRANCH   1  24
TORSDOF 5
ENDMDL
MODEL 5
REMARK VINA RESULT:      -7.3      2.378      4.109
REMARK  Name = 
REMARK  7 active torsions:
REMARK  status: ('A' for Active; 'I' for Inactive)
REMARK    1  A    between atoms: C_1  and  C_2
REMARK    2  A    between atoms: C_2  and  C_3
REMARK    3  A    between atoms: C_13  and  S_14
REMARK    4  A    between atoms: S_14  and  C_17
REMARK    5  A    between atoms: C_17  and  C_18
REMARK    6  A    between atoms: C_18  and  O_20
REMARK    7  A    between atoms: O_20  and  C_21
REMARK                            x       y       z     vdW  Elec       q    Type
REMARK                         _______ _______ _______ _____ _____    ______ ____
ROOT
ATOM      1  C   UNL     1       2.312   8.197  18.362  0.00  0.00    +0.000 C 
ATOM      2  O   UNL     1       2.951   8.298  17.324  0.00  0.00    +0.000 OA
ATOM      3  N   UNL     1       2.285   7.098  19.224  0.00  0.00    +0.000 N 
ATOM      4  C   UNL     1       1.247   7.005  20.265  0.00  0.00    +0.000 C 
ATOM      5  C   UNL     1       1.316   5.646  20.913  0.00  0.00    +0.000 C 
ATOM      6  C   UNL     1       2.515   5.057  20.250  0.00  0.00    +0.000 A 
ATOM      7  C   UNL     1       3.011   3.800  20.571  0.00  0.00    +0.000 A 
ATOM      8  C   UNL     1       4.102   3.334  19.861  0.00  0.00    +0.000 A 
ATOM      9 BR   UNL     1       4.806   1.628  20.281  0.00  0.00    +0.000 Br
ATOM     10  C   UNL     1       4.682   4.108  18.853  0.00  0.00    +0.000 A 
ATOM     11  C   UNL     1       4.197   5.401  18.556  0.00  0.00    +0.000 A 
ATOM     12  C   UNL     1       3.070   5.890  19.252  0.00  0.00    +0.000 A 
ENDROOT
BRANCH  11  13
ATOM     13  S   UNL     1       5.035   6.373  17.337  0.00  0.00    +0.000 S 
ATOM     14  O   UNL     1       4.356   6.068  16.089  0.00  0.00    +0.000 OA
ATOM     15  O   UNL     1       5.159   7.705  17.905  0.00  0.00    +0.000 OA
BRANCH  13  16
ATOM     16  C   UNL     1       6.773   5.918  17.011  0.00  0.00    +0.000 C 
ATOM     17  C   UNL     1       7.838   6.904  17.451  0.00  0.00    +0.000 C 
ATOM     18  C   UNL     1       7.486   5.771  18.366  0.00  0.00    +0.000 C 
BRANCH  16  19
ATOM     19  C   UNL     1       7.022   4.912  15.977  0.00  0.00    +0.000 C 
ATOM     20  O   UNL     1       6.566   3.779  16.054  0.00  0.00    +0.000 OA
BRANCH  19  21
ATOM     21  O   UNL     1       7.713   5.412  14.920  0.00  0.00    +0.000 OA
ATOM     22  C   UNL     1       7.296   4.926  13.643  0.00  0.00    +0.000 C 
ENDBRANCH  19  21
ENDBRANCH  16  19
ENDBRANCH  13  16
ENDBRANCH  11  13
BRANCH   1  24
ATOM     23  C   UNL     1       1.865  10.723  18.216  0.00  0.00    +0.000 C 
ATOM     24  C   UNL     1       1.440   9.386  18.805  0.00  0.00    +0.000 C 
ENDBRANCH   1  24
TORSDOF 5
ENDMDL
MODEL 6
REMARK VINA RESULT:      -7.2      7.701     10.144
REMARK  Name = 
REMARK  7 active torsions:
REMARK  status: ('A' for Active; 'I' for Inactive)
REMARK    1  A    between atoms: C_1  and  C_2
REMARK    2  A    between atoms: C_2  and  C_3
REMARK    3  A    between atoms: C_13  and  S_14
REMARK    4  A    between atoms: S_14  and  C_17
REMARK    5  A    between atoms: C_17  and  C_18
REMARK    6  A    between atoms: C_18  and  O_20
REMARK    7  A    between atoms: O_20  and  C_21
REMARK                            x       y       z     vdW  Elec       q    Type
REMARK                         _______ _______ _______ _____ _____    ______ ____
ROOT
ATOM      1  C   UNL     1      -3.879  13.190  21.765  0.00  0.00    +0.000 C 
ATOM      2  O   UNL     1      -2.723  13.561  21.914  0.00  0.00    +0.000 OA
ATOM      3  N   UNL     1      -4.428  12.600  20.623  0.00  0.00    +0.000 N 
ATOM      4  C   UNL     1      -5.890  12.487  20.484  0.00  0.00    +0.000 C 
ATOM      5  C   UNL     1      -6.220  12.008  19.093  0.00  0.00    +0.000 C 
ATOM      6  C   UNL     1      -4.861  11.759  18.532  0.00  0.00    +0.000 A 
ATOM      7  C   UNL     1      -4.656  11.247  17.256  0.00  0.00    +0.000 A 
ATOM      8  C   UNL     1      -3.353  11.099  16.820  0.00  0.00    +0.000 A 
ATOM      9 BR   UNL     1      -3.042  10.396  15.090  0.00  0.00    +0.000 Br
ATOM     10  C   UNL     1      -2.280  11.455  17.641  0.00  0.00    +0.000 A 
ATOM     11  C   UNL     1      -2.492  11.940  18.950  0.00  0.00    +0.000 A 
ATOM     12  C   UNL     1      -3.815  12.122  19.410  0.00  0.00    +0.000 A 
ENDROOT
BRANCH  11  13
ATOM     13  S   UNL     1      -1.092  12.281  19.977  0.00  0.00    +0.000 S 
ATOM     14  O   UNL     1      -0.959  13.728  19.954  0.00  0.00    +0.000 OA
ATOM     15  O   UNL     1      -1.277  11.489  21.181  0.00  0.00    +0.000 OA
BRANCH  13  16
ATOM     16  C   UNL     1       0.518  11.684  19.355  0.00  0.00    +0.000 C 
ATOM     17  C   UNL     1       1.370  12.675  18.585  0.00  0.00    +0.000 C 
ATOM     18  C   UNL     1       1.624  12.496  20.050  0.00  0.00    +0.000 C 
BRANCH  16  19
ATOM     19  C   UNL     1       0.692  10.237  19.221  0.00  0.00    +0.000 C 
ATOM     20  O   UNL     1       0.758   9.692  18.127  0.00  0.00    +0.000 OA
BRANCH  19  21
ATOM     21  O   UNL     1       0.861   9.620  20.419  0.00  0.00    +0.000 OA
ATOM     22  C   UNL     1       1.496   8.342  20.355  0.00  0.00    +0.000 C 
ENDBRANCH  19  21
ENDBRANCH  16  19
ENDBRANCH  13  16
ENDBRANCH  11  13
BRANCH   1  24
ATOM     23  C   UNL     1      -4.543  14.546  23.843  0.00  0.00    +0.000 C 
ATOM     24  C   UNL     1      -4.863  13.369  22.935  0.00  0.00    +0.000 C 
ENDBRANCH   1  24
TORSDOF 5
ENDMDL
MODEL 7
REMARK VINA RESULT:      -7.2      9.277     12.244
REMARK  Name = 
REMARK  7 active torsions:
REMARK  status: ('A' for Active; 'I' for Inactive)
REMARK    1  A    between atoms: C_1  and  C_2
REMARK    2  A    between atoms: C_2  and  C_3
REMARK    3  A    between atoms: C_13  and  S_14
REMARK    4  A    between atoms: S_14  and  C_17
REMARK    5  A    between atoms: C_17  and  C_18
REMARK    6  A    between atoms: C_18  and  O_20
REMARK    7  A    between atoms: O_20  and  C_21
REMARK                            x       y       z     vdW  Elec       q    Type
REMARK                         _______ _______ _______ _____ _____    ______ ____
ROOT
ATOM      1  C   UNL     1      -3.477  10.653  16.530  0.00  0.00    +0.000 C 
ATOM      2  O   UNL     1      -4.565  11.189  16.377  0.00  0.00    +0.000 OA
ATOM      3  N   UNL     1      -2.599  10.831  17.603  0.00  0.00    +0.000 N 
ATOM      4  C   UNL     1      -1.208  10.357  17.502  0.00  0.00    +0.000 C 
ATOM      5  C   UNL     1      -0.429  10.849  18.695  0.00  0.00    +0.000 C 
ATOM      6  C   UNL     1      -1.497  11.511  19.498  0.00  0.00    +0.000 A 
ATOM      7  C   UNL     1      -1.258  12.084  20.741  0.00  0.00    +0.000 A 
ATOM      8  C   UNL     1      -2.312  12.711  21.379  0.00  0.00    +0.000 A 
ATOM      9 BR   UNL     1      -2.019  13.493  23.077  0.00  0.00    +0.000 Br
ATOM     10  C   UNL     1      -3.576  12.765  20.785  0.00  0.00    +0.000 A 
ATOM     11  C   UNL     1      -3.823  12.150  19.538  0.00  0.00    +0.000 A 
ATOM     12  C   UNL     1      -2.757  11.522  18.857  0.00  0.00    +0.000 A 
ENDROOT
BRANCH  11  13
ATOM     13  S   UNL     1      -5.467  12.166  18.883  0.00  0.00    +0.000 S 
ATOM     14  O   UNL     1      -5.393  13.028  17.717  0.00  0.00    +0.000 OA
ATOM     15  O   UNL     1      -5.901  10.779  18.859  0.00  0.00    +0.000 OA
BRANCH  13  16
ATOM     16  C   UNL     1      -6.735  12.958  19.932  0.00  0.00    +0.000 C 
ATOM     17  C   UNL     1      -7.055  14.413  19.647  0.00  0.00    +0.000 C 
ATOM     18  C   UNL     1      -7.916  13.354  19.029  0.00  0.00    +0.000 C 
BRANCH  16  19
ATOM     19  C   UNL     1      -7.022  12.336  21.225  0.00  0.00    +0.000 C 
ATOM     20  O   UNL     1      -7.122  11.123  21.352  0.00  0.00    +0.000 OA
BRANCH  19  21
ATOM     21  O   UNL     1      -7.063  13.239  22.240  0.00  0.00    +0.000 OA
ATOM     22  C   UNL     1      -6.644  12.737  23.510  0.00  0.00    +0.000 C 
ENDBRANCH  19  21
ENDBRANCH  16  19
ENDBRANCH  13  16
ENDBRANCH  11  13
BRANCH   1  24
ATOM     23  C   UNL     1      -3.405  10.032  14.038  0.00  0.00    +0.000 C 
ATOM     24  C   UNL     1      -2.989   9.665  15.454  0.00  0.00    +0.000 C 
ENDBRANCH   1  24
TORSDOF 5
ENDMDL
MODEL 8
REMARK VINA RESULT:      -7.1      2.580      4.414
REMARK  Name = 
REMARK  7 active torsions:
REMARK  status: ('A' for Active; 'I' for Inactive)
REMARK    1  A    between atoms: C_1  and  C_2
REMARK    2  A    between atoms: C_2  and  C_3
REMARK    3  A    between atoms: C_13  and  S_14
REMARK    4  A    between atoms: S_14  and  C_17
REMARK    5  A    between atoms: C_17  and  C_18
REMARK    6  A    between atoms: C_18  and  O_20
REMARK    7  A    between atoms: O_20  and  C_21
REMARK                            x       y       z     vdW  Elec       q    Type
REMARK                         _______ _______ _______ _____ _____    ______ ____
ROOT
ATOM      1  C   UNL     1       2.571   7.772  18.326  0.00  0.00    +0.000 C 
ATOM      2  O   UNL     1       3.155   7.770  17.251  0.00  0.00    +0.000 OA
ATOM      3  N   UNL     1       2.516   6.726  19.250  0.00  0.00    +0.000 N 
ATOM      4  C   UNL     1       1.534   6.764  20.348  0.00  0.00    +0.000 C 
ATOM      5  C   UNL     1       1.545   5.441  21.069  0.00  0.00    +0.000 C 
ATOM      6  C   UNL     1       2.661   4.732  20.378  0.00  0.00    +0.000 A 
ATOM      7  C   UNL     1       3.085   3.460  20.745  0.00  0.00    +0.000 A 
ATOM      8  C   UNL     1       4.098   2.879  20.006  0.00  0.00    +0.000 A 
ATOM      9 BR   UNL     1       4.704   1.151  20.486  0.00  0.00    +0.000 Br
ATOM     10  C   UNL     1       4.674   3.553  18.926  0.00  0.00    +0.000 A 
ATOM     11  C   UNL     1       4.264   4.860  18.580  0.00  0.00    +0.000 A 
ATOM     12  C   UNL     1       3.215   5.467  19.306  0.00  0.00    +0.000 A 
ENDROOT
BRANCH  11  13
ATOM     13  S   UNL     1       5.097   5.702  17.265  0.00  0.00    +0.000 S 
ATOM     14  O   UNL     1       4.216   5.561  16.119  0.00  0.00    +0.000 OA
ATOM     15  O   UNL     1       5.535   6.972  17.818  0.00  0.00    +0.000 OA
BRANCH  13  16
ATOM     16  C   UNL     1       6.665   4.952  16.706  0.00  0.00    +0.000 C 
ATOM     17  C   UNL     1       6.608   4.076  15.469  0.00  0.00    +0.000 C 
ATOM     18  C   UNL     1       6.988   5.516  15.311  0.00  0.00    +0.000 C 
BRANCH  16  19
ATOM     19  C   UNL     1       7.747   4.848  17.686  0.00  0.00    +0.000 C 
ATOM     20  O   UNL     1       8.529   3.907  17.689  0.00  0.00    +0.000 OA
BRANCH  19  21
ATOM     21  O   UNL     1       7.825   5.938  18.494  0.00  0.00    +0.000 OA
ATOM     22  C   UNL     1       8.057   5.651  19.873  0.00  0.00    +0.000 C 
ENDBRANCH  19  21
ENDBRANCH  16  19
ENDBRANCH  13  16
ENDBRANCH  11  13
BRANCH   1  24
ATOM     23  C   UNL     1       0.712   9.458  17.778  0.00  0.00    +0.000 C 
ATOM     24  C   UNL     1       1.810   9.044  18.745  0.00  0.00    +0.000 C 
ENDBRANCH   1  24
TORSDOF 5
ENDMDL
MODEL 9
REMARK VINA RESULT:      -7.1      7.924     10.522
REMARK  Name = 
REMARK  7 active torsions:
REMARK  status: ('A' for Active; 'I' for Inactive)
REMARK    1  A    between atoms: C_1  and  C_2
REMARK    2  A    between atoms: C_2  and  C_3
REMARK    3  A    between atoms: C_13  and  S_14
REMARK    4  A    between atoms: S_14  and  C_17
REMARK    5  A    between atoms: C_17  and  C_18
REMARK    6  A    between atoms: C_18  and  O_20
REMARK    7  A    between atoms: O_20  and  C_21
REMARK                            x       y       z     vdW  Elec       q    Type
REMARK                         _______ _______ _______ _____ _____    ______ ____
ROOT
ATOM      1  C   UNL     1       0.593  10.594  19.046  0.00  0.00    +0.000 C 
ATOM      2  O   UNL     1       1.118  10.979  20.082  0.00  0.00    +0.000 OA
ATOM      3  N   UNL     1      -0.738  10.778  18.662  0.00  0.00    +0.000 N 
ATOM      4  C   UNL     1      -1.293  10.005  17.539  0.00  0.00    +0.000 C 
ATOM      5  C   UNL     1      -2.781  10.237  17.465  0.00  0.00    +0.000 C 
ATOM      6  C   UNL     1      -2.978  11.262  18.530  0.00  0.00    +0.000 A 
ATOM      7  C   UNL     1      -4.214  11.835  18.804  0.00  0.00    +0.000 A 
ATOM      8  C   UNL     1      -4.291  12.742  19.844  0.00  0.00    +0.000 A 
ATOM      9 BR   UNL     1      -5.958  13.546  20.235  0.00  0.00    +0.000 Br
ATOM     10  C   UNL     1      -3.157  13.068  20.593  0.00  0.00    +0.000 A 
ATOM     11  C   UNL     1      -1.895  12.511  20.288  0.00  0.00    +0.000 A 
ATOM     12  C   UNL     1      -1.796  11.565  19.244  0.00  0.00    +0.000 A 
ENDROOT
BRANCH  11  13
ATOM     13  S   UNL     1      -0.478  13.037  21.208  0.00  0.00    +0.000 S 
ATOM     14  O   UNL     1      -0.199  11.939  22.117  0.00  0.00    +0.000 OA
ATOM     15  O   UNL     1       0.462  13.559  20.231  0.00  0.00    +0.000 OA
BRANCH  13  16
ATOM     16  C   UNL     1      -0.732  14.467  22.315  0.00  0.00    +0.000 C 
ATOM     17  C   UNL     1       0.131  15.690  22.071  0.00  0.00    +0.000 C 
ATOM     18  C   UNL     1      -1.236  15.643  21.461  0.00  0.00    +0.000 C 
BRANCH  16  19
ATOM     19  C   UNL     1      -1.377  14.212  23.604  0.00  0.00    +0.000 C 
ATOM     20  O   UNL     1      -2.342  13.468  23.709  0.00  0.00    +0.000 OA
BRANCH  19  21
ATOM     21  O   UNL     1      -0.728  14.809  24.638  0.00  0.00    +0.000 OA
ATOM     22  C   UNL     1      -1.575  15.450  25.592  0.00  0.00    +0.000 C 
ENDBRANCH  19  21
ENDBRANCH  16  19
ENDBRANCH  13  16
ENDBRANCH  11  13
BRANCH   1  24
ATOM     23  C   UNL     1       1.986   8.497  18.535  0.00  0.00    +0.000 C 
ATOM     24  C   UNL     1       1.458   9.830  18.027  0.00  0.00    +0.000 C 
ENDBRANCH   1  24
TORSDOF 5
ENDMDL
