MODEL 1
REMARK VINA RESULT:      -7.8      0.000      0.000
REMARK  Name = 
REMARK  8 active torsions:
REMARK  status: ('A' for Active; 'I' for Inactive)
REMARK    1  A    between atoms: C_1  and  C_2
REMARK    2  A    between atoms: C_2  and  N_3
REMARK    3  A    between atoms: N_3  and  C_4
REMARK    4  A    between atoms: N_3  and  C_6
REMARK    5  A    between atoms: C_4  and  C_5
REMARK    6  A    between atoms: C_6  and  C_7
REMARK    7  A    between atoms: C_10  and  N_11
REMARK    8  A    between atoms: C_16  and  C_17
REMARK                            x       y       z     vdW  Elec       q    Type
REMARK                         _______ _______ _______ _____ _____    ______ ____
ROOT
ATOM      1  N   UNL     1       2.004   8.281  19.798  0.00  0.00    +0.000 N 
ATOM      2  C   UNL     1       2.420   6.949  19.822  0.00  0.00    +0.000 A 
ATOM      3  N   UNL     1       1.700   6.010  20.452  0.00  0.00    +0.000 NA
ATOM      4  C   UNL     1       2.193   4.769  20.527  0.00  0.00    +0.000 A 
ATOM      5  C   UNL     1       3.392   4.417  19.979  0.00  0.00    +0.000 A 
ATOM      6  C   UNL     1       4.061   5.426  19.321  0.00  0.00    +0.000 A 
ATOM      7  N   UNL     1       3.588   6.687  19.228  0.00  0.00    +0.000 NA
ATOM      8  H   UNL     1       2.732   8.851  19.391  0.00  0.00    +0.000 HD
ENDROOT
BRANCH   6   9
ATOM      9  C   UNL     1       5.348   5.166  18.703  0.00  0.00    +0.000 A 
ATOM     10  C   UNL     1       6.622   5.025  19.302  0.00  0.00    +0.000 A 
ATOM     11  N   UNL     1       7.587   4.757  18.423  0.00  0.00    +0.000 NA
ATOM     12  N   UNL     1       6.949   4.739  17.241  0.00  0.00    +0.000 N 
ATOM     13  N   UNL     1       7.645   4.482  16.112  0.00  0.00    +0.000 NA
ATOM     14  C   UNL     1       6.904   4.487  15.054  0.00  0.00    +0.000 A 
ATOM     15  C   UNL     1       5.447   4.748  15.000  0.00  0.00    +0.000 A 
ATOM     16  C   UNL     1       4.829   4.985  16.163  0.00  0.00    +0.000 A 
ATOM     17  C   UNL     1       5.593   4.984  17.356  0.00  0.00    +0.000 A 
ENDBRANCH   6   9
BRANCH   1  21
ATOM     18  C   UNL     1      -0.739  10.306  22.298  0.00  0.00    +0.000 A 
ATOM     19  C   UNL     1       0.235   9.459  22.838  0.00  0.00    +0.000 A 
ATOM     20  C   UNL     1       1.137   8.794  22.001  0.00  0.00    +0.000 A 
ATOM     21  C   UNL     1       1.070   8.942  20.609  0.00  0.00    +0.000 A 
ATOM     22  C   UNL     1       0.083   9.789  20.091  0.00  0.00    +0.000 A 
ATOM     23  C   UNL     1      -0.825  10.444  20.913  0.00  0.00    +0.000 A 
BRANCH  18  24
ATOM     24  C   UNL     1      -1.569  11.211  23.180  0.00  0.00    +0.000 C 
BRANCH  24  25
ATOM     25  N   UNL     1      -1.914  12.477  22.503  0.00  0.00    +0.000 NA
BRANCH  25  27
ATOM     26  C   UNL     1      -3.789  13.935  23.349  0.00  0.00    +0.000 C 
ATOM     27  C   UNL     1      -3.367  12.731  22.515  0.00  0.00    +0.000 C 
ENDBRANCH  25  27
BRANCH  25  28
ATOM     28  C   UNL     1      -1.098  13.590  23.001  0.00  0.00    +0.000 C 
ATOM     29  C   UNL     1      -0.021  14.114  22.055  0.00  0.00    +0.000 C 
ENDBRANCH  25  28
ENDBRANCH  24  25
ENDBRANCH  18  24
ENDBRANCH   1  21
TORSDOF 6
ENDMDL
MODEL 2
REMARK VINA RESULT:      -7.7      2.187      3.543
REMARK  Name = 
REMARK  8 active torsions:
REMARK  status: ('A' for Active; 'I' for Inactive)
REMARK    1  A    between atoms: C_1  and  C_2
REMARK    2  A    between atoms: C_2  and  N_3
REMARK    3  A    between atoms: N_3  and  C_4
REMARK    4  A    between atoms: N_3  and  C_6
REMARK    5  A    between atoms: C_4  and  C_5
REMARK    6  A    between atoms: C_6  and  C_7
REMARK    7  A    between atoms: C_10  and  N_11
REMARK    8  A    between atoms: C_16  and  C_17
REMARK                            x       y       z     vdW  Elec       q    Type
REMARK                         _______ _______ _______ _____ _____    ______ ____
ROOT
ATOM      1  N   UNL     1       0.963   8.990  21.288  0.00  0.00    +0.000 N 
ATOM      2  C   UNL     1       1.576   8.574  20.105  0.00  0.00    +0.000 A 
ATOM      3  N   UNL     1       1.522   9.325  18.996  0.00  0.00    +0.000 NA
ATOM      4  C   UNL     1       2.043   8.835  17.865  0.00  0.00    +0.000 A 
ATOM      5  C   UNL     1       2.636   7.608  17.798  0.00  0.00    +0.000 A 
ATOM      6  C   UNL     1       2.683   6.907  18.983  0.00  0.00    +0.000 A 
ATOM      7  N   UNL     1       2.167   7.376  20.140  0.00  0.00    +0.000 NA
ATOM      8  H   UNL     1       1.004   8.243  21.966  0.00  0.00    +0.000 HD
ENDROOT
BRANCH   6   9
ATOM      9  C   UNL     1       3.288   5.589  19.027  0.00  0.00    +0.000 A 
ATOM     10  C   UNL     1       4.647   5.227  19.192  0.00  0.00    +0.000 A 
ATOM     11  N   UNL     1       4.838   3.909  19.214  0.00  0.00    +0.000 NA
ATOM     12  N   UNL     1       3.605   3.402  19.047  0.00  0.00    +0.000 N 
ATOM     13  N   UNL     1       3.432   2.062  19.030  0.00  0.00    +0.000 NA
ATOM     14  C   UNL     1       2.196   1.718  18.872  0.00  0.00    +0.000 A 
ATOM     15  C   UNL     1       1.042   2.631  18.709  0.00  0.00    +0.000 A 
ATOM     16  C   UNL     1       1.296   3.944  18.747  0.00  0.00    +0.000 A 
ATOM     17  C   UNL     1       2.632   4.377  18.926  0.00  0.00    +0.000 A 
ENDBRANCH   6   9
BRANCH   1  21
ATOM     18  C   UNL     1      -1.951  11.976  21.967  0.00  0.00    +0.000 A 
ATOM     19  C   UNL     1      -1.435  11.223  23.027  0.00  0.00    +0.000 A 
ATOM     20  C   UNL     1      -0.471  10.237  22.790  0.00  0.00    +0.000 A 
ATOM     21  C   UNL     1      -0.022   9.967  21.490  0.00  0.00    +0.000 A 
ATOM     22  C   UNL     1      -0.557  10.729  20.445  0.00  0.00    +0.000 A 
ATOM     23  C   UNL     1      -1.523  11.702  20.668  0.00  0.00    +0.000 A 
BRANCH  18  24
ATOM     24  C   UNL     1      -2.812  13.194  22.216  0.00  0.00    +0.000 C 
BRANCH  24  25
ATOM     25  N   UNL     1      -4.229  12.835  22.426  0.00  0.00    +0.000 NA
BRANCH  25  27
ATOM     26  C   UNL     1      -4.761  12.325  24.837  0.00  0.00    +0.000 C 
ATOM     27  C   UNL     1      -4.743  13.350  23.710  0.00  0.00    +0.000 C 
ENDBRANCH  25  27
BRANCH  25  28
ATOM     28  C   UNL     1      -5.049  13.183  21.261  0.00  0.00    +0.000 C 
ATOM     29  C   UNL     1      -6.115  12.168  20.858  0.00  0.00    +0.000 C 
ENDBRANCH  25  28
ENDBRANCH  24  25
ENDBRANCH  18  24
ENDBRANCH   1  21
TORSDOF 6
ENDMDL
MODEL 3
REMARK VINA RESULT:      -7.7      2.195      4.179
REMARK  Name = 
REMARK  8 active torsions:
REMARK  status: ('A' for Active; 'I' for Inactive)
REMARK    1  A    between atoms: C_1  and  C_2
REMARK    2  A    between atoms: C_2  and  N_3
REMARK    3  A    between atoms: N_3  and  C_4
REMARK    4  A    between atoms: N_3  and  C_6
REMARK    5  A    between atoms: C_4  and  C_5
REMARK    6  A    between atoms: C_6  and  C_7
REMARK    7  A    between atoms: C_10  and  N_11
REMARK    8  A    between atoms: C_16  and  C_17
REMARK                            x       y       z     vdW  Elec       q    Type
REMARK                         _______ _______ _______ _____ _____    ______ ____
ROOT
ATOM      1  N   UNL     1       0.648   9.498  21.328  0.00  0.00    +0.000 N 
ATOM      2  C   UNL     1       1.259   9.125  20.130  0.00  0.00    +0.000 A 
ATOM      3  N   UNL     1       1.227   9.928  19.057  0.00  0.00    +0.000 NA
ATOM      4  C   UNL     1       1.745   9.481  17.907  0.00  0.00    +0.000 A 
ATOM      5  C   UNL     1       2.313   8.246  17.785  0.00  0.00    +0.000 A 
ATOM      6  C   UNL     1       2.338   7.490  18.937  0.00  0.00    +0.000 A 
ATOM      7  N   UNL     1       1.825   7.915  20.111  0.00  0.00    +0.000 NA
ATOM      8  H   UNL     1       0.669   8.719  21.971  0.00  0.00    +0.000 HD
ENDROOT
BRANCH   6   9
ATOM      9  C   UNL     1       2.916   6.159  18.922  0.00  0.00    +0.000 A 
ATOM     10  C   UNL     1       4.089   5.693  18.282  0.00  0.00    +0.000 A 
ATOM     11  N   UNL     1       4.335   4.404  18.511  0.00  0.00    +0.000 NA
ATOM     12  N   UNL     1       3.312   4.016  19.291  0.00  0.00    +0.000 N 
ATOM     13  N   UNL     1       3.253   2.738  19.726  0.00  0.00    +0.000 NA
ATOM     14  C   UNL     1       2.224   2.509  20.472  0.00  0.00    +0.000 A 
ATOM     15  C   UNL     1       1.174   3.483  20.847  0.00  0.00    +0.000 A 
ATOM     16  C   UNL     1       1.309   4.731  20.383  0.00  0.00    +0.000 A 
ATOM     17  C   UNL     1       2.425   5.039  19.566  0.00  0.00    +0.000 A 
ENDBRANCH   6   9
BRANCH   1  21
ATOM     18  C   UNL     1      -2.324  12.432  21.987  0.00  0.00    +0.000 A 
ATOM     19  C   UNL     1      -1.848  12.169  20.697  0.00  0.00    +0.000 A 
ATOM     20  C   UNL     1      -0.864  11.196  20.492  0.00  0.00    +0.000 A 
ATOM     21  C   UNL     1      -0.319  10.484  21.570  0.00  0.00    +0.000 A 
ATOM     22  C   UNL     1      -0.806  10.769  22.851  0.00  0.00    +0.000 A 
ATOM     23  C   UNL     1      -1.775  11.742  23.067  0.00  0.00    +0.000 A 
BRANCH  18  24
ATOM     24  C   UNL     1      -3.540  13.302  22.212  0.00  0.00    +0.000 C 
BRANCH  24  25
ATOM     25  N   UNL     1      -4.784  12.508  22.269  0.00  0.00    +0.000 NA
BRANCH  25  27
ATOM     26  C   UNL     1      -4.971  12.315  24.776  0.00  0.00    +0.000 C 
ATOM     27  C   UNL     1      -5.580  12.816  23.472  0.00  0.00    +0.000 C 
ENDBRANCH  25  27
BRANCH  25  28
ATOM     28  C   UNL     1      -5.531  12.590  21.009  0.00  0.00    +0.000 C 
ATOM     29  C   UNL     1      -6.720  11.644  20.866  0.00  0.00    +0.000 C 
ENDBRANCH  25  28
ENDBRANCH  24  25
ENDBRANCH  18  24
ENDBRANCH   1  21
TORSDOF 6
ENDMDL
MODEL 4
REMARK VINA RESULT:      -7.6      1.157      1.300
REMARK  Name = 
REMARK  8 active torsions:
REMARK  status: ('A' for Active; 'I' for Inactive)
REMARK    1  A    between atoms: C_1  and  C_2
REMARK    2  A    between atoms: C_2  and  N_3
REMARK    3  A    between atoms: N_3  and  C_4
REMARK    4  A    between atoms: N_3  and  C_6
REMARK    5  A    between atoms: C_4  and  C_5
REMARK    6  A    between atoms: C_6  and  C_7
REMARK    7  A    between atoms: C_10  and  N_11
REMARK    8  A    between atoms: C_16  and  C_17
REMARK                            x       y       z     vdW  Elec       q    Type
REMARK                         _______ _______ _______ _____ _____    ______ ____
ROOT
ATOM      1  N   UNL     1       1.908   8.643  19.073  0.00  0.00    +0.000 N 
ATOM      2  C   UNL     1       2.588   7.424  19.046  0.00  0.00    +0.000 A 
ATOM      3  N   UNL     1       2.230   6.413  19.850  0.00  0.00    +0.000 NA
ATOM      4  C   UNL     1       2.976   5.302  19.852  0.00  0.00    +0.000 A 
ATOM      5  C   UNL     1       4.080   5.153  19.063  0.00  0.00    +0.000 A 
ATOM      6  C   UNL     1       4.368   6.221  18.242  0.00  0.00    +0.000 A 
ATOM      7  N   UNL     1       3.634   7.354  18.217  0.00  0.00    +0.000 NA
ATOM      8  H   UNL     1       2.398   9.312  18.498  0.00  0.00    +0.000 HD
ENDROOT
BRANCH   6   9
ATOM      9  C   UNL     1       5.521   6.173  17.362  0.00  0.00    +0.000 A 
ATOM     10  C   UNL     1       6.760   6.851  17.463  0.00  0.00    +0.000 A 
ATOM     11  N   UNL     1       7.607   6.542  16.483  0.00  0.00    +0.000 NA
ATOM     12  N   UNL     1       6.919   5.671  15.726  0.00  0.00    +0.000 N 
ATOM     13  N   UNL     1       7.499   5.139  14.628  0.00  0.00    +0.000 NA
ATOM     14  C   UNL     1       6.727   4.313  14.003  0.00  0.00    +0.000 A 
ATOM     15  C   UNL     1       5.343   3.945  14.378  0.00  0.00    +0.000 A 
ATOM     16  C   UNL     1       4.843   4.509  15.484  0.00  0.00    +0.000 A 
ATOM     17  C   UNL     1       5.651   5.417  16.213  0.00  0.00    +0.000 A 
ENDBRANCH   6   9
BRANCH   1  21
ATOM     18  C   UNL     1      -0.605  10.242  22.073  0.00  0.00    +0.000 A 
ATOM     19  C   UNL     1       0.384   9.304  22.390  0.00  0.00    +0.000 A 
ATOM     20  C   UNL     1       1.209   8.782  21.389  0.00  0.00    +0.000 A 
ATOM     21  C   UNL     1       1.048   9.166  20.050  0.00  0.00    +0.000 A 
ATOM     22  C   UNL     1       0.048  10.100  19.757  0.00  0.00    +0.000 A 
ATOM     23  C   UNL     1      -0.784  10.616  20.742  0.00  0.00    +0.000 A 
BRANCH  18  24
ATOM     24  C   UNL     1      -1.350  10.992  23.155  0.00  0.00    +0.000 C 
BRANCH  24  25
ATOM     25  N   UNL     1      -1.956  12.239  22.644  0.00  0.00    +0.000 NA
BRANCH  25  27
ATOM     26  C   UNL     1      -4.321  12.826  21.998  0.00  0.00    +0.000 C 
ATOM     27  C   UNL     1      -3.352  12.397  23.093  0.00  0.00    +0.000 C 
ENDBRANCH  25  27
BRANCH  25  28
ATOM     28  C   UNL     1      -1.098  13.399  22.909  0.00  0.00    +0.000 C 
ATOM     29  C   UNL     1      -1.529  14.311  24.054  0.00  0.00    +0.000 C 
ENDBRANCH  25  28
ENDBRANCH  24  25
ENDBRANCH  18  24
ENDBRANCH   1  21
TORSDOF 6
ENDMDL
MODEL 5
REMARK VINA RESULT:      -7.6      0.438      1.016
REMARK  Name = 
REMARK  8 active torsions:
REMARK  status: ('A' for Active; 'I' for Inactive)
REMARK    1  A    between atoms: C_1  and  C_2
REMARK    2  A    between atoms: C_2  and  N_3
REMARK    3  A    between atoms: N_3  and  C_4
REMARK    4  A    between atoms: N_3  and  C_6
REMARK    5  A    between atoms: C_4  and  C_5
REMARK    6  A    between atoms: C_6  and  C_7
REMARK    7  A    between atoms: C_10  and  N_11
REMARK    8  A    between atoms: C_16  and  C_17
REMARK                            x       y       z     vdW  Elec       q    Type
REMARK                         _______ _______ _______ _____ _____    ______ ____
ROOT
ATOM      1  N   UNL     1       2.075   8.323  19.831  0.00  0.00    +0.000 N 
ATOM      2  C   UNL     1       2.442   6.976  19.850  0.00  0.00    +0.000 A 
ATOM      3  N   UNL     1       1.704   6.065  20.501  0.00  0.00    +0.000 NA
ATOM      4  C   UNL     1       2.153   4.807  20.568  0.00  0.00    +0.000 A 
ATOM      5  C   UNL     1       3.326   4.411  19.993  0.00  0.00    +0.000 A 
ATOM      6  C   UNL     1       4.014   5.393  19.315  0.00  0.00    +0.000 A 
ATOM      7  N   UNL     1       3.586   6.671  19.229  0.00  0.00    +0.000 NA
ATOM      8  H   UNL     1       2.813   8.864  19.405  0.00  0.00    +0.000 HD
ENDROOT
BRANCH   6   9
ATOM      9  C   UNL     1       5.276   5.084  18.668  0.00  0.00    +0.000 A 
ATOM     10  C   UNL     1       6.559   4.902  19.236  0.00  0.00    +0.000 A 
ATOM     11  N   UNL     1       7.492   4.596  18.335  0.00  0.00    +0.000 NA
ATOM     12  N   UNL     1       6.825   4.594  17.169  0.00  0.00    +0.000 N 
ATOM     13  N   UNL     1       7.483   4.307  16.025  0.00  0.00    +0.000 NA
ATOM     14  C   UNL     1       6.717   4.332  14.985  0.00  0.00    +0.000 A 
ATOM     15  C   UNL     1       5.269   4.644  14.965  0.00  0.00    +0.000 A 
ATOM     16  C   UNL     1       4.689   4.909  16.142  0.00  0.00    +0.000 A 
ATOM     17  C   UNL     1       5.481   4.887  17.315  0.00  0.00    +0.000 A 
ENDBRANCH   6   9
BRANCH   1  21
ATOM     18  C   UNL     1      -0.685  10.389  22.278  0.00  0.00    +0.000 A 
ATOM     19  C   UNL     1      -0.691  10.556  20.888  0.00  0.00    +0.000 A 
ATOM     20  C   UNL     1       0.227   9.867  20.089  0.00  0.00    +0.000 A 
ATOM     21  C   UNL     1       1.185   9.018  20.661  0.00  0.00    +0.000 A 
ATOM     22  C   UNL     1       1.176   8.872  22.053  0.00  0.00    +0.000 A 
ATOM     23  C   UNL     1       0.276   9.561  22.857  0.00  0.00    +0.000 A 
BRANCH  18  24
ATOM     24  C   UNL     1      -1.803  10.933  23.138  0.00  0.00    +0.000 C 
BRANCH  24  25
ATOM     25  N   UNL     1      -2.209  12.291  22.723  0.00  0.00    +0.000 NA
BRANCH  25  27
ATOM     26  C   UNL     1      -4.098  12.624  24.359  0.00  0.00    +0.000 C 
ATOM     27  C   UNL     1      -3.655  12.514  22.905  0.00  0.00    +0.000 C 
ENDBRANCH  25  27
BRANCH  25  28
ATOM     28  C   UNL     1      -1.355  13.315  23.334  0.00  0.00    +0.000 C 
ATOM     29  C   UNL     1      -1.125  14.581  22.512  0.00  0.00    +0.000 C 
ENDBRANCH  25  28
ENDBRANCH  24  25
ENDBRANCH  18  24
ENDBRANCH   1  21
TORSDOF 6
ENDMDL
MODEL 6
REMARK VINA RESULT:      -7.5      0.871      1.593
REMARK  Name = 
REMARK  8 active torsions:
REMARK  status: ('A' for Active; 'I' for Inactive)
REMARK    1  A    between atoms: C_1  and  C_2
REMARK    2  A    between atoms: C_2  and  N_3
REMARK    3  A    between atoms: N_3  and  C_4
REMARK    4  A    between atoms: N_3  and  C_6
REMARK    5  A    between atoms: C_4  and  C_5
REMARK    6  A    between atoms: C_6  and  C_7
REMARK    7  A    between atoms: C_10  and  N_11
REMARK    8  A    between atoms: C_16  and  C_17
REMARK                            x       y       z     vdW  Elec       q    Type
REMARK                         _______ _______ _______ _____ _____    ______ ____
ROOT
ATOM      1  N   UNL     1       1.892   8.702  18.851  0.00  0.00    +0.000 N 
ATOM      2  C   UNL     1       2.312   7.417  19.198  0.00  0.00    +0.000 A 
ATOM      3  N   UNL     1       1.584   6.647  20.018  0.00  0.00    +0.000 NA
ATOM      4  C   UNL     1       2.080   5.463  20.393  0.00  0.00    +0.000 A 
ATOM      5  C   UNL     1       3.293   5.003  19.968  0.00  0.00    +0.000 A 
ATOM      6  C   UNL     1       3.970   5.834  19.102  0.00  0.00    +0.000 A 
ATOM      7  N   UNL     1       3.494   7.033  18.705  0.00  0.00    +0.000 NA
ATOM      8  H   UNL     1       2.626   9.166  18.335  0.00  0.00    +0.000 HD
ENDROOT
BRANCH   6   9
ATOM      9  C   UNL     1       5.271   5.447  18.588  0.00  0.00    +0.000 A 
ATOM     10  C   UNL     1       6.478   5.201  19.285  0.00  0.00    +0.000 A 
ATOM     11  N   UNL     1       7.478   4.832  18.486  0.00  0.00    +0.000 NA
ATOM     12  N   UNL     1       6.932   4.850  17.259  0.00  0.00    +0.000 N 
ATOM     13  N   UNL     1       7.685   4.511  16.190  0.00  0.00    +0.000 NA
ATOM     14  C   UNL     1       7.030   4.563  15.077  0.00  0.00    +0.000 A 
ATOM     15  C   UNL     1       5.611   4.954  14.908  0.00  0.00    +0.000 A 
ATOM     16  C   UNL     1       4.932   5.268  16.018  0.00  0.00    +0.000 A 
ATOM     17  C   UNL     1       5.600   5.218  17.266  0.00  0.00    +0.000 A 
ENDBRANCH   6   9
BRANCH   1  21
ATOM     18  C   UNL     1      -0.911  11.246  20.734  0.00  0.00    +0.000 A 
ATOM     19  C   UNL     1       0.179  10.729  21.443  0.00  0.00    +0.000 A 
ATOM     20  C   UNL     1       1.100   9.888  20.809  0.00  0.00    +0.000 A 
ATOM     21  C   UNL     1       0.938   9.527  19.465  0.00  0.00    +0.000 A 
ATOM     22  C   UNL     1      -0.163  10.051  18.778  0.00  0.00    +0.000 A 
ATOM     23  C   UNL     1      -1.090  10.877  19.401  0.00  0.00    +0.000 A 
BRANCH  18  24
ATOM     24  C   UNL     1      -1.784  12.332  21.320  0.00  0.00    +0.000 C 
BRANCH  24  25
ATOM     25  N   UNL     1      -1.668  12.400  22.791  0.00  0.00    +0.000 NA
BRANCH  25  27
ATOM     26  C   UNL     1      -0.175  14.390  22.381  0.00  0.00    +0.000 C 
ATOM     27  C   UNL     1      -1.243  13.737  23.249  0.00  0.00    +0.000 C 
ENDBRANCH  25  27
BRANCH  25  28
ATOM     28  C   UNL     1      -2.875  11.889  23.449  0.00  0.00    +0.000 C 
ATOM     29  C   UNL     1      -3.739  12.919  24.172  0.00  0.00    +0.000 C 
ENDBRANCH  25  28
ENDBRANCH  24  25
ENDBRANCH  18  24
ENDBRANCH   1  21
TORSDOF 6
ENDMDL
MODEL 7
REMARK VINA RESULT:      -7.5      1.711      2.257
REMARK  Name = 
REMARK  8 active torsions:
REMARK  status: ('A' for Active; 'I' for Inactive)
REMARK    1  A    between atoms: C_1  and  C_2
REMARK    2  A    between atoms: C_2  and  N_3
REMARK    3  A    between atoms: N_3  and  C_4
REMARK    4  A    between atoms: N_3  and  C_6
REMARK    5  A    between atoms: C_4  and  C_5
REMARK    6  A    between atoms: C_6  and  C_7
REMARK    7  A    between atoms: C_10  and  N_11
REMARK    8  A    between atoms: C_16  and  C_17
REMARK                            x       y       z     vdW  Elec       q    Type
REMARK                         _______ _______ _______ _____ _____    ______ ____
ROOT
ATOM      1  N   UNL     1       1.699   9.273  17.858  0.00  0.00    +0.000 N 
ATOM      2  C   UNL     1       2.363   8.086  18.172  0.00  0.00    +0.000 A 
ATOM      3  N   UNL     1       1.896   7.259  19.118  0.00  0.00    +0.000 NA
ATOM      4  C   UNL     1       2.623   6.185  19.446  0.00  0.00    +0.000 A 
ATOM      5  C   UNL     1       3.815   5.892  18.850  0.00  0.00    +0.000 A 
ATOM      6  C   UNL     1       4.216   6.769  17.866  0.00  0.00    +0.000 A 
ATOM      7  N   UNL     1       3.504   7.860  17.513  0.00  0.00    +0.000 NA
ATOM      8  H   UNL     1       2.265   9.814  17.221  0.00  0.00    +0.000 HD
ENDROOT
BRANCH   6   9
ATOM      9  C   UNL     1       5.471   6.556  17.167  0.00  0.00    +0.000 A 
ATOM     10  C   UNL     1       6.742   7.131  17.404  0.00  0.00    +0.000 A 
ATOM     11  N   UNL     1       7.684   6.677  16.578  0.00  0.00    +0.000 NA
ATOM     12  N   UNL     1       7.027   5.814  15.785  0.00  0.00    +0.000 N 
ATOM     13  N   UNL     1       7.700   5.153  14.818  0.00  0.00    +0.000 NA
ATOM     14  C   UNL     1       6.946   4.352  14.140  0.00  0.00    +0.000 A 
ATOM     15  C   UNL     1       5.494   4.134  14.334  0.00  0.00    +0.000 A 
ATOM     16  C   UNL     1       4.903   4.820  15.318  0.00  0.00    +0.000 A 
ATOM     17  C   UNL     1       5.685   5.707  16.098  0.00  0.00    +0.000 A 
ENDBRANCH   6   9
BRANCH   1  21
ATOM     18  C   UNL     1      -1.165  11.467  20.063  0.00  0.00    +0.000 A 
ATOM     19  C   UNL     1       0.161  11.372  20.502  0.00  0.00    +0.000 A 
ATOM     20  C   UNL     1       1.099  10.643  19.764  0.00  0.00    +0.000 A 
ATOM     21  C   UNL     1       0.729   9.974  18.589  0.00  0.00    +0.000 A 
ATOM     22  C   UNL     1      -0.603  10.079  18.173  0.00  0.00    +0.000 A 
ATOM     23  C   UNL     1      -1.546  10.791  18.904  0.00  0.00    +0.000 A 
BRANCH  18  24
ATOM     24  C   UNL     1      -2.137  12.430  20.706  0.00  0.00    +0.000 C 
BRANCH  24  25
ATOM     25  N   UNL     1      -1.746  12.768  22.090  0.00  0.00    +0.000 NA
BRANCH  25  27
ATOM     26  C   UNL     1      -0.495  14.822  22.846  0.00  0.00    +0.000 C 
ATOM     27  C   UNL     1      -1.800  14.220  22.339  0.00  0.00    +0.000 C 
ENDBRANCH  25  27
BRANCH  25  28
ATOM     28  C   UNL     1      -2.480  11.956  23.067  0.00  0.00    +0.000 C 
ATOM     29  C   UNL     1      -3.608  12.659  23.818  0.00  0.00    +0.000 C 
ENDBRANCH  25  28
ENDBRANCH  24  25
ENDBRANCH  18  24
ENDBRANCH   1  21
TORSDOF 6
ENDMDL
MODEL 8
REMARK VINA RESULT:      -7.4      1.981     10.372
REMARK  Name = 
REMARK  8 active torsions:
REMARK  status: ('A' for Active; 'I' for Inactive)
REMARK    1  A    between atoms: C_1  and  C_2
REMARK    2  A    between atoms: C_2  and  N_3
REMARK    3  A    between atoms: N_3  and  C_4
REMARK    4  A    between atoms: N_3  and  C_6
REMARK    5  A    between atoms: C_4  and  C_5
REMARK    6  A    between atoms: C_6  and  C_7
REMARK    7  A    between atoms: C_10  and  N_11
REMARK    8  A    between atoms: C_16  and  C_17
REMARK                            x       y       z     vdW  Elec       q    Type
REMARK                         _______ _______ _______ _____ _____    ______ ____
ROOT
ATOM      1  N   UNL     1       2.654   6.125  18.809  0.00  0.00    +0.000 N 
ATOM      2  C   UNL     1       2.175   7.436  18.788  0.00  0.00    +0.000 A 
ATOM      3  N   UNL     1       2.324   8.211  17.705  0.00  0.00    +0.000 NA
ATOM      4  C   UNL     1       1.933   9.489  17.774  0.00  0.00    +0.000 A 
ATOM      5  C   UNL     1       1.380  10.031  18.897  0.00  0.00    +0.000 A 
ATOM      6  C   UNL     1       1.230   9.167  19.960  0.00  0.00    +0.000 A 
ATOM      7  N   UNL     1       1.614   7.873  19.919  0.00  0.00    +0.000 NA
ATOM      8  H   UNL     1       2.563   5.750  19.742  0.00  0.00    +0.000 HD
ENDROOT
BRANCH   6   9
ATOM      9  C   UNL     1       0.656   9.638  21.206  0.00  0.00    +0.000 A 
ATOM     10  C   UNL     1       0.936   9.238  22.535  0.00  0.00    +0.000 A 
ATOM     11  N   UNL     1       0.233   9.912  23.444  0.00  0.00    +0.000 NA
ATOM     12  N   UNL     1      -0.523  10.747  22.711  0.00  0.00    +0.000 N 
ATOM     13  N   UNL     1      -1.367  11.600  23.332  0.00  0.00    +0.000 NA
ATOM     14  C   UNL     1      -2.022  12.347  22.506  0.00  0.00    +0.000 A 
ATOM     15  C   UNL     1      -1.924  12.323  21.029  0.00  0.00    +0.000 A 
ATOM     16  C   UNL     1      -1.059  11.456  20.491  0.00  0.00    +0.000 A 
ATOM     17  C   UNL     1      -0.308  10.618  21.352  0.00  0.00    +0.000 A 
ENDBRANCH   6   9
BRANCH   1  21
ATOM     18  C   UNL     1       5.403   4.189  16.245  0.00  0.00    +0.000 A 
ATOM     19  C   UNL     1       4.545   3.450  17.068  0.00  0.00    +0.000 A 
ATOM     20  C   UNL     1       3.640   4.102  17.912  0.00  0.00    +0.000 A 
ATOM     21  C   UNL     1       3.590   5.501  17.971  0.00  0.00    +0.000 A 
ATOM     22  C   UNL     1       4.461   6.219  17.143  0.00  0.00    +0.000 A 
ATOM     23  C   UNL     1       5.372   5.581  16.310  0.00  0.00    +0.000 A 
BRANCH  18  24
ATOM     24  C   UNL     1       6.219   3.520  15.162  0.00  0.00    +0.000 C 
BRANCH  24  25
ATOM     25  N   UNL     1       6.242   4.316  13.918  0.00  0.00    +0.000 NA
BRANCH  25  27
ATOM     26  C   UNL     1       7.929   5.491  12.458  0.00  0.00    +0.000 C 
ATOM     27  C   UNL     1       7.406   5.220  13.864  0.00  0.00    +0.000 C 
ENDBRANCH  25  27
BRANCH  25  28
ATOM     28  C   UNL     1       6.079   3.465  12.734  0.00  0.00    +0.000 C 
ATOM     29  C   UNL     1       4.735   3.559  12.016  0.00  0.00    +0.000 C 
ENDBRANCH  25  28
ENDBRANCH  24  25
ENDBRANCH  18  24
ENDBRANCH   1  21
TORSDOF 6
ENDMDL
MODEL 9
REMARK VINA RESULT:      -7.4      1.531      2.410
REMARK  Name = 
REMARK  8 active torsions:
REMARK  status: ('A' for Active; 'I' for Inactive)
REMARK    1  A    between atoms: C_1  and  C_2
REMARK    2  A    between atoms: C_2  and  N_3
REMARK    3  A    between atoms: N_3  and  C_4
REMARK    4  A    between atoms: N_3  and  C_6
REMARK    5  A    between atoms: C_4  and  C_5
REMARK    6  A    between atoms: C_6  and  C_7
REMARK    7  A    between atoms: C_10  and  N_11
REMARK    8  A    between atoms: C_16  and  C_17
REMARK                            x       y       z     vdW  Elec       q    Type
REMARK                         _______ _______ _______ _____ _____    ______ ____
ROOT
ATOM      1  N   UNL     1       2.038   9.093  17.829  0.00  0.00    +0.000 N 
ATOM      2  C   UNL     1       2.404   7.908  18.468  0.00  0.00    +0.000 A 
ATOM      3  N   UNL     1       1.660   7.395  19.458  0.00  0.00    +0.000 NA
ATOM      4  C   UNL     1       2.108   6.311  20.100  0.00  0.00    +0.000 A 
ATOM      5  C   UNL     1       3.285   5.699  19.782  0.00  0.00    +0.000 A 
ATOM      6  C   UNL     1       3.980   6.262  18.733  0.00  0.00    +0.000 A 
ATOM      7  N   UNL     1       3.553   7.355  18.066  0.00  0.00    +0.000 NA
ATOM      8  H   UNL     1       2.780   9.381  17.207  0.00  0.00    +0.000 HD
ENDROOT
BRANCH   6   9
ATOM      9  C   UNL     1       5.247   5.694  18.311  0.00  0.00    +0.000 A 
ATOM     10  C   UNL     1       6.357   5.290  19.090  0.00  0.00    +0.000 A 
ATOM     11  N   UNL     1       7.349   4.779  18.362  0.00  0.00    +0.000 NA
ATOM     12  N   UNL     1       6.898   4.863  17.099  0.00  0.00    +0.000 N 
ATOM     13  N   UNL     1       7.670   4.415  16.085  0.00  0.00    +0.000 NA
ATOM     14  C   UNL     1       7.107   4.550  14.930  0.00  0.00    +0.000 A 
ATOM     15  C   UNL     1       5.771   5.132  14.663  0.00  0.00    +0.000 A 
ATOM     16  C   UNL     1       5.066   5.545  15.722  0.00  0.00    +0.000 A 
ATOM     17  C   UNL     1       5.633   5.413  17.014  0.00  0.00    +0.000 A 
ENDBRANCH   6   9
BRANCH   1  21
ATOM     18  C   UNL     1      -0.720  12.029  19.114  0.00  0.00    +0.000 A 
ATOM     19  C   UNL     1      -1.159  10.849  18.502  0.00  0.00    +0.000 A 
ATOM     20  C   UNL     1      -0.237   9.886  18.080  0.00  0.00    +0.000 A 
ATOM     21  C   UNL     1       1.141  10.090  18.239  0.00  0.00    +0.000 A 
ATOM     22  C   UNL     1       1.557  11.279  18.848  0.00  0.00    +0.000 A 
ATOM     23  C   UNL     1       0.650  12.248  19.259  0.00  0.00    +0.000 A 
BRANCH  18  24
ATOM     24  C   UNL     1      -1.691  12.974  19.784  0.00  0.00    +0.000 C 
BRANCH  24  25
ATOM     25  N   UNL     1      -2.430  12.318  20.882  0.00  0.00    +0.000 NA
BRANCH  25  27
ATOM     26  C   UNL     1      -1.204  11.214  22.788  0.00  0.00    +0.000 C 
ATOM     27  C   UNL     1      -1.758  12.497  22.183  0.00  0.00    +0.000 C 
ENDBRANCH  25  27
BRANCH  25  28
ATOM     28  C   UNL     1      -3.848  12.694  20.874  0.00  0.00    +0.000 C 
ATOM     29  C   UNL     1      -4.434  13.147  22.209  0.00  0.00    +0.000 C 
ENDBRANCH  25  28
ENDBRANCH  24  25
ENDBRANCH  18  24
ENDBRANCH   1  21
TORSDOF 6
ENDMDL
