MODEL 1
REMARK VINA RESULT:      -8.1      0.000      0.000
REMARK  Name = 
REMARK  1 active torsions:
REMARK  status: ('A' for Active; 'I' for Inactive)
REMARK    1  A    between atoms: C_6  and  N_7
REMARK                            x       y       z     vdW  Elec       q    Type
REMARK                         _______ _______ _______ _____ _____    ______ ____
ROOT
ATOM      1  N   UNL     1       2.601   2.623  21.365  0.00  0.00    +0.000 N 
ATOM      2  C   UNL     1       2.764   3.776  20.622  0.00  0.00    +0.000 A 
ATOM      3  N   UNL     1       2.058   4.834  20.998  0.00  0.00    +0.000 NA
ATOM      4  C   UNL     1       2.199   5.944  20.251  0.00  0.00    +0.000 A 
ATOM      5  C   UNL     1       3.028   6.009  19.131  0.00  0.00    +0.000 A 
ATOM      6  C   UNL     1       3.816   4.874  18.869  0.00  0.00    +0.000 A 
ATOM      7  N   UNL     1       3.643   3.764  19.620  0.00  0.00    +0.000 NA
ATOM      8  C   UNL     1       3.022   7.265  18.297  0.00  0.00    +0.000 C 
ATOM      9  C   UNL     1       1.869   8.227  18.558  0.00  0.00    +0.000 C 
ATOM     10  C   UNL     1       1.723   8.432  20.052  0.00  0.00    +0.000 C 
ATOM     11  C   UNL     1       1.340   7.105  20.694  0.00  0.00    +0.000 C 
ATOM     12  H   UNL     1       2.258   2.869  22.283  0.00  0.00    +0.000 HD
ATOM     13  H   UNL     1       3.445   2.070  21.318  0.00  0.00    +0.000 HD
ENDROOT
BRANCH   6  14
ATOM     14  N   UNL     1       4.827   4.795  17.918  0.00  0.00    +0.000 N 
ATOM     15  C   UNL     1       6.232   5.007  18.360  0.00  0.00    +0.000 C 
ATOM     16  C   UNL     1       7.087   5.762  17.306  0.00  0.00    +0.000 C 
ATOM     17  C   UNL     1       6.846   5.237  15.932  0.00  0.00    +0.000 A 
ATOM     18  N   UNL     1       7.702   5.447  14.866  0.00  0.00    +0.000 NA
ATOM     19  C   UNL     1       7.205   4.884  13.787  0.00  0.00    +0.000 A 
ATOM     20  N   UNL     1       7.793   4.921  12.580  0.00  0.00    +0.000 N 
ATOM     21  S   UNL     1       5.691   4.091  13.989  0.00  0.00    +0.000 S 
ATOM     22  C   UNL     1       5.716   4.523  15.628  0.00  0.00    +0.000 A 
ATOM     23  C   UNL     1       4.661   4.168  16.604  0.00  0.00    +0.000 C 
ATOM     24  H   UNL     1       8.507   5.634  12.468  0.00  0.00    +0.000 HD
ATOM     25  H   UNL     1       7.204   4.788  11.769  0.00  0.00    +0.000 HD
ENDBRANCH   6  14
TORSDOF 1
ENDMDL
MODEL 2
REMARK VINA RESULT:      -7.8      1.318      2.905
REMARK  Name = 
REMARK  1 active torsions:
REMARK  status: ('A' for Active; 'I' for Inactive)
REMARK    1  A    between atoms: C_6  and  N_7
REMARK                            x       y       z     vdW  Elec       q    Type
REMARK                         _______ _______ _______ _____ _____    ______ ____
ROOT
ATOM      1  N   UNL     1       1.820   8.178  19.784  0.00  0.00    +0.000 N 
ATOM      2  C   UNL     1       2.326   6.894  19.741  0.00  0.00    +0.000 A 
ATOM      3  N   UNL     1       1.716   5.986  20.491  0.00  0.00    +0.000 NA
ATOM      4  C   UNL     1       2.233   4.743  20.467  0.00  0.00    +0.000 A 
ATOM      5  C   UNL     1       3.354   4.399  19.711  0.00  0.00    +0.000 A 
ATOM      6  C   UNL     1       3.871   5.398  18.867  0.00  0.00    +0.000 A 
ATOM      7  N   UNL     1       3.348   6.644  18.924  0.00  0.00    +0.000 NA
ATOM      8  C   UNL     1       3.920   3.009  19.848  0.00  0.00    +0.000 C 
ATOM      9  C   UNL     1       3.422   2.206  21.043  0.00  0.00    +0.000 C 
ATOM     10  C   UNL     1       1.912   2.308  21.115  0.00  0.00    +0.000 C 
ATOM     11  C   UNL     1       1.529   3.760  21.372  0.00  0.00    +0.000 C 
ATOM     12  H   UNL     1       0.857   8.142  20.088  0.00  0.00    +0.000 HD
ATOM     13  H   UNL     1       2.014   8.646  18.911  0.00  0.00    +0.000 HD
ENDROOT
BRANCH   6  14
ATOM     14  N   UNL     1       4.863   5.214  17.911  0.00  0.00    +0.000 N 
ATOM     15  C   UNL     1       6.278   5.439  18.308  0.00  0.00    +0.000 C 
ATOM     16  C   UNL     1       7.127   6.078  17.175  0.00  0.00    +0.000 C 
ATOM     17  C   UNL     1       6.852   5.434  15.859  0.00  0.00    +0.000 A 
ATOM     18  N   UNL     1       7.692   5.530  14.765  0.00  0.00    +0.000 NA
ATOM     19  C   UNL     1       7.166   4.880  13.750  0.00  0.00    +0.000 A 
ATOM     20  N   UNL     1       7.733   4.796  12.535  0.00  0.00    +0.000 N 
ATOM     21  S   UNL     1       5.642   4.137  14.049  0.00  0.00    +0.000 S 
ATOM     22  C   UNL     1       5.705   4.717  15.640  0.00  0.00    +0.000 A 
ATOM     23  C   UNL     1       4.662   4.472  16.662  0.00  0.00    +0.000 C 
ATOM     24  H   UNL     1       8.456   5.482  12.347  0.00  0.00    +0.000 HD
ATOM     25  H   UNL     1       7.126   4.600  11.750  0.00  0.00    +0.000 HD
ENDBRANCH   6  14
TORSDOF 1
ENDMDL
MODEL 3
REMARK VINA RESULT:      -7.7      3.709      6.711
REMARK  Name = 
REMARK  1 active torsions:
REMARK  status: ('A' for Active; 'I' for Inactive)
REMARK    1  A    between atoms: C_6  and  N_7
REMARK                            x       y       z     vdW  Elec       q    Type
REMARK                         _______ _______ _______ _____ _____    ______ ____
ROOT
ATOM      1  N   UNL     1       6.899   5.230  19.301  0.00  0.00    +0.000 N 
ATOM      2  C   UNL     1       5.544   4.971  19.231  0.00  0.00    +0.000 A 
ATOM      3  N   UNL     1       5.176   3.698  19.260  0.00  0.00    +0.000 NA
ATOM      4  C   UNL     1       3.856   3.453  19.160  0.00  0.00    +0.000 A 
ATOM      5  C   UNL     1       2.902   4.462  19.026  0.00  0.00    +0.000 A 
ATOM      6  C   UNL     1       3.373   5.784  19.111  0.00  0.00    +0.000 A 
ATOM      7  N   UNL     1       4.704   6.006  19.190  0.00  0.00    +0.000 NA
ATOM      8  C   UNL     1       1.463   4.072  18.805  0.00  0.00    +0.000 C 
ATOM      9  C   UNL     1       1.223   2.619  18.417  0.00  0.00    +0.000 C 
ATOM     10  C   UNL     1       2.008   1.719  19.350  0.00  0.00    +0.000 C 
ATOM     11  C   UNL     1       3.495   1.986  19.152  0.00  0.00    +0.000 C 
ATOM     12  H   UNL     1       7.362   4.440  19.728  0.00  0.00    +0.000 HD
ATOM     13  H   UNL     1       7.047   6.136  19.720  0.00  0.00    +0.000 HD
ENDROOT
BRANCH   6  14
ATOM     14  N   UNL     1       2.577   6.922  19.179  0.00  0.00    +0.000 N 
ATOM     15  C   UNL     1       2.169   7.576  17.907  0.00  0.00    +0.000 C 
ATOM     16  C   UNL     1       2.122   9.125  18.014  0.00  0.00    +0.000 C 
ATOM     17  C   UNL     1       1.468   9.563  19.280  0.00  0.00    +0.000 A 
ATOM     18  N   UNL     1       0.961  10.833  19.486  0.00  0.00    +0.000 NA
ATOM     19  C   UNL     1       0.473  10.920  20.703  0.00  0.00    +0.000 A 
ATOM     20  N   UNL     1      -0.079  12.031  21.216  0.00  0.00    +0.000 N 
ATOM     21  S   UNL     1       0.606   9.497  21.663  0.00  0.00    +0.000 S 
ATOM     22  C   UNL     1       1.354   8.720  20.355  0.00  0.00    +0.000 A 
ATOM     23  C   UNL     1       1.815   7.313  20.369  0.00  0.00    +0.000 C 
ATOM     24  H   UNL     1       0.137  12.890  20.720  0.00  0.00    +0.000 HD
ATOM     25  H   UNL     1      -0.098  12.122  22.222  0.00  0.00    +0.000 HD
ENDBRANCH   6  14
TORSDOF 1
ENDMDL
MODEL 4
REMARK VINA RESULT:      -7.3      2.355      6.858
REMARK  Name = 
REMARK  1 active torsions:
REMARK  status: ('A' for Active; 'I' for Inactive)
REMARK    1  A    between atoms: C_6  and  N_7
REMARK                            x       y       z     vdW  Elec       q    Type
REMARK                         _______ _______ _______ _____ _____    ______ ____
ROOT
ATOM      1  N   UNL     1       7.950   7.809  17.845  0.00  0.00    +0.000 N 
ATOM      2  C   UNL     1       7.189   6.845  17.213  0.00  0.00    +0.000 A 
ATOM      3  N   UNL     1       7.637   6.398  16.048  0.00  0.00    +0.000 NA
ATOM      4  C   UNL     1       6.875   5.481  15.423  0.00  0.00    +0.000 A 
ATOM      5  C   UNL     1       5.668   5.012  15.943  0.00  0.00    +0.000 A 
ATOM      6  C   UNL     1       5.324   5.462  17.230  0.00  0.00    +0.000 A 
ATOM      7  N   UNL     1       6.094   6.398  17.829  0.00  0.00    +0.000 NA
ATOM      8  C   UNL     1       4.836   4.074  15.107  0.00  0.00    +0.000 C 
ATOM      9  C   UNL     1       5.221   3.980  13.636  0.00  0.00    +0.000 C 
ATOM     10  C   UNL     1       6.722   3.798  13.527  0.00  0.00    +0.000 C 
ATOM     11  C   UNL     1       7.408   5.039  14.081  0.00  0.00    +0.000 C 
ATOM     12  H   UNL     1       8.899   7.752  17.505  0.00  0.00    +0.000 HD
ATOM     13  H   UNL     1       7.810   7.747  18.843  0.00  0.00    +0.000 HD
ENDROOT
BRANCH   6  14
ATOM     14  N   UNL     1       4.266   4.987  17.996  0.00  0.00    +0.000 N 
ATOM     15  C   UNL     1       2.931   5.621  17.829  0.00  0.00    +0.000 C 
ATOM     16  C   UNL     1       2.142   5.724  19.162  0.00  0.00    +0.000 C 
ATOM     17  C   UNL     1       2.235   4.462  19.949  0.00  0.00    +0.000 A 
ATOM     18  N   UNL     1       1.366   4.125  20.971  0.00  0.00    +0.000 NA
ATOM     19  C   UNL     1       1.721   2.969  21.486  0.00  0.00    +0.000 A 
ATOM     20  N   UNL     1       1.084   2.373  22.507  0.00  0.00    +0.000 N 
ATOM     21  S   UNL     1       3.113   2.236  20.786  0.00  0.00    +0.000 S 
ATOM     22  C   UNL     1       3.233   3.550  19.722  0.00  0.00    +0.000 A 
ATOM     23  C   UNL     1       4.273   3.689  18.678  0.00  0.00    +0.000 C 
ATOM     24  H   UNL     1       0.477   2.978  23.050  0.00  0.00    +0.000 HD
ATOM     25  H   UNL     1       1.607   1.702  23.055  0.00  0.00    +0.000 HD
ENDBRANCH   6  14
TORSDOF 1
ENDMDL
MODEL 5
REMARK VINA RESULT:      -7.3      3.659      6.782
REMARK  Name = 
REMARK  1 active torsions:
REMARK  status: ('A' for Active; 'I' for Inactive)
REMARK    1  A    between atoms: C_6  and  N_7
REMARK                            x       y       z     vdW  Elec       q    Type
REMARK                         _______ _______ _______ _____ _____    ______ ____
ROOT
ATOM      1  N   UNL     1       6.325   5.246  18.028  0.00  0.00    +0.000 N 
ATOM      2  C   UNL     1       5.100   5.145  18.657  0.00  0.00    +0.000 A 
ATOM      3  N   UNL     1       4.851   4.014  19.303  0.00  0.00    +0.000 NA
ATOM      4  C   UNL     1       3.643   3.910  19.888  0.00  0.00    +0.000 A 
ATOM      5  C   UNL     1       2.679   4.917  19.829  0.00  0.00    +0.000 A 
ATOM      6  C   UNL     1       3.068   6.120  19.213  0.00  0.00    +0.000 A 
ATOM      7  N   UNL     1       4.278   6.193  18.615  0.00  0.00    +0.000 NA
ATOM      8  C   UNL     1       1.318   4.651  20.417  0.00  0.00    +0.000 C 
ATOM      9  C   UNL     1       1.006   3.193  20.731  0.00  0.00    +0.000 C 
ATOM     10  C   UNL     1       2.173   2.585  21.481  0.00  0.00    +0.000 C 
ATOM     11  C   UNL     1       3.395   2.586  20.571  0.00  0.00    +0.000 C 
ATOM     12  H   UNL     1       6.972   4.604  18.463  0.00  0.00    +0.000 HD
ATOM     13  H   UNL     1       6.598   6.217  17.978  0.00  0.00    +0.000 HD
ENDROOT
BRANCH   6  14
ATOM     14  N   UNL     1       2.329   7.297  19.203  0.00  0.00    +0.000 N 
ATOM     15  C   UNL     1       1.924   7.868  17.891  0.00  0.00    +0.000 C 
ATOM     16  C   UNL     1       1.953   9.420  17.873  0.00  0.00    +0.000 C 
ATOM     17  C   UNL     1       1.349   9.990  19.112  0.00  0.00    +0.000 A 
ATOM     18  N   UNL     1       0.909  11.296  19.224  0.00  0.00    +0.000 NA
ATOM     19  C   UNL     1       0.454  11.503  20.440  0.00  0.00    +0.000 A 
ATOM     20  N   UNL     1      -0.033  12.678  20.871  0.00  0.00    +0.000 N 
ATOM     21  S   UNL     1       0.541  10.156  21.509  0.00  0.00    +0.000 S 
ATOM     22  C   UNL     1       1.221   9.242  20.253  0.00  0.00    +0.000 A 
ATOM     23  C   UNL     1       1.615   7.819  20.372  0.00  0.00    +0.000 C 
ATOM     24  H   UNL     1       0.213  13.482  20.304  0.00  0.00    +0.000 HD
ATOM     25  H   UNL     1      -0.023  12.849  21.868  0.00  0.00    +0.000 HD
ENDBRANCH   6  14
TORSDOF 1
ENDMDL
MODEL 6
REMARK VINA RESULT:      -7.3      1.531      2.891
REMARK  Name = 
REMARK  1 active torsions:
REMARK  status: ('A' for Active; 'I' for Inactive)
REMARK    1  A    between atoms: C_6  and  N_7
REMARK                            x       y       z     vdW  Elec       q    Type
REMARK                         _______ _______ _______ _____ _____    ______ ____
ROOT
ATOM      1  N   UNL     1       2.217   7.641  20.648  0.00  0.00    +0.000 N 
ATOM      2  C   UNL     1       2.381   6.402  20.062  0.00  0.00    +0.000 A 
ATOM      3  N   UNL     1       1.439   5.499  20.298  0.00  0.00    +0.000 NA
ATOM      4  C   UNL     1       1.621   4.284  19.748  0.00  0.00    +0.000 A 
ATOM      5  C   UNL     1       2.734   3.958  18.972  0.00  0.00    +0.000 A 
ATOM      6  C   UNL     1       3.627   5.006  18.688  0.00  0.00    +0.000 A 
ATOM      7  N   UNL     1       3.435   6.212  19.268  0.00  0.00    +0.000 NA
ATOM      8  C   UNL     1       2.897   2.535  18.502  0.00  0.00    +0.000 C 
ATOM      9  C   UNL     1       2.009   1.506  19.189  0.00  0.00    +0.000 C 
ATOM     10  C   UNL     1       0.585   2.023  19.227  0.00  0.00    +0.000 C 
ATOM     11  C   UNL     1       0.543   3.281  20.085  0.00  0.00    +0.000 C 
ATOM     12  H   UNL     1       1.238   7.779  20.857  0.00  0.00    +0.000 HD
ATOM     13  H   UNL     1       2.674   8.343  20.085  0.00  0.00    +0.000 HD
ENDROOT
BRANCH   6  14
ATOM     14  N   UNL     1       4.693   4.939  17.798  0.00  0.00    +0.000 N 
ATOM     15  C   UNL     1       6.058   5.242  18.306  0.00  0.00    +0.000 C 
ATOM     16  C   UNL     1       6.934   5.995  17.267  0.00  0.00    +0.000 C 
ATOM     17  C   UNL     1       6.797   5.400  15.907  0.00  0.00    +0.000 A 
ATOM     18  N   UNL     1       7.701   5.609  14.881  0.00  0.00    +0.000 NA
ATOM     19  C   UNL     1       7.295   4.976  13.803  0.00  0.00    +0.000 A 
ATOM     20  N   UNL     1       7.948   4.992  12.629  0.00  0.00    +0.000 N 
ATOM     21  S   UNL     1       5.812   4.115  13.957  0.00  0.00    +0.000 S 
ATOM     22  C   UNL     1       5.723   4.617  15.574  0.00  0.00    +0.000 A 
ATOM     23  C   UNL     1       4.633   4.249  16.506  0.00  0.00    +0.000 C 
ATOM     24  H   UNL     1       8.631   5.736  12.525  0.00  0.00    +0.000 HD
ATOM     25  H   UNL     1       7.413   4.795  11.795  0.00  0.00    +0.000 HD
ENDBRANCH   6  14
TORSDOF 1
ENDMDL
MODEL 7
REMARK VINA RESULT:      -7.3      3.668      7.191
REMARK  Name = 
REMARK  1 active torsions:
REMARK  status: ('A' for Active; 'I' for Inactive)
REMARK    1  A    between atoms: C_6  and  N_7
REMARK                            x       y       z     vdW  Elec       q    Type
REMARK                         _______ _______ _______ _____ _____    ______ ____
ROOT
ATOM      1  N   UNL     1       6.592   6.936  16.717  0.00  0.00    +0.000 N 
ATOM      2  C   UNL     1       5.413   6.387  17.180  0.00  0.00    +0.000 A 
ATOM      3  N   UNL     1       5.341   5.063  17.212  0.00  0.00    +0.000 NA
ATOM      4  C   UNL     1       4.178   4.536  17.636  0.00  0.00    +0.000 A 
ATOM      5  C   UNL     1       3.085   5.312  18.021  0.00  0.00    +0.000 A 
ATOM      6  C   UNL     1       3.287   6.703  18.056  0.00  0.00    +0.000 A 
ATOM      7  N   UNL     1       4.456   7.211  17.606  0.00  0.00    +0.000 NA
ATOM      8  C   UNL     1       1.792   4.620  18.368  0.00  0.00    +0.000 C 
ATOM      9  C   UNL     1       1.691   3.158  17.949  0.00  0.00    +0.000 C 
ATOM     10  C   UNL     1       2.953   2.433  18.368  0.00  0.00    +0.000 C 
ATOM     11  C   UNL     1       4.134   3.026  17.610  0.00  0.00    +0.000 C 
ATOM     12  H   UNL     1       7.334   6.258  16.822  0.00  0.00    +0.000 HD
ATOM     13  H   UNL     1       6.729   7.843  17.138  0.00  0.00    +0.000 HD
ENDROOT
BRANCH   6  14
ATOM     14  N   UNL     1       2.395   7.636  18.573  0.00  0.00    +0.000 N 
ATOM     15  C   UNL     1       1.646   8.501  17.623  0.00  0.00    +0.000 C 
ATOM     16  C   UNL     1       1.439   9.944  18.158  0.00  0.00    +0.000 C 
ATOM     17  C   UNL     1       1.027   9.941  19.591  0.00  0.00    +0.000 A 
ATOM     18  N   UNL     1       0.431  11.015  20.224  0.00  0.00    +0.000 NA
ATOM     19  C   UNL     1       0.211  10.716  21.485  0.00  0.00    +0.000 A 
ATOM     20  N   UNL     1      -0.345  11.556  22.372  0.00  0.00    +0.000 N 
ATOM     21  S   UNL     1       0.718   9.146  21.978  0.00  0.00    +0.000 S 
ATOM     22  C   UNL     1       1.251   8.853  20.395  0.00  0.00    +0.000 A 
ATOM     23  C   UNL     1       1.868   7.587  19.940  0.00  0.00    +0.000 C 
ATOM     24  H   UNL     1      -0.345  12.534  22.101  0.00  0.00    +0.000 HD
ATOM     25  H   UNL     1      -0.155  11.393  23.352  0.00  0.00    +0.000 HD
ENDBRANCH   6  14
TORSDOF 1
ENDMDL
MODEL 8
REMARK VINA RESULT:      -7.1      3.624      7.192
REMARK  Name = 
REMARK  1 active torsions:
REMARK  status: ('A' for Active; 'I' for Inactive)
REMARK    1  A    between atoms: C_6  and  N_7
REMARK                            x       y       z     vdW  Elec       q    Type
REMARK                         _______ _______ _______ _____ _____    ______ ____
ROOT
ATOM      1  N   UNL     1       5.618   6.617  15.886  0.00  0.00    +0.000 N 
ATOM      2  C   UNL     1       4.621   6.135  16.711  0.00  0.00    +0.000 A 
ATOM      3  N   UNL     1       4.500   4.817  16.799  0.00  0.00    +0.000 NA
ATOM      4  C   UNL     1       3.506   4.356  17.580  0.00  0.00    +0.000 A 
ATOM      5  C   UNL     1       2.628   5.193  18.269  0.00  0.00    +0.000 A 
ATOM      6  C   UNL     1       2.896   6.572  18.202  0.00  0.00    +0.000 A 
ATOM      7  N   UNL     1       3.886   7.013  17.394  0.00  0.00    +0.000 NA
ATOM      8  C   UNL     1       1.479   4.574  19.022  0.00  0.00    +0.000 C 
ATOM      9  C   UNL     1       1.183   3.116  18.695  0.00  0.00    +0.000 C 
ATOM     10  C   UNL     1       2.478   2.329  18.715  0.00  0.00    +0.000 C 
ATOM     11  C   UNL     1       3.386   2.851  17.609  0.00  0.00    +0.000 C 
ATOM     12  H   UNL     1       6.322   5.902  15.771  0.00  0.00    +0.000 HD
ATOM     13  H   UNL     1       5.923   7.519  16.219  0.00  0.00    +0.000 HD
ENDROOT
BRANCH   6  14
ATOM     14  N   UNL     1       2.257   7.556  18.949  0.00  0.00    +0.000 N 
ATOM     15  C   UNL     1       2.255   7.429  20.431  0.00  0.00    +0.000 C 
ATOM     16  C   UNL     1       0.928   7.916  21.075  0.00  0.00    +0.000 C 
ATOM     17  C   UNL     1       0.468   9.199  20.471  0.00  0.00    +0.000 A 
ATOM     18  N   UNL     1      -0.450  10.045  21.065  0.00  0.00    +0.000 NA
ATOM     19  C   UNL     1      -0.669  11.076  20.280  0.00  0.00    +0.000 A 
ATOM     20  N   UNL     1      -1.523  12.073  20.567  0.00  0.00    +0.000 N 
ATOM     21  S   UNL     1       0.198  11.080  18.793  0.00  0.00    +0.000 S 
ATOM     22  C   UNL     1       0.917   9.612  19.243  0.00  0.00    +0.000 A 
ATOM     23  C   UNL     1       1.907   8.878  18.422  0.00  0.00    +0.000 C 
ATOM     24  H   UNL     1      -2.201  11.865  21.293  0.00  0.00    +0.000 HD
ATOM     25  H   UNL     1      -1.889  12.611  19.793  0.00  0.00    +0.000 HD
ENDBRANCH   6  14
TORSDOF 1
ENDMDL
MODEL 9
REMARK VINA RESULT:      -6.9      3.808      7.377
REMARK  Name = 
REMARK  1 active torsions:
REMARK  status: ('A' for Active; 'I' for Inactive)
REMARK    1  A    between atoms: C_6  and  N_7
REMARK                            x       y       z     vdW  Elec       q    Type
REMARK                         _______ _______ _______ _____ _____    ______ ____
ROOT
ATOM      1  N   UNL     1       4.962   6.423  16.516  0.00  0.00    +0.000 N 
ATOM      2  C   UNL     1       4.095   6.122  17.548  0.00  0.00    +0.000 A 
ATOM      3  N   UNL     1       4.110   4.875  17.999  0.00  0.00    +0.000 NA
ATOM      4  C   UNL     1       3.241   4.582  18.983  0.00  0.00    +0.000 A 
ATOM      5  C   UNL     1       2.352   5.515  19.518  0.00  0.00    +0.000 A 
ATOM      6  C   UNL     1       2.478   6.837  19.054  0.00  0.00    +0.000 A 
ATOM      7  N   UNL     1       3.344   7.103  18.050  0.00  0.00    +0.000 NA
ATOM      8  C   UNL     1       1.342   5.052  20.536  0.00  0.00    +0.000 C 
ATOM      9  C   UNL     1       1.159   3.544  20.648  0.00  0.00    +0.000 C 
ATOM     10  C   UNL     1       2.521   2.883  20.730  0.00  0.00    +0.000 C 
ATOM     11  C   UNL     1       3.269   3.139  19.428  0.00  0.00    +0.000 C 
ATOM     12  H   UNL     1       5.718   5.754  16.518  0.00  0.00    +0.000 HD
ATOM     13  H   UNL     1       5.207   7.402  16.558  0.00  0.00    +0.000 HD
ENDROOT
BRANCH   6  14
ATOM     14  N   UNL     1       1.818   7.943  19.577  0.00  0.00    +0.000 N 
ATOM     15  C   UNL     1       1.730   8.079  21.055  0.00  0.00    +0.000 C 
ATOM     16  C   UNL     1       0.379   8.685  21.524  0.00  0.00    +0.000 C 
ATOM     17  C   UNL     1      -0.020   9.846  20.678  0.00  0.00    +0.000 A 
ATOM     18  N   UNL     1      -0.954  10.792  21.060  0.00  0.00    +0.000 NA
ATOM     19  C   UNL     1      -1.107  11.671  20.095  0.00  0.00    +0.000 A 
ATOM     20  N   UNL     1      -1.956  12.711  20.151  0.00  0.00    +0.000 N 
ATOM     21  S   UNL     1      -0.157  11.405  18.684  0.00  0.00    +0.000 S 
ATOM     22  C   UNL     1       0.506  10.032  19.426  0.00  0.00    +0.000 A 
ATOM     23  C   UNL     1       1.525   9.155  18.807  0.00  0.00    +0.000 C 
ATOM     24  H   UNL     1      -2.678  12.641  20.861  0.00  0.00    +0.000 HD
ATOM     25  H   UNL     1      -2.267  13.108  19.275  0.00  0.00    +0.000 HD
ENDBRANCH   6  14
TORSDOF 1
ENDMDL
