MODEL 1
REMARK VINA RESULT:      -7.5      0.000      0.000
REMARK  Name = 
REMARK  5 active torsions:
REMARK  status: ('A' for Active; 'I' for Inactive)
REMARK    1  A    between atoms: C_2  and  C_3
REMARK    2  A    between atoms: C_3  and  N_4
REMARK    3  A    between atoms: C_8  and  C_9
REMARK    4  A    between atoms: C_12  and  C_13
REMARK    5  A    between atoms: C_16  and  N_17
REMARK                            x       y       z     vdW  Elec       q    Type
REMARK                         _______ _______ _______ _____ _____    ______ ____
ROOT
ATOM      1  C   UNL     1       1.799   6.536  20.449  0.00  0.00    +0.000 A 
ATOM      2  C   UNL     1       1.261   5.257  20.405  0.00  0.00    +0.000 A 
ATOM      3  C   UNL     1       1.958   4.524  19.411  0.00  0.00    +0.000 A 
ATOM      4  C   UNL     1       2.906   5.377  18.891  0.00  0.00    +0.000 A 
ATOM      5  O   UNL     1       2.819   6.576  19.528  0.00  0.00    +0.000 OA
ENDROOT
BRANCH   1  10
ATOM      6  N   UNL     1       0.356  11.079  21.022  0.00  0.00    +0.000 N 
ATOM      7  C   UNL     1       0.739   9.959  21.742  0.00  0.00    +0.000 C 
ATOM      8  O   UNL     1       0.809   9.870  22.962  0.00  0.00    +0.000 OA
ATOM      9  C   UNL     1       1.050   8.828  20.822  0.00  0.00    +0.000 C 
ATOM     10  C   UNL     1       1.442   7.634  21.285  0.00  0.00    +0.000 C 
ATOM     11  S   UNL     1       0.781   9.319  19.196  0.00  0.00    +0.000 S 
ATOM     12  C   UNL     1       0.278  10.937  19.653  0.00  0.00    +0.000 C 
ATOM     13  S   UNL     1      -0.226  12.048  18.513  0.00  0.00    +0.000 S 
BRANCH   6  14
ATOM     14  C   UNL     1      -0.015  12.292  21.744  0.00  0.00    +0.000 C 
BRANCH  14  16
ATOM     15  C   UNL     1      -2.076  12.076  23.169  0.00  0.00    +0.000 C 
ATOM     16  C   UNL     1      -1.499  12.320  21.983  0.00  0.00    +0.000 C 
ENDBRANCH  14  16
ENDBRANCH   6  14
ENDBRANCH   1  10
BRANCH   4  17
ATOM     17  C   UNL     1       3.914   5.278  17.838  0.00  0.00    +0.000 A 
ATOM     18  C   UNL     1       4.341   4.021  17.380  0.00  0.00    +0.000 A 
ATOM     19  C   UNL     1       5.257   3.909  16.328  0.00  0.00    +0.000 A 
ATOM     20  C   UNL     1       5.760   5.066  15.723  0.00  0.00    +0.000 A 
ATOM     21  C   UNL     1       5.372   6.330  16.181  0.00  0.00    +0.000 A 
ATOM     22  C   UNL     1       4.454   6.428  17.234  0.00  0.00    +0.000 A 
BRANCH  20  23
ATOM     23  N   UNL     1       6.684   4.950  14.589  0.00  0.00    +0.000 N 
ATOM     24  O   UNL     1       6.368   4.188  13.665  0.00  0.00    +0.000 OA
ATOM     25  O   UNL     1       7.722   5.627  14.618  0.00  0.00    +0.000 OA
ENDBRANCH  20  23
ENDBRANCH   4  17
TORSDOF 5
ENDMDL
MODEL 2
REMARK VINA RESULT:      -7.2      1.026      1.571
REMARK  Name = 
REMARK  5 active torsions:
REMARK  status: ('A' for Active; 'I' for Inactive)
REMARK    1  A    between atoms: C_2  and  C_3
REMARK    2  A    between atoms: C_3  and  N_4
REMARK    3  A    between atoms: C_8  and  C_9
REMARK    4  A    between atoms: C_12  and  C_13
REMARK    5  A    between atoms: C_16  and  N_17
REMARK                            x       y       z     vdW  Elec       q    Type
REMARK                         _______ _______ _______ _____ _____    ______ ____
ROOT
ATOM      1  C   UNL     1       1.732   7.499  20.394  0.00  0.00    +0.000 A 
ATOM      2  C   UNL     1       1.379   6.212  20.777  0.00  0.00    +0.000 A 
ATOM      3  C   UNL     1       2.045   5.302  19.917  0.00  0.00    +0.000 A 
ATOM      4  C   UNL     1       2.791   6.065  19.046  0.00  0.00    +0.000 A 
ATOM      5  O   UNL     1       2.614   7.380  19.346  0.00  0.00    +0.000 OA
ENDROOT
BRANCH   1  10
ATOM      6  N   UNL     1      -0.586  11.691  20.068  0.00  0.00    +0.000 N 
ATOM      7  C   UNL     1       0.215  10.953  20.925  0.00  0.00    +0.000 C 
ATOM      8  O   UNL     1       0.590  11.293  22.040  0.00  0.00    +0.000 OA
ATOM      9  C   UNL     1       0.562   9.639  20.313  0.00  0.00    +0.000 C 
ATOM     10  C   UNL     1       1.329   8.746  20.953  0.00  0.00    +0.000 C 
ATOM     11  S   UNL     1      -0.193   9.504  18.773  0.00  0.00    +0.000 S 
ATOM     12  C   UNL     1      -0.948  11.084  18.884  0.00  0.00    +0.000 C 
ATOM     13  S   UNL     1      -1.958  11.654  17.684  0.00  0.00    +0.000 S 
BRANCH   6  14
ATOM     14  C   UNL     1      -1.056  13.005  20.495  0.00  0.00    +0.000 C 
BRANCH  14  16
ATOM     15  C   UNL     1      -2.519  13.120  22.538  0.00  0.00    +0.000 C 
ATOM     16  C   UNL     1      -2.362  12.875  21.228  0.00  0.00    +0.000 C 
ENDBRANCH  14  16
ENDBRANCH   6  14
ENDBRANCH   1  10
BRANCH   4  17
ATOM     17  C   UNL     1       3.665   5.775  17.912  0.00  0.00    +0.000 A 
ATOM     18  C   UNL     1       4.325   6.815  17.239  0.00  0.00    +0.000 A 
ATOM     19  C   UNL     1       5.216   6.549  16.193  0.00  0.00    +0.000 A 
ATOM     20  C   UNL     1       5.451   5.226  15.807  0.00  0.00    +0.000 A 
ATOM     21  C   UNL     1       4.784   4.173  16.442  0.00  0.00    +0.000 A 
ATOM     22  C   UNL     1       3.896   4.453  17.487  0.00  0.00    +0.000 A 
BRANCH  20  23
ATOM     23  N   UNL     1       6.420   4.941  14.741  0.00  0.00    +0.000 N 
ATOM     24  O   UNL     1       7.509   5.531  14.781  0.00  0.00    +0.000 OA
ATOM     25  O   UNL     1       6.096   4.123  13.869  0.00  0.00    +0.000 OA
ENDBRANCH  20  23
ENDBRANCH   4  17
TORSDOF 5
ENDMDL
MODEL 3
REMARK VINA RESULT:      -7.2      0.678      1.566
REMARK  Name = 
REMARK  5 active torsions:
REMARK  status: ('A' for Active; 'I' for Inactive)
REMARK    1  A    between atoms: C_2  and  C_3
REMARK    2  A    between atoms: C_3  and  N_4
REMARK    3  A    between atoms: C_8  and  C_9
REMARK    4  A    between atoms: C_12  and  C_13
REMARK    5  A    between atoms: C_16  and  N_17
REMARK                            x       y       z     vdW  Elec       q    Type
REMARK                         _______ _______ _______ _____ _____    ______ ____
ROOT
ATOM      1  C   UNL     1       1.731   6.762  20.450  0.00  0.00    +0.000 A 
ATOM      2  C   UNL     1       1.229   5.469  20.512  0.00  0.00    +0.000 A 
ATOM      3  C   UNL     1       1.885   4.697  19.519  0.00  0.00    +0.000 A 
ATOM      4  C   UNL     1       2.775   5.543  18.894  0.00  0.00    +0.000 A 
ATOM      5  O   UNL     1       2.691   6.774  19.466  0.00  0.00    +0.000 OA
ENDROOT
BRANCH   1  10
ATOM      6  N   UNL     1       0.099  11.258  20.863  0.00  0.00    +0.000 N 
ATOM      7  C   UNL     1       0.609  10.211  21.614  0.00  0.00    +0.000 C 
ATOM      8  O   UNL     1       0.798  10.212  22.824  0.00  0.00    +0.000 OA
ATOM      9  C   UNL     1       0.894   9.035  20.744  0.00  0.00    +0.000 C 
ATOM     10  C   UNL     1       1.394   7.897  21.243  0.00  0.00    +0.000 C 
ATOM     11  S   UNL     1       0.447   9.396  19.122  0.00  0.00    +0.000 S 
ATOM     12  C   UNL     1      -0.099  11.016  19.520  0.00  0.00    +0.000 C 
ATOM     13  S   UNL     1      -0.768  12.018  18.365  0.00  0.00    +0.000 S 
BRANCH   6  14
ATOM     14  C   UNL     1      -0.269  12.499  21.536  0.00  0.00    +0.000 C 
BRANCH  14  16
ATOM     15  C   UNL     1       0.610  14.800  21.026  0.00  0.00    +0.000 C 
ATOM     16  C   UNL     1       0.822  13.521  21.372  0.00  0.00    +0.000 C 
ENDBRANCH  14  16
ENDBRANCH   6  14
ENDBRANCH   1  10
BRANCH   4  17
ATOM     17  C   UNL     1       3.718   5.409  17.787  0.00  0.00    +0.000 A 
ATOM     18  C   UNL     1       4.347   6.543  17.248  0.00  0.00    +0.000 A 
ATOM     19  C   UNL     1       5.302   6.425  16.232  0.00  0.00    +0.000 A 
ATOM     20  C   UNL     1       5.634   5.159  15.740  0.00  0.00    +0.000 A 
ATOM     21  C   UNL     1       5.000   4.016  16.239  0.00  0.00    +0.000 A 
ATOM     22  C   UNL     1       4.048   4.148  17.256  0.00  0.00    +0.000 A 
BRANCH  20  23
ATOM     23  N   UNL     1       6.669   5.029  14.706  0.00  0.00    +0.000 N 
ATOM     24  O   UNL     1       7.727   5.653  14.870  0.00  0.00    +0.000 OA
ATOM     25  O   UNL     1       6.427   4.299  13.735  0.00  0.00    +0.000 OA
ENDBRANCH  20  23
ENDBRANCH   4  17
TORSDOF 5
ENDMDL
MODEL 4
REMARK VINA RESULT:      -7.2      4.148      9.193
REMARK  Name = 
REMARK  5 active torsions:
REMARK  status: ('A' for Active; 'I' for Inactive)
REMARK    1  A    between atoms: C_2  and  C_3
REMARK    2  A    between atoms: C_3  and  N_4
REMARK    3  A    between atoms: C_8  and  C_9
REMARK    4  A    between atoms: C_12  and  C_13
REMARK    5  A    between atoms: C_16  and  N_17
REMARK                            x       y       z     vdW  Elec       q    Type
REMARK                         _______ _______ _______ _____ _____    ______ ____
ROOT
ATOM      1  C   UNL     1       1.830   9.322  18.022  0.00  0.00    +0.000 A 
ATOM      2  C   UNL     1       2.197  10.551  18.557  0.00  0.00    +0.000 A 
ATOM      3  C   UNL     1       1.018  11.320  18.733  0.00  0.00    +0.000 A 
ATOM      4  C   UNL     1      -0.029  10.530  18.311  0.00  0.00    +0.000 A 
ATOM      5  O   UNL     1       0.460   9.328  17.902  0.00  0.00    +0.000 OA
ENDROOT
BRANCH   1  10
ATOM      6  N   UNL     1       3.615   4.966  18.962  0.00  0.00    +0.000 N 
ATOM      7  C   UNL     1       3.681   5.993  18.034  0.00  0.00    +0.000 C 
ATOM      8  O   UNL     1       4.370   6.013  17.022  0.00  0.00    +0.000 OA
ATOM      9  C   UNL     1       2.764   7.104  18.419  0.00  0.00    +0.000 C 
ATOM     10  C   UNL     1       2.651   8.211  17.675  0.00  0.00    +0.000 C 
ATOM     11  S   UNL     1       1.928   6.686  19.863  0.00  0.00    +0.000 S 
ATOM     12  C   UNL     1       2.714   5.123  19.994  0.00  0.00    +0.000 C 
ATOM     13  S   UNL     1       2.329   4.053  21.217  0.00  0.00    +0.000 S 
BRANCH   6  14
ATOM     14  C   UNL     1       4.423   3.770  18.752  0.00  0.00    +0.000 C 
BRANCH  14  16
ATOM     15  C   UNL     1       2.700   2.160  17.876  0.00  0.00    +0.000 C 
ATOM     16  C   UNL     1       3.802   2.903  17.692  0.00  0.00    +0.000 C 
ENDBRANCH  14  16
ENDBRANCH   6  14
ENDBRANCH   1  10
BRANCH   4  17
ATOM     17  C   UNL     1      -1.473  10.713  18.192  0.00  0.00    +0.000 A 
ATOM     18  C   UNL     1      -2.142  11.639  19.009  0.00  0.00    +0.000 A 
ATOM     19  C   UNL     1      -3.514  11.873  18.863  0.00  0.00    +0.000 A 
ATOM     20  C   UNL     1      -4.235  11.171  17.891  0.00  0.00    +0.000 A 
ATOM     21  C   UNL     1      -3.597  10.222  17.085  0.00  0.00    +0.000 A 
ATOM     22  C   UNL     1      -2.224   9.998  17.241  0.00  0.00    +0.000 A 
BRANCH  20  23
ATOM     23  N   UNL     1      -5.664  11.448  17.705  0.00  0.00    +0.000 N 
ATOM     24  O   UNL     1      -6.474  10.706  18.279  0.00  0.00    +0.000 OA
ATOM     25  O   UNL     1      -5.977  12.412  16.993  0.00  0.00    +0.000 OA
ENDBRANCH  20  23
ENDBRANCH   4  17
TORSDOF 5
ENDMDL
MODEL 5
REMARK VINA RESULT:      -7.1      4.117      9.188
REMARK  Name = 
REMARK  5 active torsions:
REMARK  status: ('A' for Active; 'I' for Inactive)
REMARK    1  A    between atoms: C_2  and  C_3
REMARK    2  A    between atoms: C_3  and  N_4
REMARK    3  A    between atoms: C_8  and  C_9
REMARK    4  A    between atoms: C_12  and  C_13
REMARK    5  A    between atoms: C_16  and  N_17
REMARK                            x       y       z     vdW  Elec       q    Type
REMARK                         _______ _______ _______ _____ _____    ______ ____
ROOT
ATOM      1  C   UNL     1       1.805   9.412  17.994  0.00  0.00    +0.000 A 
ATOM      2  C   UNL     1       2.162  10.630  18.556  0.00  0.00    +0.000 A 
ATOM      3  C   UNL     1       0.978  11.390  18.743  0.00  0.00    +0.000 A 
ATOM      4  C   UNL     1      -0.062  10.603  18.299  0.00  0.00    +0.000 A 
ATOM      5  O   UNL     1       0.435   9.413  17.868  0.00  0.00    +0.000 OA
ENDROOT
BRANCH   1  10
ATOM      6  N   UNL     1       3.652   5.069  18.877  0.00  0.00    +0.000 N 
ATOM      7  C   UNL     1       3.693   6.104  17.956  0.00  0.00    +0.000 C 
ATOM      8  O   UNL     1       4.368   6.139  16.935  0.00  0.00    +0.000 OA
ATOM      9  C   UNL     1       2.769   7.201  18.362  0.00  0.00    +0.000 C 
ATOM     10  C   UNL     1       2.633   8.313  17.627  0.00  0.00    +0.000 C 
ATOM     11  S   UNL     1       1.958   6.764  19.814  0.00  0.00    +0.000 S 
ATOM     12  C   UNL     1       2.763   5.208  19.923  0.00  0.00    +0.000 C 
ATOM     13  S   UNL     1       2.408   4.126  21.143  0.00  0.00    +0.000 S 
BRANCH   6  14
ATOM     14  C   UNL     1       4.470   3.884  18.647  0.00  0.00    +0.000 C 
BRANCH  14  16
ATOM     15  C   UNL     1       3.019   1.916  18.057  0.00  0.00    +0.000 C 
ATOM     16  C   UNL     1       3.781   2.956  17.686  0.00  0.00    +0.000 C 
ENDBRANCH  14  16
ENDBRANCH   6  14
ENDBRANCH   1  10
BRANCH   4  17
ATOM     17  C   UNL     1      -1.507  10.781  18.178  0.00  0.00    +0.000 A 
ATOM     18  C   UNL     1      -2.255   9.953  17.324  0.00  0.00    +0.000 A 
ATOM     19  C   UNL     1      -3.647  10.067  17.245  0.00  0.00    +0.000 A 
ATOM     20  C   UNL     1      -4.308  11.022  18.025  0.00  0.00    +0.000 A 
ATOM     21  C   UNL     1      -3.582  11.877  18.861  0.00  0.00    +0.000 A 
ATOM     22  C   UNL     1      -2.190  11.752  18.931  0.00  0.00    +0.000 A 
BRANCH  20  23
ATOM     23  N   UNL     1      -5.772  11.111  17.979  0.00  0.00    +0.000 N 
ATOM     24  O   UNL     1      -6.272  12.010  17.288  0.00  0.00    +0.000 OA
ATOM     25  O   UNL     1      -6.422  10.279  18.626  0.00  0.00    +0.000 OA
ENDBRANCH  20  23
ENDBRANCH   4  17
TORSDOF 5
ENDMDL
MODEL 6
REMARK VINA RESULT:      -7.1      3.065      3.889
REMARK  Name = 
REMARK  5 active torsions:
REMARK  status: ('A' for Active; 'I' for Inactive)
REMARK    1  A    between atoms: C_2  and  C_3
REMARK    2  A    between atoms: C_3  and  N_4
REMARK    3  A    between atoms: C_8  and  C_9
REMARK    4  A    between atoms: C_12  and  C_13
REMARK    5  A    between atoms: C_16  and  N_17
REMARK                            x       y       z     vdW  Elec       q    Type
REMARK                         _______ _______ _______ _____ _____    ______ ____
ROOT
ATOM      1  C   UNL     1       1.446   9.401  19.194  0.00  0.00    +0.000 A 
ATOM      2  C   UNL     1       1.899   9.527  17.887  0.00  0.00    +0.000 A 
ATOM      3  C   UNL     1       2.540   8.313  17.529  0.00  0.00    +0.000 A 
ATOM      4  C   UNL     1       2.445   7.484  18.625  0.00  0.00    +0.000 A 
ATOM      5  O   UNL     1       1.774   8.134  19.614  0.00  0.00    +0.000 OA
ENDROOT
BRANCH   1  10
ATOM      6  N   UNL     1      -2.359  12.219  19.987  0.00  0.00    +0.000 N 
ATOM      7  C   UNL     1      -1.132  11.868  20.527  0.00  0.00    +0.000 C 
ATOM      8  O   UNL     1      -0.643  12.306  21.561  0.00  0.00    +0.000 OA
ATOM      9  C   UNL     1      -0.462  10.843  19.677  0.00  0.00    +0.000 C 
ATOM     10  C   UNL     1       0.740  10.344  19.995  0.00  0.00    +0.000 C 
ATOM     11  S   UNL     1      -1.479  10.441  18.350  0.00  0.00    +0.000 S 
ATOM     12  C   UNL     1      -2.747  11.548  18.847  0.00  0.00    +0.000 C 
ATOM     13  S   UNL     1      -4.182  11.666  18.001  0.00  0.00    +0.000 S 
BRANCH   6  14
ATOM     14  C   UNL     1      -3.186  13.197  20.686  0.00  0.00    +0.000 C 
BRANCH  14  16
ATOM     15  C   UNL     1      -4.060  12.842  23.018  0.00  0.00    +0.000 C 
ATOM     16  C   UNL     1      -4.038  12.512  21.718  0.00  0.00    +0.000 C 
ENDBRANCH  14  16
ENDBRANCH   6  14
ENDBRANCH   1  10
BRANCH   4  17
ATOM     17  C   UNL     1       2.912   6.137  18.940  0.00  0.00    +0.000 A 
ATOM     18  C   UNL     1       2.003   5.147  19.348  0.00  0.00    +0.000 A 
ATOM     19  C   UNL     1       2.424   3.835  19.591  0.00  0.00    +0.000 A 
ATOM     20  C   UNL     1       3.773   3.501  19.428  0.00  0.00    +0.000 A 
ATOM     21  C   UNL     1       4.703   4.476  19.051  0.00  0.00    +0.000 A 
ATOM     22  C   UNL     1       4.268   5.784  18.811  0.00  0.00    +0.000 A 
BRANCH  20  23
ATOM     23  N   UNL     1       4.209   2.115  19.637  0.00  0.00    +0.000 N 
ATOM     24  O   UNL     1       4.958   1.886  20.597  0.00  0.00    +0.000 OA
ATOM     25  O   UNL     1       3.796   1.255  18.847  0.00  0.00    +0.000 OA
ENDBRANCH  20  23
ENDBRANCH   4  17
TORSDOF 5
ENDMDL
MODEL 7
REMARK VINA RESULT:      -7.1      3.057      4.064
REMARK  Name = 
REMARK  5 active torsions:
REMARK  status: ('A' for Active; 'I' for Inactive)
REMARK    1  A    between atoms: C_2  and  C_3
REMARK    2  A    between atoms: C_3  and  N_4
REMARK    3  A    between atoms: C_8  and  C_9
REMARK    4  A    between atoms: C_12  and  C_13
REMARK    5  A    between atoms: C_16  and  N_17
REMARK                            x       y       z     vdW  Elec       q    Type
REMARK                         _______ _______ _______ _____ _____    ______ ____
ROOT
ATOM      1  C   UNL     1       1.269   9.568  19.119  0.00  0.00    +0.000 A 
ATOM      2  C   UNL     1       1.924   9.814  17.919  0.00  0.00    +0.000 A 
ATOM      3  C   UNL     1       2.598   8.625  17.538  0.00  0.00    +0.000 A 
ATOM      4  C   UNL     1       2.320   7.691  18.512  0.00  0.00    +0.000 A 
ATOM      5  O   UNL     1       1.511   8.255  19.448  0.00  0.00    +0.000 OA
ENDROOT
BRANCH   1  10
ATOM      6  N   UNL     1      -2.713  12.184  19.706  0.00  0.00    +0.000 N 
ATOM      7  C   UNL     1      -1.519  11.863  20.331  0.00  0.00    +0.000 C 
ATOM      8  O   UNL     1      -1.136  12.275  21.419  0.00  0.00    +0.000 OA
ATOM      9  C   UNL     1      -0.736  10.905  19.500  0.00  0.00    +0.000 C 
ATOM     10  C   UNL     1       0.458  10.444  19.896  0.00  0.00    +0.000 C 
ATOM     11  S   UNL     1      -1.623  10.518  18.077  0.00  0.00    +0.000 S 
ATOM     12  C   UNL     1      -2.977  11.547  18.512  0.00  0.00    +0.000 C 
ATOM     13  S   UNL     1      -4.342  11.641  17.556  0.00  0.00    +0.000 S 
BRANCH   6  14
ATOM     14  C   UNL     1      -3.638  13.094  20.372  0.00  0.00    +0.000 C 
BRANCH  14  16
ATOM     15  C   UNL     1      -5.971  12.587  21.165  0.00  0.00    +0.000 C 
ATOM     16  C   UNL     1      -4.657  12.315  21.156  0.00  0.00    +0.000 C 
ENDBRANCH  14  16
ENDBRANCH   6  14
ENDBRANCH   1  10
BRANCH   4  17
ATOM     17  C   UNL     1       2.714   6.305  18.751  0.00  0.00    +0.000 A 
ATOM     18  C   UNL     1       3.516   5.624  17.821  0.00  0.00    +0.000 A 
ATOM     19  C   UNL     1       3.956   4.318  18.065  0.00  0.00    +0.000 A 
ATOM     20  C   UNL     1       3.590   3.677  19.254  0.00  0.00    +0.000 A 
ATOM     21  C   UNL     1       2.768   4.324  20.183  0.00  0.00    +0.000 A 
ATOM     22  C   UNL     1       2.336   5.630  19.926  0.00  0.00    +0.000 A 
BRANCH  20  23
ATOM     23  N   UNL     1       4.088   2.325  19.533  0.00  0.00    +0.000 N 
ATOM     24  O   UNL     1       3.628   1.391  18.861  0.00  0.00    +0.000 OA
ATOM     25  O   UNL     1       4.945   2.197  20.419  0.00  0.00    +0.000 OA
ENDBRANCH  20  23
ENDBRANCH   4  17
TORSDOF 5
ENDMDL
MODEL 8
REMARK VINA RESULT:      -7.0      3.168      4.335
REMARK  Name = 
REMARK  5 active torsions:
REMARK  status: ('A' for Active; 'I' for Inactive)
REMARK    1  A    between atoms: C_2  and  C_3
REMARK    2  A    between atoms: C_3  and  N_4
REMARK    3  A    between atoms: C_8  and  C_9
REMARK    4  A    between atoms: C_12  and  C_13
REMARK    5  A    between atoms: C_16  and  N_17
REMARK                            x       y       z     vdW  Elec       q    Type
REMARK                         _______ _______ _______ _____ _____    ______ ____
ROOT
ATOM      1  C   UNL     1       0.999   9.883  19.216  0.00  0.00    +0.000 A 
ATOM      2  C   UNL     1       1.670  10.127  18.024  0.00  0.00    +0.000 A 
ATOM      3  C   UNL     1       2.399   8.958  17.686  0.00  0.00    +0.000 A 
ATOM      4  C   UNL     1       2.138   8.036  18.676  0.00  0.00    +0.000 A 
ATOM      5  O   UNL     1       1.286   8.589  19.581  0.00  0.00    +0.000 OA
ENDROOT
BRANCH   1  10
ATOM      6  N   UNL     1      -3.124  12.298  19.683  0.00  0.00    +0.000 N 
ATOM      7  C   UNL     1      -1.918  12.067  20.325  0.00  0.00    +0.000 C 
ATOM      8  O   UNL     1      -1.564  12.543  21.398  0.00  0.00    +0.000 OA
ATOM      9  C   UNL     1      -1.078  11.122  19.536  0.00  0.00    +0.000 C 
ATOM     10  C   UNL     1       0.136  10.743  19.954  0.00  0.00    +0.000 C 
ATOM     11  S   UNL     1      -1.934  10.632  18.126  0.00  0.00    +0.000 S 
ATOM     12  C   UNL     1      -3.345  11.601  18.514  0.00  0.00    +0.000 C 
ATOM     13  S   UNL     1      -4.707  11.583  17.550  0.00  0.00    +0.000 S 
BRANCH   6  14
ATOM     14  C   UNL     1      -4.101  13.182  20.310  0.00  0.00    +0.000 C 
BRANCH  14  16
ATOM     15  C   UNL     1      -6.288  12.834  21.504  0.00  0.00    +0.000 C 
ATOM     16  C   UNL     1      -5.089  12.378  21.109  0.00  0.00    +0.000 C 
ENDBRANCH  14  16
ENDBRANCH   6  14
ENDBRANCH   1  10
BRANCH   4  17
ATOM     17  C   UNL     1       2.582   6.673  18.957  0.00  0.00    +0.000 A 
ATOM     18  C   UNL     1       2.146   6.009  20.115  0.00  0.00    +0.000 A 
ATOM     19  C   UNL     1       2.509   4.681  20.365  0.00  0.00    +0.000 A 
ATOM     20  C   UNL     1       3.323   4.003  19.452  0.00  0.00    +0.000 A 
ATOM     21  C   UNL     1       3.794   4.653  18.306  0.00  0.00    +0.000 A 
ATOM     22  C   UNL     1       3.422   5.980  18.067  0.00  0.00    +0.000 A 
BRANCH  20  23
ATOM     23  N   UNL     1       3.667   2.596  19.689  0.00  0.00    +0.000 N 
ATOM     24  O   UNL     1       2.807   1.742  19.433  0.00  0.00    +0.000 OA
ATOM     25  O   UNL     1       4.800   2.344  20.124  0.00  0.00    +0.000 OA
ENDBRANCH  20  23
ENDBRANCH   4  17
TORSDOF 5
ENDMDL
MODEL 9
REMARK VINA RESULT:      -6.9      2.871      3.827
REMARK  Name = 
REMARK  5 active torsions:
REMARK  status: ('A' for Active; 'I' for Inactive)
REMARK    1  A    between atoms: C_2  and  C_3
REMARK    2  A    between atoms: C_3  and  N_4
REMARK    3  A    between atoms: C_8  and  C_9
REMARK    4  A    between atoms: C_12  and  C_13
REMARK    5  A    between atoms: C_16  and  N_17
REMARK                            x       y       z     vdW  Elec       q    Type
REMARK                         _______ _______ _______ _____ _____    ______ ____
ROOT
ATOM      1  C   UNL     1       1.421   9.470  19.508  0.00  0.00    +0.000 A 
ATOM      2  C   UNL     1       1.776   9.684  18.183  0.00  0.00    +0.000 A 
ATOM      3  C   UNL     1       2.311   8.473  17.672  0.00  0.00    +0.000 A 
ATOM      4  C   UNL     1       2.252   7.558  18.700  0.00  0.00    +0.000 A 
ATOM      5  O   UNL     1       1.703   8.154  19.793  0.00  0.00    +0.000 OA
ENDROOT
BRANCH   1  10
ATOM      6  N   UNL     1      -2.124  12.419  20.845  0.00  0.00    +0.000 N 
ATOM      7  C   UNL     1      -0.884  11.951  21.251  0.00  0.00    +0.000 C 
ATOM      8  O   UNL     1      -0.290  12.266  22.275  0.00  0.00    +0.000 OA
ATOM      9  C   UNL     1      -0.348  10.969  20.266  0.00  0.00    +0.000 C 
ATOM     10  C   UNL     1       0.840  10.376  20.441  0.00  0.00    +0.000 C 
ATOM     11  S   UNL     1      -1.487  10.746  18.997  0.00  0.00    +0.000 S 
ATOM     12  C   UNL     1      -2.640  11.875  19.688  0.00  0.00    +0.000 C 
ATOM     13  S   UNL     1      -4.125  12.150  18.976  0.00  0.00    +0.000 S 
BRANCH   6  14
ATOM     14  C   UNL     1      -2.830  13.375  21.689  0.00  0.00    +0.000 C 
BRANCH  14  16
ATOM     15  C   UNL     1      -4.794  13.092  23.236  0.00  0.00    +0.000 C 
ATOM     16  C   UNL     1      -3.629  12.651  22.738  0.00  0.00    +0.000 C 
ENDBRANCH  14  16
ENDBRANCH   6  14
ENDBRANCH   1  10
BRANCH   4  17
ATOM     17  C   UNL     1       2.658   6.165  18.862  0.00  0.00    +0.000 A 
ATOM     18  C   UNL     1       3.304   5.487  17.816  0.00  0.00    +0.000 A 
ATOM     19  C   UNL     1       3.757   4.173  17.977  0.00  0.00    +0.000 A 
ATOM     20  C   UNL     1       3.563   3.520  19.199  0.00  0.00    +0.000 A 
ATOM     21  C   UNL     1       2.897   4.164  20.247  0.00  0.00    +0.000 A 
ATOM     22  C   UNL     1       2.449   5.478  20.073  0.00  0.00    +0.000 A 
BRANCH  20  23
ATOM     23  N   UNL     1       4.079   2.159  19.386  0.00  0.00    +0.000 N 
ATOM     24  O   UNL     1       4.844   1.959  20.340  0.00  0.00    +0.000 OA
ATOM     25  O   UNL     1       3.715   1.288  18.584  0.00  0.00    +0.000 OA
ENDBRANCH  20  23
ENDBRANCH   4  17
TORSDOF 5
ENDMDL
