MODEL 1
REMARK VINA RESULT:      -8.5      0.000      0.000
REMARK  Name = 
REMARK  4 active torsions:
REMARK  status: ('A' for Active; 'I' for Inactive)
REMARK    1  A    between atoms: C_1  and  C_2
REMARK    2  A    between atoms: C_7  and  N_8
REMARK    3  A    between atoms: C_11  and  C_12
REMARK    4  A    between atoms: C_13  and  O_14
REMARK                            x       y       z     vdW  Elec       q    Type
REMARK                         _______ _______ _______ _____ _____    ______ ____
ROOT
ATOM      1  N   UNL     1       2.705   6.746  20.307  0.00  0.00    +0.000 N 
ATOM      2  C   UNL     1       3.420   5.805  19.638  0.00  0.00    +0.000 A 
ATOM      3  N   UNL     1       4.200   6.026  18.598  0.00  0.00    +0.000 NA
ATOM      4  C   UNL     1       4.650   4.832  18.051  0.00  0.00    +0.000 A 
ATOM      5  C   UNL     1       4.300   3.709  18.770  0.00  0.00    +0.000 A 
ATOM      6  S   UNL     1       3.352   4.152  20.130  0.00  0.00    +0.000 S 
ATOM      7  H   UNL     1       2.148   6.405  21.081  0.00  0.00    +0.000 HD
ENDROOT
BRANCH   4   8
ATOM      8  C   UNL     1       5.423   4.892  16.834  0.00  0.00    +0.000 A 
ATOM      9  C   UNL     1       5.041   4.268  15.697  0.00  0.00    +0.000 A 
ATOM     10  C   UNL     1       5.860   4.304  14.485  0.00  0.00    +0.000 A 
ATOM     11  C   UNL     1       5.539   3.614  13.309  0.00  0.00    +0.000 A 
ATOM     12  C   UNL     1       6.375   3.688  12.188  0.00  0.00    +0.000 A 
ATOM     13  C   UNL     1       7.539   4.455  12.226  0.00  0.00    +0.000 A 
ATOM     14  C   UNL     1       7.871   5.143  13.390  0.00  0.00    +0.000 A 
ATOM     15  C   UNL     1       7.030   5.051  14.500  0.00  0.00    +0.000 A 
ATOM     16  O   UNL     1       7.430   5.731  15.657  0.00  0.00    +0.000 OA
ATOM     17  C   UNL     1       6.723   5.631  16.847  0.00  0.00    +0.000 A 
ATOM     18  O   UNL     1       7.177   6.150  17.864  0.00  0.00    +0.000 OA
BRANCH   9  19
ATOM     19  O   UNL     1       3.861   3.546  15.578  0.00  0.00    +0.000 OA
ATOM     20  H   UNL     1       3.809   3.205  14.657  0.00  0.00    +0.000 HD
ENDBRANCH   9  19
ENDBRANCH   4   8
BRANCH   1  27
ATOM     21  C   UNL     1       1.089   8.595  21.900  0.00  0.00    +0.000 C 
ATOM     22  C   UNL     1       1.236   8.714  20.408  0.00  0.00    +0.000 A 
ATOM     23  C   UNL     1       0.549   9.749  19.746  0.00  0.00    +0.000 A 
ATOM     24  C   UNL     1       0.648   9.908  18.365  0.00  0.00    +0.000 A 
ATOM     25  C   UNL     1       1.427   9.030  17.624  0.00  0.00    +0.000 A 
ATOM     26  C   UNL     1       2.110   7.997  18.266  0.00  0.00    +0.000 A 
ATOM     27  C   UNL     1       2.033   7.820  19.660  0.00  0.00    +0.000 A 
ENDBRANCH   1  27
TORSDOF 3
ENDMDL
MODEL 2
REMARK VINA RESULT:      -8.5      5.890      8.709
REMARK  Name = 
REMARK  4 active torsions:
REMARK  status: ('A' for Active; 'I' for Inactive)
REMARK    1  A    between atoms: C_1  and  C_2
REMARK    2  A    between atoms: C_7  and  N_8
REMARK    3  A    between atoms: C_11  and  C_12
REMARK    4  A    between atoms: C_13  and  O_14
REMARK                            x       y       z     vdW  Elec       q    Type
REMARK                         _______ _______ _______ _____ _____    ______ ____
ROOT
ATOM      1  N   UNL     1      -3.852  13.392  20.018  0.00  0.00    +0.000 N 
ATOM      2  C   UNL     1      -2.643  12.986  20.486  0.00  0.00    +0.000 A 
ATOM      3  N   UNL     1      -1.945  11.965  20.030  0.00  0.00    +0.000 NA
ATOM      4  C   UNL     1      -0.839  11.719  20.833  0.00  0.00    +0.000 A 
ATOM      5  C   UNL     1      -0.642  12.650  21.831  0.00  0.00    +0.000 A 
ATOM      6  S   UNL     1      -1.890  13.827  21.792  0.00  0.00    +0.000 S 
ATOM      7  H   UNL     1      -4.256  14.193  20.489  0.00  0.00    +0.000 HD
ENDROOT
BRANCH   4   8
ATOM      8  C   UNL     1      -0.030  10.561  20.539  0.00  0.00    +0.000 A 
ATOM      9  C   UNL     1       0.643  10.418  19.376  0.00  0.00    +0.000 A 
ATOM     10  C   UNL     1       1.424   9.217  19.079  0.00  0.00    +0.000 A 
ATOM     11  C   UNL     1       2.078   8.997  17.860  0.00  0.00    +0.000 A 
ATOM     12  C   UNL     1       2.801   7.818  17.641  0.00  0.00    +0.000 A 
ATOM     13  C   UNL     1       2.885   6.847  18.639  0.00  0.00    +0.000 A 
ATOM     14  C   UNL     1       2.238   7.053  19.854  0.00  0.00    +0.000 A 
ATOM     15  C   UNL     1       1.514   8.230  20.051  0.00  0.00    +0.000 A 
ATOM     16  O   UNL     1       0.850   8.369  21.276  0.00  0.00    +0.000 OA
ATOM     17  C   UNL     1       0.023   9.452  21.542  0.00  0.00    +0.000 A 
ATOM     18  O   UNL     1      -0.629   9.472  22.583  0.00  0.00    +0.000 OA
BRANCH   9  19
ATOM     19  O   UNL     1       0.653  11.379  18.374  0.00  0.00    +0.000 OA
ATOM     20  H   UNL     1       0.006  11.101  17.686  0.00  0.00    +0.000 HD
ENDBRANCH   9  19
ENDBRANCH   4   8
BRANCH   1  27
ATOM     21  C   UNL     1      -5.987  12.730  21.907  0.00  0.00    +0.000 C 
ATOM     22  C   UNL     1      -5.907  12.145  20.524  0.00  0.00    +0.000 A 
ATOM     23  C   UNL     1      -6.894  11.222  20.127  0.00  0.00    +0.000 A 
ATOM     24  C   UNL     1      -6.871  10.648  18.858  0.00  0.00    +0.000 A 
ATOM     25  C   UNL     1      -5.858  10.980  17.969  0.00  0.00    +0.000 A 
ATOM     26  C   UNL     1      -4.872  11.890  18.350  0.00  0.00    +0.000 A 
ATOM     27  C   UNL     1      -4.876  12.490  19.623  0.00  0.00    +0.000 A 
ENDBRANCH   1  27
TORSDOF 3
ENDMDL
MODEL 3
REMARK VINA RESULT:      -8.3      3.014      7.554
REMARK  Name = 
REMARK  4 active torsions:
REMARK  status: ('A' for Active; 'I' for Inactive)
REMARK    1  A    between atoms: C_1  and  C_2
REMARK    2  A    between atoms: C_7  and  N_8
REMARK    3  A    between atoms: C_11  and  C_12
REMARK    4  A    between atoms: C_13  and  O_14
REMARK                            x       y       z     vdW  Elec       q    Type
REMARK                         _______ _______ _______ _____ _____    ______ ____
ROOT
ATOM      1  N   UNL     1       7.782   5.498  15.176  0.00  0.00    +0.000 N 
ATOM      2  C   UNL     1       7.112   5.931  16.276  0.00  0.00    +0.000 A 
ATOM      3  N   UNL     1       6.159   5.272  16.905  0.00  0.00    +0.000 NA
ATOM      4  C   UNL     1       5.572   6.061  17.883  0.00  0.00    +0.000 A 
ATOM      5  C   UNL     1       6.181   7.285  18.070  0.00  0.00    +0.000 A 
ATOM      6  S   UNL     1       7.483   7.467  16.968  0.00  0.00    +0.000 S 
ATOM      7  H   UNL     1       8.482   6.134  14.811  0.00  0.00    +0.000 HD
ENDROOT
BRANCH   4   8
ATOM      8  C   UNL     1       4.431   5.531  18.589  0.00  0.00    +0.000 A 
ATOM      9  C   UNL     1       4.475   4.366  19.275  0.00  0.00    +0.000 A 
ATOM     10  C   UNL     1       3.295   3.823  19.949  0.00  0.00    +0.000 A 
ATOM     11  C   UNL     1       3.277   2.587  20.608  0.00  0.00    +0.000 A 
ATOM     12  C   UNL     1       2.108   2.125  21.226  0.00  0.00    +0.000 A 
ATOM     13  C   UNL     1       0.945   2.894  21.197  0.00  0.00    +0.000 A 
ATOM     14  C   UNL     1       0.949   4.123  20.542  0.00  0.00    +0.000 A 
ATOM     15  C   UNL     1       2.121   4.562  19.924  0.00  0.00    +0.000 A 
ATOM     16  O   UNL     1       2.059   5.787  19.247  0.00  0.00    +0.000 OA
ATOM     17  C   UNL     1       3.135   6.275  18.517  0.00  0.00    +0.000 A 
ATOM     18  O   UNL     1       2.995   7.293  17.845  0.00  0.00    +0.000 OA
BRANCH   9  19
ATOM     19  O   UNL     1       5.620   3.592  19.396  0.00  0.00    +0.000 OA
ATOM     20  H   UNL     1       5.699   3.317  20.337  0.00  0.00    +0.000 HD
ENDBRANCH   9  19
ENDBRANCH   4   8
BRANCH   1  27
ATOM     21  C   UNL     1       8.705   5.942  12.434  0.00  0.00    +0.000 C 
ATOM     22  C   UNL     1       7.576   5.009  12.777  0.00  0.00    +0.000 A 
ATOM     23  C   UNL     1       6.920   4.336  11.729  0.00  0.00    +0.000 A 
ATOM     24  C   UNL     1       5.867   3.460  11.986  0.00  0.00    +0.000 A 
ATOM     25  C   UNL     1       5.448   3.251  13.293  0.00  0.00    +0.000 A 
ATOM     26  C   UNL     1       6.086   3.915  14.340  0.00  0.00    +0.000 A 
ATOM     27  C   UNL     1       7.156   4.798  14.108  0.00  0.00    +0.000 A 
ENDBRANCH   1  27
TORSDOF 3
ENDMDL
MODEL 4
REMARK VINA RESULT:      -8.3      4.697      7.380
REMARK  Name = 
REMARK  4 active torsions:
REMARK  status: ('A' for Active; 'I' for Inactive)
REMARK    1  A    between atoms: C_1  and  C_2
REMARK    2  A    between atoms: C_7  and  N_8
REMARK    3  A    between atoms: C_11  and  C_12
REMARK    4  A    between atoms: C_13  and  O_14
REMARK                            x       y       z     vdW  Elec       q    Type
REMARK                         _______ _______ _______ _____ _____    ______ ____
ROOT
ATOM      1  N   UNL     1      -1.819  12.671  18.062  0.00  0.00    +0.000 N 
ATOM      2  C   UNL     1      -0.678  12.156  18.590  0.00  0.00    +0.000 A 
ATOM      3  N   UNL     1      -0.343  10.881  18.604  0.00  0.00    +0.000 NA
ATOM      4  C   UNL     1       0.800  10.675  19.363  0.00  0.00    +0.000 A 
ATOM      5  C   UNL     1       1.399  11.831  19.817  0.00  0.00    +0.000 A 
ATOM      6  S   UNL     1       0.485  13.198  19.325  0.00  0.00    +0.000 S 
ATOM      7  H   UNL     1      -1.923  13.675  18.142  0.00  0.00    +0.000 HD
ENDROOT
BRANCH   4   8
ATOM      8  C   UNL     1       1.238   9.317  19.577  0.00  0.00    +0.000 A 
ATOM      9  C   UNL     1       1.903   8.608  18.638  0.00  0.00    +0.000 A 
ATOM     10  C   UNL     1       2.300   7.217  18.858  0.00  0.00    +0.000 A 
ATOM     11  C   UNL     1       2.925   6.424  17.887  0.00  0.00    +0.000 A 
ATOM     12  C   UNL     1       3.271   5.096  18.165  0.00  0.00    +0.000 A 
ATOM     13  C   UNL     1       3.000   4.545  19.418  0.00  0.00    +0.000 A 
ATOM     14  C   UNL     1       2.376   5.321  20.390  0.00  0.00    +0.000 A 
ATOM     15  C   UNL     1       2.031   6.640  20.092  0.00  0.00    +0.000 A 
ATOM     16  O   UNL     1       1.371   7.365  21.092  0.00  0.00    +0.000 OA
ATOM     17  C   UNL     1       0.896   8.651  20.873  0.00  0.00    +0.000 A 
ATOM     18  O   UNL     1       0.222   9.201  21.740  0.00  0.00    +0.000 OA
BRANCH   9  19
ATOM     19  O   UNL     1       2.259   9.123  17.399  0.00  0.00    +0.000 OA
ATOM     20  H   UNL     1       1.804   8.590  16.709  0.00  0.00    +0.000 HD
ENDBRANCH   9  19
ENDBRANCH   4   8
BRANCH   1  27
ATOM     21  C   UNL     1      -2.784  10.978  15.878  0.00  0.00    +0.000 C 
ATOM     22  C   UNL     1      -3.577  11.229  17.132  0.00  0.00    +0.000 A 
ATOM     23  C   UNL     1      -4.850  10.639  17.250  0.00  0.00    +0.000 A 
ATOM     24  C   UNL     1      -5.629  10.836  18.388  0.00  0.00    +0.000 A 
ATOM     25  C   UNL     1      -5.153  11.633  19.420  0.00  0.00    +0.000 A 
ATOM     26  C   UNL     1      -3.896  12.227  19.315  0.00  0.00    +0.000 A 
ATOM     27  C   UNL     1      -3.086  12.037  18.180  0.00  0.00    +0.000 A 
ENDBRANCH   1  27
TORSDOF 3
ENDMDL
MODEL 5
REMARK VINA RESULT:      -8.2      5.634      8.544
REMARK  Name = 
REMARK  4 active torsions:
REMARK  status: ('A' for Active; 'I' for Inactive)
REMARK    1  A    between atoms: C_1  and  C_2
REMARK    2  A    between atoms: C_7  and  N_8
REMARK    3  A    between atoms: C_11  and  C_12
REMARK    4  A    between atoms: C_13  and  O_14
REMARK                            x       y       z     vdW  Elec       q    Type
REMARK                         _______ _______ _______ _____ _____    ______ ____
ROOT
ATOM      1  N   UNL     1      -3.617  13.193  19.621  0.00  0.00    +0.000 N 
ATOM      2  C   UNL     1      -2.374  12.839  20.039  0.00  0.00    +0.000 A 
ATOM      3  N   UNL     1      -1.753  11.715  19.742  0.00  0.00    +0.000 NA
ATOM      4  C   UNL     1      -0.573  11.593  20.462  0.00  0.00    +0.000 A 
ATOM      5  C   UNL     1      -0.247  12.702  21.215  0.00  0.00    +0.000 A 
ATOM      6  S   UNL     1      -1.465  13.900  21.053  0.00  0.00    +0.000 S 
ATOM      7  H   UNL     1      -3.949  14.092  19.949  0.00  0.00    +0.000 HD
ENDROOT
BRANCH   4   8
ATOM      8  C   UNL     1       0.173  10.363  20.341  0.00  0.00    +0.000 A 
ATOM      9  C   UNL     1       0.908  10.061  19.247  0.00  0.00    +0.000 A 
ATOM     10  C   UNL     1       1.622   8.791  19.124  0.00  0.00    +0.000 A 
ATOM     11  C   UNL     1       2.335   8.407  17.981  0.00  0.00    +0.000 A 
ATOM     12  C   UNL     1       2.990   7.169  17.931  0.00  0.00    +0.000 A 
ATOM     13  C   UNL     1       2.945   6.303  19.023  0.00  0.00    +0.000 A 
ATOM     14  C   UNL     1       2.237   6.672  20.164  0.00  0.00    +0.000 A 
ATOM     15  C   UNL     1       1.583   7.904  20.193  0.00  0.00    +0.000 A 
ATOM     16  O   UNL     1       0.855   8.209  21.349  0.00  0.00    +0.000 OA
ATOM     17  C   UNL     1       0.088   9.362  21.450  0.00  0.00    +0.000 A 
ATOM     18  O   UNL     1      -0.625   9.528  22.435  0.00  0.00    +0.000 OA
BRANCH   9  19
ATOM     19  O   UNL     1       1.045  10.911  18.158  0.00  0.00    +0.000 OA
ATOM     20  H   UNL     1       0.172  11.336  17.997  0.00  0.00    +0.000 HD
ENDBRANCH   9  19
ENDBRANCH   4   8
BRANCH   1  27
ATOM     21  C   UNL     1      -3.969  11.625  17.175  0.00  0.00    +0.000 C 
ATOM     22  C   UNL     1      -4.896  11.521  18.355  0.00  0.00    +0.000 A 
ATOM     23  C   UNL     1      -5.994  10.643  18.270  0.00  0.00    +0.000 A 
ATOM     24  C   UNL     1      -6.886  10.506  19.332  0.00  0.00    +0.000 A 
ATOM     25  C   UNL     1      -6.699  11.248  20.490  0.00  0.00    +0.000 A 
ATOM     26  C   UNL     1      -5.619  12.124  20.586  0.00  0.00    +0.000 A 
ATOM     27  C   UNL     1      -4.699  12.276  19.532  0.00  0.00    +0.000 A 
ENDBRANCH   1  27
TORSDOF 3
ENDMDL
MODEL 6
REMARK VINA RESULT:      -8.2      4.990      9.221
REMARK  Name = 
REMARK  4 active torsions:
REMARK  status: ('A' for Active; 'I' for Inactive)
REMARK    1  A    between atoms: C_1  and  C_2
REMARK    2  A    between atoms: C_7  and  N_8
REMARK    3  A    between atoms: C_11  and  C_12
REMARK    4  A    between atoms: C_13  and  O_14
REMARK                            x       y       z     vdW  Elec       q    Type
REMARK                         _______ _______ _______ _____ _____    ______ ____
ROOT
ATOM      1  N   UNL     1       3.124   5.970  19.126  0.00  0.00    +0.000 N 
ATOM      2  C   UNL     1       2.612   7.227  19.073  0.00  0.00    +0.000 A 
ATOM      3  N   UNL     1       1.949   7.830  20.040  0.00  0.00    +0.000 NA
ATOM      4  C   UNL     1       1.422   9.038  19.604  0.00  0.00    +0.000 A 
ATOM      5  C   UNL     1       1.805   9.399  18.329  0.00  0.00    +0.000 A 
ATOM      6  S   UNL     1       2.804   8.182  17.648  0.00  0.00    +0.000 S 
ATOM      7  H   UNL     1       3.601   5.656  18.290  0.00  0.00    +0.000 HD
ENDROOT
BRANCH   4   8
ATOM      8  C   UNL     1       0.568   9.772  20.506  0.00  0.00    +0.000 A 
ATOM      9  C   UNL     1      -0.497  10.488  20.081  0.00  0.00    +0.000 A 
ATOM     10  C   UNL     1      -1.326  11.260  21.006  0.00  0.00    +0.000 A 
ATOM     11  C   UNL     1      -2.394  12.072  20.602  0.00  0.00    +0.000 A 
ATOM     12  C   UNL     1      -3.140  12.791  21.544  0.00  0.00    +0.000 A 
ATOM     13  C   UNL     1      -2.833  12.704  22.901  0.00  0.00    +0.000 A 
ATOM     14  C   UNL     1      -1.772  11.904  23.316  0.00  0.00    +0.000 A 
ATOM     15  C   UNL     1      -1.034  11.201  22.363  0.00  0.00    +0.000 A 
ATOM     16  O   UNL     1       0.046  10.441  22.830  0.00  0.00    +0.000 OA
ATOM     17  C   UNL     1       0.906   9.781  21.963  0.00  0.00    +0.000 A 
ATOM     18  O   UNL     1       1.905   9.225  22.413  0.00  0.00    +0.000 OA
BRANCH   9  19
ATOM     19  O   UNL     1      -0.892  10.557  18.752  0.00  0.00    +0.000 OA
ATOM     20  H   UNL     1      -1.842  10.815  18.734  0.00  0.00    +0.000 HD
ENDBRANCH   9  19
ENDBRANCH   4   8
BRANCH   1  27
ATOM     21  C   UNL     1       1.362   4.279  17.514  0.00  0.00    +0.000 C 
ATOM     22  C   UNL     1       1.583   4.062  18.986  0.00  0.00    +0.000 A 
ATOM     23  C   UNL     1       0.895   3.010  19.620  0.00  0.00    +0.000 A 
ATOM     24  C   UNL     1       1.061   2.761  20.981  0.00  0.00    +0.000 A 
ATOM     25  C   UNL     1       1.908   3.565  21.730  0.00  0.00    +0.000 A 
ATOM     26  C   UNL     1       2.593   4.613  21.116  0.00  0.00    +0.000 A 
ATOM     27  C   UNL     1       2.450   4.881  19.742  0.00  0.00    +0.000 A 
ENDBRANCH   1  27
TORSDOF 3
ENDMDL
MODEL 7
REMARK VINA RESULT:      -8.1      3.343      5.212
REMARK  Name = 
REMARK  4 active torsions:
REMARK  status: ('A' for Active; 'I' for Inactive)
REMARK    1  A    between atoms: C_1  and  C_2
REMARK    2  A    between atoms: C_7  and  N_8
REMARK    3  A    between atoms: C_11  and  C_12
REMARK    4  A    between atoms: C_13  and  O_14
REMARK                            x       y       z     vdW  Elec       q    Type
REMARK                         _______ _______ _______ _____ _____    ______ ____
ROOT
ATOM      1  N   UNL     1      -0.771  11.004  19.729  0.00  0.00    +0.000 N 
ATOM      2  C   UNL     1       0.109  10.061  20.158  0.00  0.00    +0.000 A 
ATOM      3  N   UNL     1       0.840   9.283  19.385  0.00  0.00    +0.000 NA
ATOM      4  C   UNL     1       1.505   8.322  20.133  0.00  0.00    +0.000 A 
ATOM      5  C   UNL     1       1.365   8.465  21.498  0.00  0.00    +0.000 A 
ATOM      6  S   UNL     1       0.345   9.800  21.847  0.00  0.00    +0.000 S 
ATOM      7  H   UNL     1      -1.259  11.511  20.458  0.00  0.00    +0.000 HD
ENDROOT
BRANCH   4   8
ATOM      8  C   UNL     1       2.260   7.314  19.428  0.00  0.00    +0.000 A 
ATOM      9  C   UNL     1       3.025   7.598  18.351  0.00  0.00    +0.000 A 
ATOM     10  C   UNL     1       3.749   6.556  17.623  0.00  0.00    +0.000 A 
ATOM     11  C   UNL     1       4.494   6.794  16.461  0.00  0.00    +0.000 A 
ATOM     12  C   UNL     1       5.157   5.745  15.810  0.00  0.00    +0.000 A 
ATOM     13  C   UNL     1       5.086   4.447  16.316  0.00  0.00    +0.000 A 
ATOM     14  C   UNL     1       4.346   4.196  17.468  0.00  0.00    +0.000 A 
ATOM     15  C   UNL     1       3.686   5.252  18.097  0.00  0.00    +0.000 A 
ATOM     16  O   UNL     1       2.925   4.939  19.231  0.00  0.00    +0.000 OA
ATOM     17  C   UNL     1       2.150   5.892  19.878  0.00  0.00    +0.000 A 
ATOM     18  O   UNL     1       1.409   5.545  20.795  0.00  0.00    +0.000 OA
BRANCH   9  19
ATOM     19  O   UNL     1       3.187   8.880  17.843  0.00  0.00    +0.000 OA
ATOM     20  H   UNL     1       2.578   9.476  18.333  0.00  0.00    +0.000 HD
ENDBRANCH   9  19
ENDBRANCH   4   8
BRANCH   1  27
ATOM     21  C   UNL     1      -3.351  12.383  19.650  0.00  0.00    +0.000 C 
ATOM     22  C   UNL     1      -2.881  11.462  18.558  0.00  0.00    +0.000 A 
ATOM     23  C   UNL     1      -3.730  11.238  17.457  0.00  0.00    +0.000 A 
ATOM     24  C   UNL     1      -3.348  10.395  16.416  0.00  0.00    +0.000 A 
ATOM     25  C   UNL     1      -2.117   9.757  16.462  0.00  0.00    +0.000 A 
ATOM     26  C   UNL     1      -1.268   9.966  17.548  0.00  0.00    +0.000 A 
ATOM     27  C   UNL     1      -1.626  10.818  18.609  0.00  0.00    +0.000 A 
ENDBRANCH   1  27
TORSDOF 3
ENDMDL
MODEL 8
REMARK VINA RESULT:      -8.1      4.742      8.847
REMARK  Name = 
REMARK  4 active torsions:
REMARK  status: ('A' for Active; 'I' for Inactive)
REMARK    1  A    between atoms: C_1  and  C_2
REMARK    2  A    between atoms: C_7  and  N_8
REMARK    3  A    between atoms: C_11  and  C_12
REMARK    4  A    between atoms: C_13  and  O_14
REMARK                            x       y       z     vdW  Elec       q    Type
REMARK                         _______ _______ _______ _____ _____    ______ ____
ROOT
ATOM      1  N   UNL     1       3.480   5.504  19.255  0.00  0.00    +0.000 N 
ATOM      2  C   UNL     1       3.042   6.750  18.936  0.00  0.00    +0.000 A 
ATOM      3  N   UNL     1       2.212   7.481  19.654  0.00  0.00    +0.000 NA
ATOM      4  C   UNL     1       1.839   8.628  18.968  0.00  0.00    +0.000 A 
ATOM      5  C   UNL     1       2.499   8.816  17.771  0.00  0.00    +0.000 A 
ATOM      6  S   UNL     1       3.571   7.509  17.479  0.00  0.00    +0.000 S 
ATOM      7  H   UNL     1       4.112   5.078  18.587  0.00  0.00    +0.000 HD
ENDROOT
BRANCH   4   8
ATOM      8  C   UNL     1       0.842   9.483  19.566  0.00  0.00    +0.000 A 
ATOM      9  C   UNL     1       0.728   9.645  20.903  0.00  0.00    +0.000 A 
ATOM     10  C   UNL     1      -0.316  10.483  21.493  0.00  0.00    +0.000 A 
ATOM     11  C   UNL     1      -0.515  10.622  22.872  0.00  0.00    +0.000 A 
ATOM     12  C   UNL     1      -1.542  11.436  23.367  0.00  0.00    +0.000 A 
ATOM     13  C   UNL     1      -2.379  12.125  22.489  0.00  0.00    +0.000 A 
ATOM     14  C   UNL     1      -2.194  11.993  21.116  0.00  0.00    +0.000 A 
ATOM     15  C   UNL     1      -1.171  11.170  20.641  0.00  0.00    +0.000 A 
ATOM     16  O   UNL     1      -1.052  11.043  19.252  0.00  0.00    +0.000 OA
ATOM     17  C   UNL     1      -0.135  10.178  18.671  0.00  0.00    +0.000 A 
ATOM     18  O   UNL     1      -0.149  10.013  17.454  0.00  0.00    +0.000 OA
BRANCH   9  19
ATOM     19  O   UNL     1       1.574   9.039  21.822  0.00  0.00    +0.000 OA
ATOM     20  H   UNL     1       1.039   8.810  22.616  0.00  0.00    +0.000 HD
ENDBRANCH   9  19
ENDBRANCH   4   8
BRANCH   1  27
ATOM     21  C   UNL     1       1.528   4.104  17.584  0.00  0.00    +0.000 C 
ATOM     22  C   UNL     1       1.688   3.835  19.056  0.00  0.00    +0.000 A 
ATOM     23  C   UNL     1       0.847   2.882  19.660  0.00  0.00    +0.000 A 
ATOM     24  C   UNL     1       0.950   2.593  21.019  0.00  0.00    +0.000 A 
ATOM     25  C   UNL     1       1.889   3.257  21.797  0.00  0.00    +0.000 A 
ATOM     26  C   UNL     1       2.725   4.207  21.212  0.00  0.00    +0.000 A 
ATOM     27  C   UNL     1       2.647   4.512  19.841  0.00  0.00    +0.000 A 
ENDBRANCH   1  27
TORSDOF 3
ENDMDL
MODEL 9
REMARK VINA RESULT:      -7.9      4.451      6.944
REMARK  Name = 
REMARK  4 active torsions:
REMARK  status: ('A' for Active; 'I' for Inactive)
REMARK    1  A    between atoms: C_1  and  C_2
REMARK    2  A    between atoms: C_7  and  N_8
REMARK    3  A    between atoms: C_11  and  C_12
REMARK    4  A    between atoms: C_13  and  O_14
REMARK                            x       y       z     vdW  Elec       q    Type
REMARK                         _______ _______ _______ _____ _____    ______ ____
ROOT
ATOM      1  N   UNL     1      -1.262  12.560  17.935  0.00  0.00    +0.000 N 
ATOM      2  C   UNL     1      -0.290  11.966  18.675  0.00  0.00    +0.000 A 
ATOM      3  N   UNL     1       0.099  10.711  18.568  0.00  0.00    +0.000 NA
ATOM      4  C   UNL     1       0.990  10.379  19.580  0.00  0.00    +0.000 A 
ATOM      5  C   UNL     1       1.367  11.439  20.378  0.00  0.00    +0.000 A 
ATOM      6  S   UNL     1       0.554  12.866  19.882  0.00  0.00    +0.000 S 
ATOM      7  H   UNL     1      -1.443  13.533  18.150  0.00  0.00    +0.000 HD
ENDROOT
BRANCH   4   8
ATOM      8  C   UNL     1       1.426   9.007  19.678  0.00  0.00    +0.000 A 
ATOM      9  C   UNL     1       2.055   8.368  18.667  0.00  0.00    +0.000 A 
ATOM     10  C   UNL     1       2.451   6.963  18.769  0.00  0.00    +0.000 A 
ATOM     11  C   UNL     1       3.039   6.243  17.722  0.00  0.00    +0.000 A 
ATOM     12  C   UNL     1       3.386   4.896  17.888  0.00  0.00    +0.000 A 
ATOM     13  C   UNL     1       3.153   4.254  19.105  0.00  0.00    +0.000 A 
ATOM     14  C   UNL     1       2.566   4.958  20.153  0.00  0.00    +0.000 A 
ATOM     15  C   UNL     1       2.219   6.297  19.965  0.00  0.00    +0.000 A 
ATOM     16  O   UNL     1       1.597   6.947  21.038  0.00  0.00    +0.000 OA
ATOM     17  C   UNL     1       1.123   8.247  20.931  0.00  0.00    +0.000 A 
ATOM     18  O   UNL     1       0.481   8.733  21.858  0.00  0.00    +0.000 OA
BRANCH   9  19
ATOM     19  O   UNL     1       2.373   8.973  17.459  0.00  0.00    +0.000 OA
ATOM     20  H   UNL     1       3.087   9.628  17.630  0.00  0.00    +0.000 HD
ENDBRANCH   9  19
ENDBRANCH   4   8
BRANCH   1  27
ATOM     21  C   UNL     1      -3.477  12.480  19.846  0.00  0.00    +0.000 C 
ATOM     22  C   UNL     1      -3.547  11.845  18.484  0.00  0.00    +0.000 A 
ATOM     23  C   UNL     1      -4.725  11.163  18.121  0.00  0.00    +0.000 A 
ATOM     24  C   UNL     1      -4.846  10.555  16.873  0.00  0.00    +0.000 A 
ATOM     25  C   UNL     1      -3.791  10.611  15.973  0.00  0.00    +0.000 A 
ATOM     26  C   UNL     1      -2.618  11.279  16.321  0.00  0.00    +0.000 A 
ATOM     27  C   UNL     1      -2.472  11.908  17.571  0.00  0.00    +0.000 A 
ENDBRANCH   1  27
TORSDOF 3
ENDMDL
