MODEL 1
REMARK VINA RESULT:      -8.5      0.000      0.000
REMARK  Name = 
REMARK  7 active torsions:
REMARK  status: ('A' for Active; 'I' for Inactive)
REMARK    1  A    between atoms: C_1  and  C_2
REMARK    2  A    between atoms: C_2  and  N_3
REMARK    3  A    between atoms: C_2  and  C_20
REMARK    4  A    between atoms: C_4  and  C_6
REMARK    5  A    between atoms: C_6  and  N_7
REMARK    6  A    between atoms: N_10  and  C_11
REMARK    7  A    between atoms: C_14  and  C_15
REMARK                            x       y       z     vdW  Elec       q    Type
REMARK                         _______ _______ _______ _____ _____    ______ ____
ROOT
ATOM      1  N   UNL     1       8.093   6.921  18.877  0.00  0.00    +0.000 N 
ATOM      2  C   UNL     1       8.315   8.111  18.224  0.00  0.00    +0.000 C 
ATOM      3  O   UNL     1       8.012   8.233  17.041  0.00  0.00    +0.000 OA
ATOM      4  N   UNL     1       8.956   9.045  19.000  0.00  0.00    +0.000 N 
ATOM      5  H   UNL     1       8.042   6.923  19.883  0.00  0.00    +0.000 HD
ATOM      6  H   UNL     1       9.443   8.692  19.814  0.00  0.00    +0.000 HD
ENDROOT
BRANCH   4   7
ATOM      7  C   UNL     1       9.253  10.363  18.584  0.00  0.00    +0.000 A 
ATOM      8  C   UNL     1      10.518  10.937  18.753  0.00  0.00    +0.000 A 
ATOM      9  C   UNL     1      10.775  12.248  18.337  0.00  0.00    +0.000 A 
ATOM     10  C   UNL     1       9.771  13.003  17.733  0.00  0.00    +0.000 A 
ATOM     11  C   UNL     1       8.501  12.436  17.560  0.00  0.00    +0.000 A 
ATOM     12  C   UNL     1       8.250  11.119  17.972  0.00  0.00    +0.000 A 
BRANCH  10  13
ATOM     13  C   UNL     1      10.063  14.392  17.273  0.00  0.00    +0.000 C 
ATOM     14  N   UNL     1      11.080  14.686  16.523  0.00  0.00    +0.000 NA
ATOM     15  N   UNL     1       9.258  15.431  17.629  0.00  0.00    +0.000 N 
ATOM     16  H   UNL     1      11.665  13.866  16.347  0.00  0.00    +0.000 HD
ATOM     17  H   UNL     1       8.265  15.240  17.681  0.00  0.00    +0.000 HD
ATOM     18  H   UNL     1       9.470  16.258  17.077  0.00  0.00    +0.000 HD
ENDBRANCH  10  13
ENDBRANCH   4   7
BRANCH   1  19
ATOM     19  C   UNL     1       7.448   5.826  18.163  0.00  0.00    +0.000 C 
BRANCH  19  21
ATOM     20  N   UNL     1       5.079   6.003  17.511  0.00  0.00    +0.000 N 
ATOM     21  C   UNL     1       5.962   5.722  18.534  0.00  0.00    +0.000 C 
ATOM     22  O   UNL     1       5.603   5.435  19.674  0.00  0.00    +0.000 OA
ATOM     23  H   UNL     1       5.474   6.282  16.615  0.00  0.00    +0.000 HD
BRANCH  20  25
ATOM     24  C   UNL     1       3.057   6.901  18.625  0.00  0.00    +0.000 C 
ATOM     25  C   UNL     1       3.642   5.851  17.672  0.00  0.00    +0.000 C 
BRANCH  25  26
ATOM     26  C   UNL     1       3.223   4.478  18.172  0.00  0.00    +0.000 A 
ATOM     27  C   UNL     1       3.224   3.400  17.265  0.00  0.00    +0.000 A 
ATOM     28  C   UNL     1       2.689   2.161  17.620  0.00  0.00    +0.000 A 
ATOM     29  C   UNL     1       2.154   1.973  18.892  0.00  0.00    +0.000 A 
ATOM     30  C   UNL     1       2.169   3.024  19.807  0.00  0.00    +0.000 A 
ATOM     31 BR   UNL     1       1.430   2.772  21.530  0.00  0.00    +0.000 Br
ATOM     32  C   UNL     1       2.693   4.270  19.456  0.00  0.00    +0.000 A 
ENDBRANCH  25  26
ENDBRANCH  20  25
ENDBRANCH  19  21
ENDBRANCH   1  19
TORSDOF 6
ENDMDL
MODEL 2
REMARK VINA RESULT:      -8.5      1.955      3.166
REMARK  Name = 
REMARK  7 active torsions:
REMARK  status: ('A' for Active; 'I' for Inactive)
REMARK    1  A    between atoms: C_1  and  C_2
REMARK    2  A    between atoms: C_2  and  N_3
REMARK    3  A    between atoms: C_2  and  C_20
REMARK    4  A    between atoms: C_4  and  C_6
REMARK    5  A    between atoms: C_6  and  N_7
REMARK    6  A    between atoms: N_10  and  C_11
REMARK    7  A    between atoms: C_14  and  C_15
REMARK                            x       y       z     vdW  Elec       q    Type
REMARK                         _______ _______ _______ _____ _____    ______ ____
ROOT
ATOM      1  N   UNL     1       8.089   6.766  18.621  0.00  0.00    +0.000 N 
ATOM      2  C   UNL     1       8.126   8.118  18.370  0.00  0.00    +0.000 C 
ATOM      3  O   UNL     1       7.450   8.597  17.464  0.00  0.00    +0.000 OA
ATOM      4  N   UNL     1       9.024   8.793  19.158  0.00  0.00    +0.000 N 
ATOM      5  H   UNL     1       8.377   6.435  19.527  0.00  0.00    +0.000 HD
ATOM      6  H   UNL     1       9.741   8.232  19.600  0.00  0.00    +0.000 HD
ENDROOT
BRANCH   4   7
ATOM      7  C   UNL     1       9.215  10.193  19.135  0.00  0.00    +0.000 A 
ATOM      8  C   UNL     1       9.310  10.959  20.302  0.00  0.00    +0.000 A 
ATOM      9  C   UNL     1       9.492  12.345  20.241  0.00  0.00    +0.000 A 
ATOM     10  C   UNL     1       9.594  12.986  19.008  0.00  0.00    +0.000 A 
ATOM     11  C   UNL     1       9.500  12.228  17.833  0.00  0.00    +0.000 A 
ATOM     12  C   UNL     1       9.326  10.838  17.899  0.00  0.00    +0.000 A 
BRANCH  10  13
ATOM     13  C   UNL     1       9.810  14.462  18.956  0.00  0.00    +0.000 C 
ATOM     14  N   UNL     1       9.076  15.256  18.238  0.00  0.00    +0.000 NA
ATOM     15  N   UNL     1      10.806  15.049  19.673  0.00  0.00    +0.000 N 
ATOM     16  H   UNL     1       8.390  14.735  17.687  0.00  0.00    +0.000 HD
ATOM     17  H   UNL     1      10.997  14.662  20.589  0.00  0.00    +0.000 HD
ATOM     18  H   UNL     1      10.692  16.059  19.692  0.00  0.00    +0.000 HD
ENDBRANCH  10  13
ENDBRANCH   4   7
BRANCH   1  19
ATOM     19  C   UNL     1       7.201   5.918  17.834  0.00  0.00    +0.000 C 
BRANCH  19  21
ATOM     20  N   UNL     1       4.764   6.148  18.108  0.00  0.00    +0.000 N 
ATOM     21  C   UNL     1       5.920   5.587  18.612  0.00  0.00    +0.000 C 
ATOM     22  O   UNL     1       5.945   4.891  19.625  0.00  0.00    +0.000 OA
ATOM     23  H   UNL     1       4.853   6.753  17.293  0.00  0.00    +0.000 HD
BRANCH  20  25
ATOM     24  C   UNL     1       2.692   4.821  17.824  0.00  0.00    +0.000 C 
ATOM     25  C   UNL     1       3.456   5.849  18.668  0.00  0.00    +0.000 C 
BRANCH  25  26
ATOM     26  C   UNL     1       2.567   7.072  18.836  0.00  0.00    +0.000 A 
ATOM     27  C   UNL     1       2.423   7.955  17.749  0.00  0.00    +0.000 A 
ATOM     28  C   UNL     1       1.764   9.176  17.897  0.00  0.00    +0.000 A 
ATOM     29  C   UNL     1       1.226   9.531  19.132  0.00  0.00    +0.000 A 
ATOM     30  C   UNL     1       1.340   8.654  20.209  0.00  0.00    +0.000 A 
ATOM     31 BR   UNL     1       0.621   9.142  21.889  0.00  0.00    +0.000 Br
ATOM     32  C   UNL     1       2.008   7.436  20.072  0.00  0.00    +0.000 A 
ENDBRANCH  25  26
ENDBRANCH  20  25
ENDBRANCH  19  21
ENDBRANCH   1  19
TORSDOF 6
ENDMDL
MODEL 3
REMARK VINA RESULT:      -8.4      1.981      3.213
REMARK  Name = 
REMARK  7 active torsions:
REMARK  status: ('A' for Active; 'I' for Inactive)
REMARK    1  A    between atoms: C_1  and  C_2
REMARK    2  A    between atoms: C_2  and  N_3
REMARK    3  A    between atoms: C_2  and  C_20
REMARK    4  A    between atoms: C_4  and  C_6
REMARK    5  A    between atoms: C_6  and  N_7
REMARK    6  A    between atoms: N_10  and  C_11
REMARK    7  A    between atoms: C_14  and  C_15
REMARK                            x       y       z     vdW  Elec       q    Type
REMARK                         _______ _______ _______ _____ _____    ______ ____
ROOT
ATOM      1  N   UNL     1       8.110   6.953  18.520  0.00  0.00    +0.000 N 
ATOM      2  C   UNL     1       8.143   8.309  18.291  0.00  0.00    +0.000 C 
ATOM      3  O   UNL     1       7.438   8.805  17.416  0.00  0.00    +0.000 OA
ATOM      4  N   UNL     1       9.069   8.968  19.059  0.00  0.00    +0.000 N 
ATOM      5  H   UNL     1       8.427   6.605  19.411  0.00  0.00    +0.000 HD
ATOM      6  H   UNL     1       9.799   8.398  19.468  0.00  0.00    +0.000 HD
ENDROOT
BRANCH   4   7
ATOM      7  C   UNL     1       9.265  10.368  19.053  0.00  0.00    +0.000 A 
ATOM      8  C   UNL     1       9.565  11.080  17.887  0.00  0.00    +0.000 A 
ATOM      9  C   UNL     1       9.761  12.465  17.920  0.00  0.00    +0.000 A 
ATOM     10  C   UNL     1       9.646  13.163  19.120  0.00  0.00    +0.000 A 
ATOM     11  C   UNL     1       9.345  12.458  20.294  0.00  0.00    +0.000 A 
ATOM     12  C   UNL     1       9.142  11.071  20.255  0.00  0.00    +0.000 A 
BRANCH  10  13
ATOM     13  C   UNL     1       9.834  14.643  19.139  0.00  0.00    +0.000 C 
ATOM     14  N   UNL     1      10.176  15.296  20.207  0.00  0.00    +0.000 NA
ATOM     15  N   UNL     1       9.652  15.386  18.013  0.00  0.00    +0.000 N 
ATOM     16  H   UNL     1      10.237  14.678  21.020  0.00  0.00    +0.000 HD
ATOM     17  H   UNL     1       9.948  14.968  17.139  0.00  0.00    +0.000 HD
ATOM     18  H   UNL     1      10.013  16.328  18.138  0.00  0.00    +0.000 HD
ENDBRANCH  10  13
ENDBRANCH   4   7
BRANCH   1  19
ATOM     19  C   UNL     1       7.194   6.121  17.750  0.00  0.00    +0.000 C 
BRANCH  19  21
ATOM     20  N   UNL     1       4.749   6.223  18.031  0.00  0.00    +0.000 N 
ATOM     21  C   UNL     1       5.940   5.776  18.566  0.00  0.00    +0.000 C 
ATOM     22  O   UNL     1       6.014   5.168  19.631  0.00  0.00    +0.000 OA
ATOM     23  H   UNL     1       4.795   6.764  17.170  0.00  0.00    +0.000 HD
BRANCH  20  25
ATOM     24  C   UNL     1       2.697   4.854  17.799  0.00  0.00    +0.000 C 
ATOM     25  C   UNL     1       3.465   5.891  18.628  0.00  0.00    +0.000 C 
BRANCH  25  26
ATOM     26  C   UNL     1       2.556   7.093  18.833  0.00  0.00    +0.000 A 
ATOM     27  C   UNL     1       2.344   7.971  17.753  0.00  0.00    +0.000 A 
ATOM     28  C   UNL     1       1.663   9.176  17.929  0.00  0.00    +0.000 A 
ATOM     29  C   UNL     1       1.171   9.520  19.186  0.00  0.00    +0.000 A 
ATOM     30  C   UNL     1       1.352   8.648  20.257  0.00  0.00    +0.000 A 
ATOM     31 BR   UNL     1       0.694   9.121  21.966  0.00  0.00    +0.000 Br
ATOM     32  C   UNL     1       2.042   7.445  20.092  0.00  0.00    +0.000 A 
ENDBRANCH  25  26
ENDBRANCH  20  25
ENDBRANCH  19  21
ENDBRANCH   1  19
TORSDOF 6
ENDMDL
MODEL 4
REMARK VINA RESULT:      -8.4      2.196      3.287
REMARK  Name = 
REMARK  7 active torsions:
REMARK  status: ('A' for Active; 'I' for Inactive)
REMARK    1  A    between atoms: C_1  and  C_2
REMARK    2  A    between atoms: C_2  and  N_3
REMARK    3  A    between atoms: C_2  and  C_20
REMARK    4  A    between atoms: C_4  and  C_6
REMARK    5  A    between atoms: C_6  and  N_7
REMARK    6  A    between atoms: N_10  and  C_11
REMARK    7  A    between atoms: C_14  and  C_15
REMARK                            x       y       z     vdW  Elec       q    Type
REMARK                         _______ _______ _______ _____ _____    ______ ____
ROOT
ATOM      1  N   UNL     1       7.168   6.849  16.824  0.00  0.00    +0.000 N 
ATOM      2  C   UNL     1       7.826   7.652  17.727  0.00  0.00    +0.000 C 
ATOM      3  O   UNL     1       8.291   7.172  18.757  0.00  0.00    +0.000 OA
ATOM      4  N   UNL     1       7.813   8.980  17.383  0.00  0.00    +0.000 N 
ATOM      5  H   UNL     1       7.076   7.166  15.873  0.00  0.00    +0.000 HD
ATOM      6  H   UNL     1       7.111   9.262  16.711  0.00  0.00    +0.000 HD
ENDROOT
BRANCH   4   7
ATOM      7  C   UNL     1       8.463  10.003  18.112  0.00  0.00    +0.000 A 
ATOM      8  C   UNL     1       9.159   9.754  19.300  0.00  0.00    +0.000 A 
ATOM      9  C   UNL     1       9.782  10.792  20.001  0.00  0.00    +0.000 A 
ATOM     10  C   UNL     1       9.730  12.097  19.516  0.00  0.00    +0.000 A 
ATOM     11  C   UNL     1       9.035  12.357  18.327  0.00  0.00    +0.000 A 
ATOM     12  C   UNL     1       8.418  11.312  17.624  0.00  0.00    +0.000 A 
BRANCH  10  13
ATOM     13  C   UNL     1      10.418  13.192  20.260  0.00  0.00    +0.000 C 
ATOM     14  N   UNL     1      11.457  13.815  19.794  0.00  0.00    +0.000 NA
ATOM     15  N   UNL     1       9.977  13.592  21.484  0.00  0.00    +0.000 N 
ATOM     16  H   UNL     1      11.761  13.421  18.901  0.00  0.00    +0.000 HD
ATOM     17  H   UNL     1       8.974  13.597  21.626  0.00  0.00    +0.000 HD
ATOM     18  H   UNL     1      10.415  14.467  21.758  0.00  0.00    +0.000 HD
ENDBRANCH  10  13
ENDBRANCH   4   7
BRANCH   1  19
ATOM     19  C   UNL     1       7.074   5.417  17.080  0.00  0.00    +0.000 C 
BRANCH  19  21
ATOM     20  N   UNL     1       4.725   5.780  17.729  0.00  0.00    +0.000 N 
ATOM     21  C   UNL     1       5.892   5.097  18.006  0.00  0.00    +0.000 C 
ATOM     22  O   UNL     1       6.004   4.306  18.940  0.00  0.00    +0.000 OA
ATOM     23  H   UNL     1       4.747   6.454  16.966  0.00  0.00    +0.000 HD
BRANCH  20  25
ATOM     24  C   UNL     1       2.612   4.487  17.721  0.00  0.00    +0.000 C 
ATOM     25  C   UNL     1       3.489   5.516  18.447  0.00  0.00    +0.000 C 
BRANCH  25  26
ATOM     26  C   UNL     1       2.647   6.757  18.696  0.00  0.00    +0.000 A 
ATOM     27  C   UNL     1       2.440   7.656  17.632  0.00  0.00    +0.000 A 
ATOM     28  C   UNL     1       1.824   8.891  17.844  0.00  0.00    +0.000 A 
ATOM     29  C   UNL     1       1.395   9.244  19.121  0.00  0.00    +0.000 A 
ATOM     30  C   UNL     1       1.572   8.353  20.178  0.00  0.00    +0.000 A 
ATOM     31 BR   UNL     1       1.000   8.839  21.913  0.00  0.00    +0.000 Br
ATOM     32  C   UNL     1       2.197   7.121  19.977  0.00  0.00    +0.000 A 
ENDBRANCH  25  26
ENDBRANCH  20  25
ENDBRANCH  19  21
ENDBRANCH   1  19
TORSDOF 6
ENDMDL
MODEL 5
REMARK VINA RESULT:      -8.3      1.148      1.305
REMARK  Name = 
REMARK  7 active torsions:
REMARK  status: ('A' for Active; 'I' for Inactive)
REMARK    1  A    between atoms: C_1  and  C_2
REMARK    2  A    between atoms: C_2  and  N_3
REMARK    3  A    between atoms: C_2  and  C_20
REMARK    4  A    between atoms: C_4  and  C_6
REMARK    5  A    between atoms: C_6  and  N_7
REMARK    6  A    between atoms: N_10  and  C_11
REMARK    7  A    between atoms: C_14  and  C_15
REMARK                            x       y       z     vdW  Elec       q    Type
REMARK                         _______ _______ _______ _____ _____    ______ ____
ROOT
ATOM      1  N   UNL     1       7.932   6.880  18.348  0.00  0.00    +0.000 N 
ATOM      2  C   UNL     1       8.106   8.235  18.185  0.00  0.00    +0.000 C 
ATOM      3  O   UNL     1       7.558   8.822  17.256  0.00  0.00    +0.000 OA
ATOM      4  N   UNL     1       8.981   8.783  19.089  0.00  0.00    +0.000 N 
ATOM      5  H   UNL     1       8.107   6.476  19.254  0.00  0.00    +0.000 HD
ATOM      6  H   UNL     1       9.605   8.138  19.556  0.00  0.00    +0.000 HD
ENDROOT
BRANCH   4   7
ATOM      7  C   UNL     1       9.291  10.160  19.169  0.00  0.00    +0.000 A 
ATOM      8  C   UNL     1       9.598  10.929  18.042  0.00  0.00    +0.000 A 
ATOM      9  C   UNL     1       9.909  12.288  18.159  0.00  0.00    +0.000 A 
ATOM     10  C   UNL     1       9.906  12.904  19.410  0.00  0.00    +0.000 A 
ATOM     11  C   UNL     1       9.599  12.141  20.545  0.00  0.00    +0.000 A 
ATOM     12  C   UNL     1       9.281  10.782  20.421  0.00  0.00    +0.000 A 
BRANCH  10  13
ATOM     13  C   UNL     1      10.216  14.359  19.520  0.00  0.00    +0.000 C 
ATOM     14  N   UNL     1      11.429  14.822  19.517  0.00  0.00    +0.000 NA
ATOM     15  N   UNL     1       9.222  15.281  19.633  0.00  0.00    +0.000 N 
ATOM     16  H   UNL     1      12.118  14.067  19.487  0.00  0.00    +0.000 HD
ATOM     17  H   UNL     1       8.376  15.104  19.105  0.00  0.00    +0.000 HD
ATOM     18  H   UNL     1       9.582  16.221  19.492  0.00  0.00    +0.000 HD
ENDBRANCH  10  13
ENDBRANCH   4   7
BRANCH   1  19
ATOM     19  C   UNL     1       7.052   6.160  17.436  0.00  0.00    +0.000 C 
BRANCH  19  21
ATOM     20  N   UNL     1       4.597   6.248  17.256  0.00  0.00    +0.000 N 
ATOM     21  C   UNL     1       5.670   5.932  18.065  0.00  0.00    +0.000 C 
ATOM     22  O   UNL     1       5.548   5.523  19.217  0.00  0.00    +0.000 OA
ATOM     23  H   UNL     1       4.801   6.630  16.335  0.00  0.00    +0.000 HD
BRANCH  20  25
ATOM     24  C   UNL     1       2.760   6.972  18.752  0.00  0.00    +0.000 C 
ATOM     25  C   UNL     1       3.225   5.994  17.665  0.00  0.00    +0.000 C 
BRANCH  25  26
ATOM     26  C   UNL     1       2.988   4.581  18.173  0.00  0.00    +0.000 A 
ATOM     27  C   UNL     1       3.017   3.518  17.249  0.00  0.00    +0.000 A 
ATOM     28  C   UNL     1       2.639   2.229  17.625  0.00  0.00    +0.000 A 
ATOM     29  C   UNL     1       2.237   1.975  18.934  0.00  0.00    +0.000 A 
ATOM     30  C   UNL     1       2.228   3.013  19.864  0.00  0.00    +0.000 A 
ATOM     31 BR   UNL     1       1.670   2.671  21.638  0.00  0.00    +0.000 Br
ATOM     32  C   UNL     1       2.594   4.308  19.494  0.00  0.00    +0.000 A 
ENDBRANCH  25  26
ENDBRANCH  20  25
ENDBRANCH  19  21
ENDBRANCH   1  19
TORSDOF 6
ENDMDL
MODEL 6
REMARK VINA RESULT:      -8.2      2.599      3.318
REMARK  Name = 
REMARK  7 active torsions:
REMARK  status: ('A' for Active; 'I' for Inactive)
REMARK    1  A    between atoms: C_1  and  C_2
REMARK    2  A    between atoms: C_2  and  N_3
REMARK    3  A    between atoms: C_2  and  C_20
REMARK    4  A    between atoms: C_4  and  C_6
REMARK    5  A    between atoms: C_6  and  N_7
REMARK    6  A    between atoms: N_10  and  C_11
REMARK    7  A    between atoms: C_14  and  C_15
REMARK                            x       y       z     vdW  Elec       q    Type
REMARK                         _______ _______ _______ _____ _____    ______ ____
ROOT
ATOM      1  N   UNL     1       8.655   8.672  18.751  0.00  0.00    +0.000 N 
ATOM      2  C   UNL     1       8.882  10.022  18.896  0.00  0.00    +0.000 C 
ATOM      3  O   UNL     1       8.630  10.794  17.975  0.00  0.00    +0.000 OA
ATOM      4  N   UNL     1       9.469  10.348  20.093  0.00  0.00    +0.000 N 
ATOM      5  H   UNL     1       8.560   8.107  19.578  0.00  0.00    +0.000 HD
ATOM      6  H   UNL     1       9.926   9.594  20.588  0.00  0.00    +0.000 HD
ENDROOT
BRANCH   4   7
ATOM      7  C   UNL     1       9.757  11.668  20.509  0.00  0.00    +0.000 A 
ATOM      8  C   UNL     1       8.991  12.339  21.469  0.00  0.00    +0.000 A 
ATOM      9  C   UNL     1       9.301  13.648  21.851  0.00  0.00    +0.000 A 
ATOM     10  C   UNL     1      10.393  14.305  21.287  0.00  0.00    +0.000 A 
ATOM     11  C   UNL     1      11.166  13.642  20.324  0.00  0.00    +0.000 A 
ATOM     12  C   UNL     1      10.856  12.327  19.950  0.00  0.00    +0.000 A 
BRANCH  10  13
ATOM     13  C   UNL     1      10.727  15.693  21.719  0.00  0.00    +0.000 C 
ATOM     14  N   UNL     1      10.712  16.067  22.962  0.00  0.00    +0.000 NA
ATOM     15  N   UNL     1      11.068  16.647  20.809  0.00  0.00    +0.000 N 
ATOM     16  H   UNL     1      10.391  15.314  23.575  0.00  0.00    +0.000 HD
ATOM     17  H   UNL     1      11.623  16.343  20.018  0.00  0.00    +0.000 HD
ATOM     18  H   UNL     1      11.460  17.463  21.271  0.00  0.00    +0.000 HD
ENDBRANCH  10  13
ENDBRANCH   4   7
BRANCH   1  19
ATOM     19  C   UNL     1       8.066   8.178  17.513  0.00  0.00    +0.000 C 
BRANCH  19  21
ATOM     20  N   UNL     1       6.606   6.370  16.696  0.00  0.00    +0.000 N 
ATOM     21  C   UNL     1       7.432   6.795  17.716  0.00  0.00    +0.000 C 
ATOM     22  O   UNL     1       7.637   6.138  18.734  0.00  0.00    +0.000 OA
ATOM     23  H   UNL     1       6.457   7.008  15.916  0.00  0.00    +0.000 HD
BRANCH  20  25
ATOM     24  C   UNL     1       6.053   4.403  15.295  0.00  0.00    +0.000 C 
ATOM     25  C   UNL     1       6.011   5.043  16.688  0.00  0.00    +0.000 C 
BRANCH  25  26
ATOM     26  C   UNL     1       4.571   5.014  17.175  0.00  0.00    +0.000 A 
ATOM     27  C   UNL     1       3.940   6.234  17.489  0.00  0.00    +0.000 A 
ATOM     28  C   UNL     1       2.686   6.258  18.099  0.00  0.00    +0.000 A 
ATOM     29  C   UNL     1       2.033   5.064  18.396  0.00  0.00    +0.000 A 
ATOM     30  C   UNL     1       2.635   3.851  18.067  0.00  0.00    +0.000 A 
ATOM     31 BR   UNL     1       1.753   2.230  18.481  0.00  0.00    +0.000 Br
ATOM     32  C   UNL     1       3.895   3.817  17.466  0.00  0.00    +0.000 A 
ENDBRANCH  25  26
ENDBRANCH  20  25
ENDBRANCH  19  21
ENDBRANCH   1  19
TORSDOF 6
ENDMDL
MODEL 7
REMARK VINA RESULT:      -8.2      7.145     10.584
REMARK  Name = 
REMARK  7 active torsions:
REMARK  status: ('A' for Active; 'I' for Inactive)
REMARK    1  A    between atoms: C_1  and  C_2
REMARK    2  A    between atoms: C_2  and  N_3
REMARK    3  A    between atoms: C_2  and  C_20
REMARK    4  A    between atoms: C_4  and  C_6
REMARK    5  A    between atoms: C_6  and  N_7
REMARK    6  A    between atoms: N_10  and  C_11
REMARK    7  A    between atoms: C_14  and  C_15
REMARK                            x       y       z     vdW  Elec       q    Type
REMARK                         _______ _______ _______ _____ _____    ______ ____
ROOT
ATOM      1  N   UNL     1       0.923   9.497  22.362  0.00  0.00    +0.000 N 
ATOM      2  C   UNL     1       0.713   8.386  21.578  0.00  0.00    +0.000 C 
ATOM      3  O   UNL     1      -0.429   8.021  21.315  0.00  0.00    +0.000 OA
ATOM      4  N   UNL     1       1.873   7.740  21.228  0.00  0.00    +0.000 N 
ATOM      5  H   UNL     1       1.814   9.963  22.310  0.00  0.00    +0.000 HD
ATOM      6  H   UNL     1       2.687   7.947  21.792  0.00  0.00    +0.000 HD
ENDROOT
BRANCH   4   7
ATOM      7  C   UNL     1       1.935   6.607  20.386  0.00  0.00    +0.000 A 
ATOM      8  C   UNL     1       2.383   6.677  19.062  0.00  0.00    +0.000 A 
ATOM      9  C   UNL     1       2.424   5.536  18.254  0.00  0.00    +0.000 A 
ATOM     10  C   UNL     1       2.028   4.300  18.763  0.00  0.00    +0.000 A 
ATOM     11  C   UNL     1       1.579   4.220  20.088  0.00  0.00    +0.000 A 
ATOM     12  C   UNL     1       1.546   5.365  20.896  0.00  0.00    +0.000 A 
BRANCH  10  13
ATOM     13  C   UNL     1       2.098   3.086  17.899  0.00  0.00    +0.000 C 
ATOM     14  N   UNL     1       2.427   3.133  16.644  0.00  0.00    +0.000 NA
ATOM     15  N   UNL     1       1.812   1.853  18.399  0.00  0.00    +0.000 N 
ATOM     16  H   UNL     1       2.570   4.095  16.330  0.00  0.00    +0.000 HD
ATOM     17  H   UNL     1       2.107   1.669  19.351  0.00  0.00    +0.000 HD
ATOM     18  H   UNL     1       2.102   1.124  17.753  0.00  0.00    +0.000 HD
ENDBRANCH  10  13
ENDBRANCH   4   7
BRANCH   1  19
ATOM     19  C   UNL     1      -0.224  10.263  22.835  0.00  0.00    +0.000 C 
BRANCH  19  21
ATOM     20  N   UNL     1      -1.674  11.482  21.261  0.00  0.00    +0.000 N 
ATOM     21  C   UNL     1      -0.475  11.488  21.945  0.00  0.00    +0.000 C 
ATOM     22  O   UNL     1       0.356  12.387  21.840  0.00  0.00    +0.000 OA
ATOM     23  H   UNL     1      -2.273  10.667  21.372  0.00  0.00    +0.000 HD
BRANCH  20  25
ATOM     24  C   UNL     1      -2.807  13.685  21.304  0.00  0.00    +0.000 C 
ATOM     25  C   UNL     1      -2.106  12.615  20.457  0.00  0.00    +0.000 C 
BRANCH  25  26
ATOM     26  C   UNL     1      -3.037  12.236  19.316  0.00  0.00    +0.000 A 
ATOM     27  C   UNL     1      -4.427  12.349  19.514  0.00  0.00    +0.000 A 
ATOM     28  C   UNL     1      -5.330  11.857  18.570  0.00  0.00    +0.000 A 
ATOM     29  C   UNL     1      -4.859  11.253  17.407  0.00  0.00    +0.000 A 
ATOM     30  C   UNL     1      -3.486  11.157  17.188  0.00  0.00    +0.000 A 
ATOM     31 BR   UNL     1      -2.848  10.327  15.613  0.00  0.00    +0.000 Br
ATOM     32  C   UNL     1      -2.577  11.638  18.132  0.00  0.00    +0.000 A 
ENDBRANCH  25  26
ENDBRANCH  20  25
ENDBRANCH  19  21
ENDBRANCH   1  19
TORSDOF 6
ENDMDL
MODEL 8
REMARK VINA RESULT:      -8.1      2.783      3.566
REMARK  Name = 
REMARK  7 active torsions:
REMARK  status: ('A' for Active; 'I' for Inactive)
REMARK    1  A    between atoms: C_1  and  C_2
REMARK    2  A    between atoms: C_2  and  N_3
REMARK    3  A    between atoms: C_2  and  C_20
REMARK    4  A    between atoms: C_4  and  C_6
REMARK    5  A    between atoms: C_6  and  N_7
REMARK    6  A    between atoms: N_10  and  C_11
REMARK    7  A    between atoms: C_14  and  C_15
REMARK                            x       y       z     vdW  Elec       q    Type
REMARK                         _______ _______ _______ _____ _____    ______ ____
ROOT
ATOM      1  N   UNL     1       8.791   9.372  18.810  0.00  0.00    +0.000 N 
ATOM      2  C   UNL     1       9.058  10.717  18.922  0.00  0.00    +0.000 C 
ATOM      3  O   UNL     1       8.768  11.484  18.009  0.00  0.00    +0.000 OA
ATOM      4  N   UNL     1       9.725  11.044  20.077  0.00  0.00    +0.000 N 
ATOM      5  H   UNL     1       8.734   8.819  19.650  0.00  0.00    +0.000 HD
ATOM      6  H   UNL     1      10.194  10.284  20.553  0.00  0.00    +0.000 HD
ENDROOT
BRANCH   4   7
ATOM      7  C   UNL     1      10.070  12.361  20.456  0.00  0.00    +0.000 A 
ATOM      8  C   UNL     1      11.083  13.087  19.820  0.00  0.00    +0.000 A 
ATOM      9  C   UNL     1      11.403  14.386  20.228  0.00  0.00    +0.000 A 
ATOM     10  C   UNL     1      10.705  14.986  21.274  0.00  0.00    +0.000 A 
ATOM     11  C   UNL     1       9.688  14.267  21.917  0.00  0.00    +0.000 A 
ATOM     12  C   UNL     1       9.366  12.969  21.500  0.00  0.00    +0.000 A 
BRANCH  10  13
ATOM     13  C   UNL     1      11.040  16.381  21.685  0.00  0.00    +0.000 C 
ATOM     14  N   UNL     1      11.227  17.341  20.832  0.00  0.00    +0.000 NA
ATOM     15  N   UNL     1      11.167  16.712  22.999  0.00  0.00    +0.000 N 
ATOM     16  H   UNL     1      11.172  17.002  19.869  0.00  0.00    +0.000 HD
ATOM     17  H   UNL     1      10.533  16.259  23.646  0.00  0.00    +0.000 HD
ATOM     18  H   UNL     1      11.191  17.721  23.118  0.00  0.00    +0.000 HD
ENDBRANCH  10  13
ENDBRANCH   4   7
BRANCH   1  19
ATOM     19  C   UNL     1       8.115   8.877  17.618  0.00  0.00    +0.000 C 
BRANCH  19  21
ATOM     20  N   UNL     1       6.777   6.952  16.860  0.00  0.00    +0.000 N 
ATOM     21  C   UNL     1       7.679   7.416  17.796  0.00  0.00    +0.000 C 
ATOM     22  O   UNL     1       8.095   6.731  18.728  0.00  0.00    +0.000 OA
ATOM     23  H   UNL     1       6.452   7.612  16.156  0.00  0.00    +0.000 HD
BRANCH  20  25
ATOM     24  C   UNL     1       6.593   4.916  15.461  0.00  0.00    +0.000 C 
ATOM     25  C   UNL     1       6.344   5.564  16.829  0.00  0.00    +0.000 C 
BRANCH  25  26
ATOM     26  C   UNL     1       4.878   5.371  17.179  0.00  0.00    +0.000 A 
ATOM     27  C   UNL     1       4.115   6.501  17.536  0.00  0.00    +0.000 A 
ATOM     28  C   UNL     1       2.818   6.365  18.031  0.00  0.00    +0.000 A 
ATOM     29  C   UNL     1       2.254   5.098  18.168  0.00  0.00    +0.000 A 
ATOM     30  C   UNL     1       2.989   3.975  17.795  0.00  0.00    +0.000 A 
ATOM     31 BR   UNL     1       2.228   2.255  17.992  0.00  0.00    +0.000 Br
ATOM     32  C   UNL     1       4.292   4.101  17.309  0.00  0.00    +0.000 A 
ENDBRANCH  25  26
ENDBRANCH  20  25
ENDBRANCH  19  21
ENDBRANCH   1  19
TORSDOF 6
ENDMDL
MODEL 9
REMARK VINA RESULT:      -8.1      1.725      2.524
REMARK  Name = 
REMARK  7 active torsions:
REMARK  status: ('A' for Active; 'I' for Inactive)
REMARK    1  A    between atoms: C_1  and  C_2
REMARK    2  A    between atoms: C_2  and  N_3
REMARK    3  A    between atoms: C_2  and  C_20
REMARK    4  A    between atoms: C_4  and  C_6
REMARK    5  A    between atoms: C_6  and  N_7
REMARK    6  A    between atoms: N_10  and  C_11
REMARK    7  A    between atoms: C_14  and  C_15
REMARK                            x       y       z     vdW  Elec       q    Type
REMARK                         _______ _______ _______ _____ _____    ______ ____
ROOT
ATOM      1  N   UNL     1       8.069   8.580  17.997  0.00  0.00    +0.000 N 
ATOM      2  C   UNL     1       8.671   9.769  18.340  0.00  0.00    +0.000 C 
ATOM      3  O   UNL     1       9.404   9.829  19.323  0.00  0.00    +0.000 OA
ATOM      4  N   UNL     1       8.296  10.818  17.540  0.00  0.00    +0.000 N 
ATOM      5  H   UNL     1       7.745   8.457  17.051  0.00  0.00    +0.000 HD
ATOM      6  H   UNL     1       7.443  10.694  17.009  0.00  0.00    +0.000 HD
ENDROOT
BRANCH   4   7
ATOM      7  C   UNL     1       8.809  12.131  17.648  0.00  0.00    +0.000 A 
ATOM      8  C   UNL     1      10.179  12.411  17.592  0.00  0.00    +0.000 A 
ATOM      9  C   UNL     1      10.652  13.722  17.711  0.00  0.00    +0.000 A 
ATOM     10  C   UNL     1       9.758  14.778  17.877  0.00  0.00    +0.000 A 
ATOM     11  C   UNL     1       8.385  14.508  17.935  0.00  0.00    +0.000 A 
ATOM     12  C   UNL     1       7.915  13.194  17.807  0.00  0.00    +0.000 A 
BRANCH  10  13
ATOM     13  C   UNL     1      10.273  16.175  17.980  0.00  0.00    +0.000 C 
ATOM     14  N   UNL     1      10.477  16.929  16.943  0.00  0.00    +0.000 NA
ATOM     15  N   UNL     1      10.558  16.729  19.191  0.00  0.00    +0.000 N 
ATOM     16  H   UNL     1      10.296  16.425  16.072  0.00  0.00    +0.000 HD
ATOM     17  H   UNL     1       9.944  16.484  19.958  0.00  0.00    +0.000 HD
ATOM     18  H   UNL     1      10.697  17.732  19.106  0.00  0.00    +0.000 HD
ENDBRANCH  10  13
ENDBRANCH   4   7
BRANCH   1  19
ATOM     19  C   UNL     1       8.351   7.385  18.783  0.00  0.00    +0.000 C 
BRANCH  19  21
ATOM     20  N   UNL     1       6.745   6.413  17.188  0.00  0.00    +0.000 N 
ATOM     21  C   UNL     1       7.445   6.220  18.362  0.00  0.00    +0.000 C 
ATOM     22  O   UNL     1       7.341   5.206  19.049  0.00  0.00    +0.000 OA
ATOM     23  H   UNL     1       6.858   7.308  16.717  0.00  0.00    +0.000 HD
BRANCH  20  25
ATOM     24  C   UNL     1       5.845   5.488  15.073  0.00  0.00    +0.000 C 
ATOM     25  C   UNL     1       5.924   5.366  16.601  0.00  0.00    +0.000 C 
BRANCH  25  26
ATOM     26  C   UNL     1       4.503   5.326  17.142  0.00  0.00    +0.000 A 
ATOM     27  C   UNL     1       3.897   6.535  17.536  0.00  0.00    +0.000 A 
ATOM     28  C   UNL     1       2.668   6.541  18.196  0.00  0.00    +0.000 A 
ATOM     29  C   UNL     1       2.016   5.339  18.464  0.00  0.00    +0.000 A 
ATOM     30  C   UNL     1       2.593   4.139  18.057  0.00  0.00    +0.000 A 
ATOM     31 BR   UNL     1       1.713   2.507  18.431  0.00  0.00    +0.000 Br
ATOM     32  C   UNL     1       3.828   4.123  17.405  0.00  0.00    +0.000 A 
ENDBRANCH  25  26
ENDBRANCH  20  25
ENDBRANCH  19  21
ENDBRANCH   1  19
TORSDOF 6
ENDMDL
