MODEL 1
REMARK VINA RESULT:      -7.8      0.000      0.000
REMARK  Name = 
REMARK  4 active torsions:
REMARK  status: ('A' for Active; 'I' for Inactive)
REMARK    1  A    between atoms: C_1  and  O_2
REMARK    2  A    between atoms: O_2  and  C_3
REMARK    3  A    between atoms: C_7  and  C_8
REMARK    4  A    between atoms: C_11  and  C_12
REMARK                            x       y       z     vdW  Elec       q    Type
REMARK                         _______ _______ _______ _____ _____    ______ ____
ROOT
ATOM      1  C   UNL     1       2.347   6.540  19.724  0.00  0.00    +0.000 A 
ATOM      2  N   UNL     1       3.310   6.165  18.922  0.00  0.00    +0.000 NA
ATOM      3  N   UNL     1       3.505   4.841  19.164  0.00  0.00    +0.000 N 
ATOM      4  C   UNL     1       4.377   3.903  18.671  0.00  0.00    +0.000 A 
ATOM      5  N   UNL     1       4.079   2.741  19.251  0.00  0.00    +0.000 NA
ATOM      6  N   UNL     1       3.036   2.939  20.158  0.00  0.00    +0.000 NA
ATOM      7  C   UNL     1       2.735   4.200  20.068  0.00  0.00    +0.000 A 
ATOM      8  S   UNL     1       1.622   5.289  20.772  0.00  0.00    +0.000 S 
ENDROOT
BRANCH   1  13
ATOM      9  C   UNL     1       0.926   9.725  21.124  0.00  0.00    +0.000 A 
ATOM     10  C   UNL     1       0.783  10.496  19.968  0.00  0.00    +0.000 A 
ATOM     11  C   UNL     1       1.184   9.999  18.726  0.00  0.00    +0.000 A 
ATOM     12  C   UNL     1       1.731   8.720  18.627  0.00  0.00    +0.000 A 
ATOM     13  C   UNL     1       1.871   7.937  19.777  0.00  0.00    +0.000 A 
ATOM     14  C   UNL     1       1.470   8.446  21.024  0.00  0.00    +0.000 A 
BRANCH   9  16
ATOM     15  C   UNL     1      -0.278   9.529  23.169  0.00  0.00    +0.000 C 
ATOM     16  O   UNL     1       0.486  10.326  22.270  0.00  0.00    +0.000 OA
ENDBRANCH   9  16
ENDBRANCH   1  13
BRANCH   4  17
ATOM     17  C   UNL     1       5.409   4.153  17.667  0.00  0.00    +0.000 A 
ATOM     18  C   UNL     1       6.670   4.652  18.008  0.00  0.00    +0.000 A 
ATOM     19  C   UNL     1       7.587   4.891  16.997  0.00  0.00    +0.000 A 
ATOM     20  N   UNL     1       7.336   4.669  15.693  0.00  0.00    +0.000 NA
ATOM     21  C   UNL     1       6.121   4.169  15.384  0.00  0.00    +0.000 A 
ATOM     22  C   UNL     1       5.140   3.893  16.321  0.00  0.00    +0.000 A 
ENDBRANCH   4  17
TORSDOF 3
ENDMDL
MODEL 2
REMARK VINA RESULT:      -7.8      0.616      1.151
REMARK  Name = 
REMARK  4 active torsions:
REMARK  status: ('A' for Active; 'I' for Inactive)
REMARK    1  A    between atoms: C_1  and  O_2
REMARK    2  A    between atoms: O_2  and  C_3
REMARK    3  A    between atoms: C_7  and  C_8
REMARK    4  A    between atoms: C_11  and  C_12
REMARK                            x       y       z     vdW  Elec       q    Type
REMARK                         _______ _______ _______ _____ _____    ______ ____
ROOT
ATOM      1  C   UNL     1       2.329   6.526  19.764  0.00  0.00    +0.000 A 
ATOM      2  N   UNL     1       3.261   6.309  18.874  0.00  0.00    +0.000 NA
ATOM      3  N   UNL     1       3.517   4.973  18.917  0.00  0.00    +0.000 N 
ATOM      4  C   UNL     1       4.397   4.152  18.257  0.00  0.00    +0.000 A 
ATOM      5  N   UNL     1       4.173   2.909  18.681  0.00  0.00    +0.000 NA
ATOM      6  N   UNL     1       3.172   2.933  19.655  0.00  0.00    +0.000 NA
ATOM      7  C   UNL     1       2.820   4.180  19.757  0.00  0.00    +0.000 A 
ATOM      8  S   UNL     1       1.706   5.111  20.658  0.00  0.00    +0.000 S 
ENDROOT
BRANCH   1  13
ATOM      9  C   UNL     1       0.865   9.420  21.663  0.00  0.00    +0.000 A 
ATOM     10  C   UNL     1       0.635  10.337  20.635  0.00  0.00    +0.000 A 
ATOM     11  C   UNL     1       0.990  10.037  19.319  0.00  0.00    +0.000 A 
ATOM     12  C   UNL     1       1.578   8.809  19.015  0.00  0.00    +0.000 A 
ATOM     13  C   UNL     1       1.805   7.880  20.036  0.00  0.00    +0.000 A 
ATOM     14  C   UNL     1       1.450   8.192  21.359  0.00  0.00    +0.000 A 
BRANCH   9  16
ATOM     15  C   UNL     1      -0.816  10.457  22.994  0.00  0.00    +0.000 C 
ATOM     16  O   UNL     1       0.462   9.836  22.901  0.00  0.00    +0.000 OA
ENDBRANCH   9  16
ENDBRANCH   1  13
BRANCH   4  17
ATOM     17  C   UNL     1       5.364   4.584  17.251  0.00  0.00    +0.000 A 
ATOM     18  C   UNL     1       5.331   4.105  15.936  0.00  0.00    +0.000 A 
ATOM     19  C   UNL     1       6.299   4.539  15.046  0.00  0.00    +0.000 A 
ATOM     20  N   UNL     1       7.279   5.403  15.369  0.00  0.00    +0.000 NA
ATOM     21  C   UNL     1       7.284   5.871  16.635  0.00  0.00    +0.000 A 
ATOM     22  C   UNL     1       6.359   5.501  17.596  0.00  0.00    +0.000 A 
ENDBRANCH   4  17
TORSDOF 3
ENDMDL
MODEL 3
REMARK VINA RESULT:      -7.7      4.779      7.842
REMARK  Name = 
REMARK  4 active torsions:
REMARK  status: ('A' for Active; 'I' for Inactive)
REMARK    1  A    between atoms: C_1  and  O_2
REMARK    2  A    between atoms: O_2  and  C_3
REMARK    3  A    between atoms: C_7  and  C_8
REMARK    4  A    between atoms: C_11  and  C_12
REMARK                            x       y       z     vdW  Elec       q    Type
REMARK                         _______ _______ _______ _____ _____    ______ ____
ROOT
ATOM      1  C   UNL     1       6.284   4.610  15.951  0.00  0.00    +0.000 A 
ATOM      2  N   UNL     1       5.187   4.202  16.535  0.00  0.00    +0.000 NA
ATOM      3  N   UNL     1       5.368   4.419  17.865  0.00  0.00    +0.000 N 
ATOM      4  C   UNL     1       4.605   4.178  18.980  0.00  0.00    +0.000 A 
ATOM      5  N   UNL     1       5.281   4.640  20.031  0.00  0.00    +0.000 NA
ATOM      6  N   UNL     1       6.509   5.142  19.598  0.00  0.00    +0.000 NA
ATOM      7  C   UNL     1       6.510   4.986  18.307  0.00  0.00    +0.000 A 
ATOM      8  S   UNL     1       7.556   5.304  16.995  0.00  0.00    +0.000 S 
ENDROOT
BRANCH   1  13
ATOM      9  C   UNL     1       5.846   3.408  12.417  0.00  0.00    +0.000 A 
ATOM     10  C   UNL     1       6.881   4.082  11.766  0.00  0.00    +0.000 A 
ATOM     11  C   UNL     1       7.707   4.965  12.463  0.00  0.00    +0.000 A 
ATOM     12  C   UNL     1       7.509   5.180  13.827  0.00  0.00    +0.000 A 
ATOM     13  C   UNL     1       6.480   4.504  14.491  0.00  0.00    +0.000 A 
ATOM     14  C   UNL     1       5.649   3.621  13.780  0.00  0.00    +0.000 A 
BRANCH   9  16
ATOM     15  C   UNL     1       3.914   3.082  11.063  0.00  0.00    +0.000 C 
ATOM     16  O   UNL     1       5.119   2.568  11.621  0.00  0.00    +0.000 OA
ENDBRANCH   9  16
ENDBRANCH   1  13
BRANCH   4  17
ATOM     17  C   UNL     1       3.280   3.561  18.980  0.00  0.00    +0.000 A 
ATOM     18  C   UNL     1       3.039   2.322  18.377  0.00  0.00    +0.000 A 
ATOM     19  C   UNL     1       1.750   1.814  18.392  0.00  0.00    +0.000 A 
ATOM     20  N   UNL     1       0.705   2.445  18.959  0.00  0.00    +0.000 NA
ATOM     21  C   UNL     1       0.959   3.630  19.554  0.00  0.00    +0.000 A 
ATOM     22  C   UNL     1       2.212   4.218  19.595  0.00  0.00    +0.000 A 
ENDBRANCH   4  17
TORSDOF 3
ENDMDL
MODEL 4
REMARK VINA RESULT:      -7.4      1.128      1.876
REMARK  Name = 
REMARK  4 active torsions:
REMARK  status: ('A' for Active; 'I' for Inactive)
REMARK    1  A    between atoms: C_1  and  O_2
REMARK    2  A    between atoms: O_2  and  C_3
REMARK    3  A    between atoms: C_7  and  C_8
REMARK    4  A    between atoms: C_11  and  C_12
REMARK                            x       y       z     vdW  Elec       q    Type
REMARK                         _______ _______ _______ _____ _____    ______ ____
ROOT
ATOM      1  C   UNL     1       2.325   6.359  19.882  0.00  0.00    +0.000 A 
ATOM      2  N   UNL     1       3.283   6.176  19.011  0.00  0.00    +0.000 NA
ATOM      3  N   UNL     1       3.642   4.869  19.119  0.00  0.00    +0.000 N 
ATOM      4  C   UNL     1       4.593   4.090  18.506  0.00  0.00    +0.000 A 
ATOM      5  N   UNL     1       4.461   2.854  18.985  0.00  0.00    +0.000 NA
ATOM      6  N   UNL     1       3.448   2.843  19.946  0.00  0.00    +0.000 NA
ATOM      7  C   UNL     1       2.998   4.062  19.987  0.00  0.00    +0.000 A 
ATOM      8  S   UNL     1       1.802   4.941  20.833  0.00  0.00    +0.000 S 
ENDROOT
BRANCH   1  13
ATOM      9  C   UNL     1       1.270   9.901  19.199  0.00  0.00    +0.000 A 
ATOM     10  C   UNL     1       0.701  10.261  20.423  0.00  0.00    +0.000 A 
ATOM     11  C   UNL     1       0.620   9.341  21.470  0.00  0.00    +0.000 A 
ATOM     12  C   UNL     1       1.114   8.047  21.304  0.00  0.00    +0.000 A 
ATOM     13  C   UNL     1       1.693   7.679  20.085  0.00  0.00    +0.000 A 
ATOM     14  C   UNL     1       1.765   8.609  19.035  0.00  0.00    +0.000 A 
BRANCH   9  16
ATOM     15  C   UNL     1       1.798  12.164  18.677  0.00  0.00    +0.000 C 
ATOM     16  O   UNL     1       1.294  10.898  18.264  0.00  0.00    +0.000 OA
ENDBRANCH   9  16
ENDBRANCH   1  13
BRANCH   4  17
ATOM     17  C   UNL     1       5.537   4.552  17.491  0.00  0.00    +0.000 A 
ATOM     18  C   UNL     1       6.472   5.560  17.751  0.00  0.00    +0.000 A 
ATOM     19  C   UNL     1       7.315   5.964  16.730  0.00  0.00    +0.000 A 
ATOM     20  N   UNL     1       7.293   5.441  15.490  0.00  0.00    +0.000 NA
ATOM     21  C   UNL     1       6.398   4.456  15.262  0.00  0.00    +0.000 A 
ATOM     22  C   UNL     1       5.516   3.980  16.217  0.00  0.00    +0.000 A 
ENDBRANCH   4  17
TORSDOF 3
ENDMDL
MODEL 5
REMARK VINA RESULT:      -7.4      4.261      5.582
REMARK  Name = 
REMARK  4 active torsions:
REMARK  status: ('A' for Active; 'I' for Inactive)
REMARK    1  A    between atoms: C_1  and  O_2
REMARK    2  A    between atoms: O_2  and  C_3
REMARK    3  A    between atoms: C_7  and  C_8
REMARK    4  A    between atoms: C_11  and  C_12
REMARK                            x       y       z     vdW  Elec       q    Type
REMARK                         _______ _______ _______ _____ _____    ______ ____
ROOT
ATOM      1  C   UNL     1       4.502   4.657  17.214  0.00  0.00    +0.000 A 
ATOM      2  N   UNL     1       4.698   4.175  16.014  0.00  0.00    +0.000 NA
ATOM      3  N   UNL     1       5.846   4.749  15.563  0.00  0.00    +0.000 N 
ATOM      4  C   UNL     1       6.548   4.674  14.386  0.00  0.00    +0.000 A 
ATOM      5  N   UNL     1       7.634   5.432  14.523  0.00  0.00    +0.000 NA
ATOM      6  N   UNL     1       7.612   6.038  15.780  0.00  0.00    +0.000 NA
ATOM      7  C   UNL     1       6.530   5.600  16.355  0.00  0.00    +0.000 A 
ATOM      8  S   UNL     1       5.724   5.794  17.848  0.00  0.00    +0.000 S 
ENDROOT
BRANCH   1  13
ATOM      9  C   UNL     1       2.448   3.681  20.206  0.00  0.00    +0.000 A 
ATOM     10  C   UNL     1       1.210   3.416  19.617  0.00  0.00    +0.000 A 
ATOM     11  C   UNL     1       1.021   3.590  18.245  0.00  0.00    +0.000 A 
ATOM     12  C   UNL     1       2.075   4.028  17.443  0.00  0.00    +0.000 A 
ATOM     13  C   UNL     1       3.321   4.289  18.022  0.00  0.00    +0.000 A 
ATOM     14  C   UNL     1       3.502   4.117  19.405  0.00  0.00    +0.000 A 
BRANCH   9  16
ATOM     15  C   UNL     1       1.616   2.480  22.086  0.00  0.00    +0.000 C 
ATOM     16  O   UNL     1       2.499   3.462  21.554  0.00  0.00    +0.000 OA
ENDBRANCH   9  16
ENDBRANCH   1  13
BRANCH   4  17
ATOM     17  C   UNL     1       6.169   3.870  13.226  0.00  0.00    +0.000 A 
ATOM     18  C   UNL     1       4.844   3.783  12.784  0.00  0.00    +0.000 A 
ATOM     19  C   UNL     1       4.557   2.978  11.695  0.00  0.00    +0.000 A 
ATOM     20  N   UNL     1       5.484   2.267  11.025  0.00  0.00    +0.000 NA
ATOM     21  C   UNL     1       6.760   2.378  11.452  0.00  0.00    +0.000 A 
ATOM     22  C   UNL     1       7.147   3.159  12.528  0.00  0.00    +0.000 A 
ENDBRANCH   4  17
TORSDOF 3
ENDMDL
MODEL 6
REMARK VINA RESULT:      -7.4      1.139      2.086
REMARK  Name = 
REMARK  4 active torsions:
REMARK  status: ('A' for Active; 'I' for Inactive)
REMARK    1  A    between atoms: C_1  and  O_2
REMARK    2  A    between atoms: O_2  and  C_3
REMARK    3  A    between atoms: C_7  and  C_8
REMARK    4  A    between atoms: C_11  and  C_12
REMARK                            x       y       z     vdW  Elec       q    Type
REMARK                         _______ _______ _______ _____ _____    ______ ____
ROOT
ATOM      1  C   UNL     1       2.309   6.404  19.896  0.00  0.00    +0.000 A 
ATOM      2  N   UNL     1       3.263   6.230  19.020  0.00  0.00    +0.000 NA
ATOM      3  N   UNL     1       3.633   4.925  19.123  0.00  0.00    +0.000 N 
ATOM      4  C   UNL     1       4.586   4.155  18.503  0.00  0.00    +0.000 A 
ATOM      5  N   UNL     1       4.466   2.917  18.981  0.00  0.00    +0.000 NA
ATOM      6  N   UNL     1       3.460   2.896  19.948  0.00  0.00    +0.000 NA
ATOM      7  C   UNL     1       3.000   4.112  19.994  0.00  0.00    +0.000 A 
ATOM      8  S   UNL     1       1.803   4.980  20.849  0.00  0.00    +0.000 S 
ENDROOT
BRANCH   1  13
ATOM      9  C   UNL     1       1.253   9.951  19.243  0.00  0.00    +0.000 A 
ATOM     10  C   UNL     1       0.659  10.292  20.461  0.00  0.00    +0.000 A 
ATOM     11  C   UNL     1       0.562   9.357  21.493  0.00  0.00    +0.000 A 
ATOM     12  C   UNL     1       1.064   8.067  21.319  0.00  0.00    +0.000 A 
ATOM     13  C   UNL     1       1.668   7.718  20.106  0.00  0.00    +0.000 A 
ATOM     14  C   UNL     1       1.757   8.664  19.070  0.00  0.00    +0.000 A 
BRANCH   9  16
ATOM     15  C   UNL     1       1.459  12.286  18.818  0.00  0.00    +0.000 C 
ATOM     16  O   UNL     1       1.292  10.962  18.323  0.00  0.00    +0.000 OA
ENDBRANCH   9  16
ENDBRANCH   1  13
BRANCH   4  17
ATOM     17  C   UNL     1       5.520   4.625  17.483  0.00  0.00    +0.000 A 
ATOM     18  C   UNL     1       5.573   4.054  16.207  0.00  0.00    +0.000 A 
ATOM     19  C   UNL     1       6.505   4.534  15.302  0.00  0.00    +0.000 A 
ATOM     20  N   UNL     1       7.371   5.528  15.576  0.00  0.00    +0.000 NA
ATOM     21  C   UNL     1       7.291   6.081  16.805  0.00  0.00    +0.000 A 
ATOM     22  C   UNL     1       6.393   5.674  17.776  0.00  0.00    +0.000 A 
ENDBRANCH   4  17
TORSDOF 3
ENDMDL
MODEL 7
REMARK VINA RESULT:      -7.4      4.428      5.701
REMARK  Name = 
REMARK  4 active torsions:
REMARK  status: ('A' for Active; 'I' for Inactive)
REMARK    1  A    between atoms: C_1  and  O_2
REMARK    2  A    between atoms: O_2  and  C_3
REMARK    3  A    between atoms: C_7  and  C_8
REMARK    4  A    between atoms: C_11  and  C_12
REMARK                            x       y       z     vdW  Elec       q    Type
REMARK                         _______ _______ _______ _____ _____    ______ ____
ROOT
ATOM      1  C   UNL     1       4.542   4.506  17.162  0.00  0.00    +0.000 A 
ATOM      2  N   UNL     1       4.702   4.030  15.955  0.00  0.00    +0.000 NA
ATOM      3  N   UNL     1       5.831   4.614  15.469  0.00  0.00    +0.000 N 
ATOM      4  C   UNL     1       6.495   4.547  14.269  0.00  0.00    +0.000 A 
ATOM      5  N   UNL     1       7.579   5.314  14.374  0.00  0.00    +0.000 NA
ATOM      6  N   UNL     1       7.593   5.915  15.633  0.00  0.00    +0.000 NA
ATOM      7  C   UNL     1       6.534   5.468  16.241  0.00  0.00    +0.000 A 
ATOM      8  S   UNL     1       5.775   5.650  17.760  0.00  0.00    +0.000 S 
ENDROOT
BRANCH   1  13
ATOM      9  C   UNL     1       2.619   3.251  20.137  0.00  0.00    +0.000 A 
ATOM     10  C   UNL     1       1.318   3.214  19.630  0.00  0.00    +0.000 A 
ATOM     11  C   UNL     1       1.049   3.634  18.326  0.00  0.00    +0.000 A 
ATOM     12  C   UNL     1       2.083   4.094  17.511  0.00  0.00    +0.000 A 
ATOM     13  C   UNL     1       3.391   4.128  18.007  0.00  0.00    +0.000 A 
ATOM     14  C   UNL     1       3.653   3.707  19.322  0.00  0.00    +0.000 A 
BRANCH   9  16
ATOM     15  C   UNL     1       1.547   2.463  22.112  0.00  0.00    +0.000 C 
ATOM     16  O   UNL     1       2.745   2.803  21.422  0.00  0.00    +0.000 OA
ENDBRANCH   9  16
ENDBRANCH   1  13
BRANCH   4  17
ATOM     17  C   UNL     1       6.084   3.744  13.119  0.00  0.00    +0.000 A 
ATOM     18  C   UNL     1       6.976   2.901  12.447  0.00  0.00    +0.000 A 
ATOM     19  C   UNL     1       6.521   2.192  11.348  0.00  0.00    +0.000 A 
ATOM     20  N   UNL     1       5.260   2.264  10.882  0.00  0.00    +0.000 NA
ATOM     21  C   UNL     1       4.408   3.067  11.554  0.00  0.00    +0.000 A 
ATOM     22  C   UNL     1       4.766   3.811  12.665  0.00  0.00    +0.000 A 
ENDBRANCH   4  17
TORSDOF 3
ENDMDL
MODEL 8
REMARK VINA RESULT:      -7.2      3.045      5.457
REMARK  Name = 
REMARK  4 active torsions:
REMARK  status: ('A' for Active; 'I' for Inactive)
REMARK    1  A    between atoms: C_1  and  O_2
REMARK    2  A    between atoms: O_2  and  C_3
REMARK    3  A    between atoms: C_7  and  C_8
REMARK    4  A    between atoms: C_11  and  C_12
REMARK                            x       y       z     vdW  Elec       q    Type
REMARK                         _______ _______ _______ _____ _____    ______ ____
ROOT
ATOM      1  C   UNL     1       4.508   4.376  17.214  0.00  0.00    +0.000 A 
ATOM      2  N   UNL     1       4.689   3.944  15.994  0.00  0.00    +0.000 NA
ATOM      3  N   UNL     1       5.802   4.576  15.533  0.00  0.00    +0.000 N 
ATOM      4  C   UNL     1       6.474   4.568  14.337  0.00  0.00    +0.000 A 
ATOM      5  N   UNL     1       7.534   5.363  14.472  0.00  0.00    +0.000 NA
ATOM      6  N   UNL     1       7.523   5.924  15.750  0.00  0.00    +0.000 NA
ATOM      7  C   UNL     1       6.475   5.426  16.337  0.00  0.00    +0.000 A 
ATOM      8  S   UNL     1       5.703   5.537  17.856  0.00  0.00    +0.000 S 
ENDROOT
BRANCH   1  13
ATOM      9  C   UNL     1       1.780   4.487  19.797  0.00  0.00    +0.000 A 
ATOM     10  C   UNL     1       1.326   3.166  19.777  0.00  0.00    +0.000 A 
ATOM     11  C   UNL     1       1.877   2.236  18.894  0.00  0.00    +0.000 A 
ATOM     12  C   UNL     1       2.896   2.618  18.021  0.00  0.00    +0.000 A 
ATOM     13  C   UNL     1       3.364   3.936  18.039  0.00  0.00    +0.000 A 
ATOM     14  C   UNL     1       2.800   4.868  18.928  0.00  0.00    +0.000 A 
BRANCH   9  16
ATOM     15  C   UNL     1       1.590   6.647  20.782  0.00  0.00    +0.000 C 
ATOM     16  O   UNL     1       1.162   5.290  20.715  0.00  0.00    +0.000 OA
ENDBRANCH   9  16
ENDBRANCH   1  13
BRANCH   4  17
ATOM     17  C   UNL     1       6.094   3.789  13.160  0.00  0.00    +0.000 A 
ATOM     18  C   UNL     1       4.781   3.767  12.678  0.00  0.00    +0.000 A 
ATOM     19  C   UNL     1       4.491   2.983  11.574  0.00  0.00    +0.000 A 
ATOM     20  N   UNL     1       5.404   2.234  10.927  0.00  0.00    +0.000 NA
ATOM     21  C   UNL     1       6.670   2.284  11.393  0.00  0.00    +0.000 A 
ATOM     22  C   UNL     1       7.060   3.039  12.486  0.00  0.00    +0.000 A 
ENDBRANCH   4  17
TORSDOF 3
ENDMDL
MODEL 9
REMARK VINA RESULT:      -7.2      3.031      5.480
REMARK  Name = 
REMARK  4 active torsions:
REMARK  status: ('A' for Active; 'I' for Inactive)
REMARK    1  A    between atoms: C_1  and  O_2
REMARK    2  A    between atoms: O_2  and  C_3
REMARK    3  A    between atoms: C_7  and  C_8
REMARK    4  A    between atoms: C_11  and  C_12
REMARK                            x       y       z     vdW  Elec       q    Type
REMARK                         _______ _______ _______ _____ _____    ______ ____
ROOT
ATOM      1  C   UNL     1       4.527   4.299  17.166  0.00  0.00    +0.000 A 
ATOM      2  N   UNL     1       4.650   3.861  15.940  0.00  0.00    +0.000 NA
ATOM      3  N   UNL     1       5.769   4.453  15.442  0.00  0.00    +0.000 N 
ATOM      4  C   UNL     1       6.399   4.422  14.223  0.00  0.00    +0.000 A 
ATOM      5  N   UNL     1       7.492   5.177  14.322  0.00  0.00    +0.000 NA
ATOM      6  N   UNL     1       7.545   5.736  15.600  0.00  0.00    +0.000 NA
ATOM      7  C   UNL     1       6.500   5.276  16.222  0.00  0.00    +0.000 A 
ATOM      8  S   UNL     1       5.785   5.414  17.767  0.00  0.00    +0.000 S 
ENDROOT
BRANCH   1  13
ATOM      9  C   UNL     1       1.864   4.524  19.809  0.00  0.00    +0.000 A 
ATOM     10  C   UNL     1       1.390   3.210  19.836  0.00  0.00    +0.000 A 
ATOM     11  C   UNL     1       1.905   2.248  18.966  0.00  0.00    +0.000 A 
ATOM     12  C   UNL     1       2.909   2.589  18.060  0.00  0.00    +0.000 A 
ATOM     13  C   UNL     1       3.397   3.900  18.030  0.00  0.00    +0.000 A 
ATOM     14  C   UNL     1       2.869   4.864  18.905  0.00  0.00    +0.000 A 
BRANCH   9  16
ATOM     15  C   UNL     1       1.674   6.730  20.685  0.00  0.00    +0.000 C 
ATOM     16  O   UNL     1       1.281   5.362  20.718  0.00  0.00    +0.000 OA
ENDBRANCH   9  16
ENDBRANCH   1  13
BRANCH   4  17
ATOM     17  C   UNL     1       5.950   3.660  13.059  0.00  0.00    +0.000 A 
ATOM     18  C   UNL     1       6.781   2.740  12.410  0.00  0.00    +0.000 A 
ATOM     19  C   UNL     1       6.296   2.076  11.296  0.00  0.00    +0.000 A 
ATOM     20  N   UNL     1       5.060   2.261  10.795  0.00  0.00    +0.000 NA
ATOM     21  C   UNL     1       4.265   3.137  11.445  0.00  0.00    +0.000 A 
ATOM     22  C   UNL     1       4.657   3.846  12.568  0.00  0.00    +0.000 A 
ENDBRANCH   4  17
TORSDOF 3
ENDMDL
