MODEL 1
REMARK VINA RESULT:      -6.9      0.000      0.000
REMARK  Name = 
REMARK  6 active torsions:
REMARK  status: ('A' for Active; 'I' for Inactive)
REMARK    1  A    between atoms: C_1  and  C_2
REMARK    2  A    between atoms: C_2  and  O_3
REMARK    3  A    between atoms: O_3  and  C_4
REMARK    4  A    between atoms: C_4  and  C_6
REMARK    5  A    between atoms: C_7  and  N_8
REMARK    6  A    between atoms: C_9  and  C_11
REMARK                            x       y       z     vdW  Elec       q    Type
REMARK                         _______ _______ _______ _____ _____    ______ ____
ROOT
ATOM      1  C   UNL     1       4.634   4.439  18.370  0.00  0.00    +0.000 A 
ATOM      2  C   UNL     1       4.487   3.749  17.168  0.00  0.00    +0.000 A 
ATOM      3  S   UNL     1       2.976   2.989  17.037  0.00  0.00    +0.000 S 
ATOM      4  C   UNL     1       2.484   3.530  18.562  0.00  0.00    +0.000 A 
ATOM      5  C   UNL     1       3.432   4.322  19.180  0.00  0.00    +0.000 A 
ATOM      6  C   UNL     1       3.153   4.936  20.529  0.00  0.00    +0.000 C 
ATOM      7  C   UNL     1       2.013   4.222  21.267  0.00  0.00    +0.000 C 
ATOM      8  C   UNL     1       0.806   3.987  20.354  0.00  0.00    +0.000 C 
ATOM      9  C   UNL     1       1.170   3.115  19.146  0.00  0.00    +0.000 C 
ENDROOT
BRANCH   2  10
ATOM     10  N   UNL     1       5.428   3.644  16.149  0.00  0.00    +0.000 N 
ATOM     11  C   UNL     1       5.680   4.557  15.128  0.00  0.00    +0.000 C 
ATOM     12  O   UNL     1       5.091   5.620  14.936  0.00  0.00    +0.000 OA
ATOM     13  H   UNL     1       5.979   2.781  16.157  0.00  0.00    +0.000 HD
BRANCH  11  14
ATOM     14  C   UNL     1       6.813   4.150  14.188  0.00  0.00    +0.000 C 
ATOM     15 CL   UNL     1       6.140   3.368  12.743  0.00  0.00    +0.000 Cl
ATOM     16 CL   UNL     1       7.771   5.577  13.745  0.00  0.00    +0.000 Cl
ENDBRANCH  11  14
ENDBRANCH   2  10
BRANCH   1  17
ATOM     17  C   UNL     1       5.889   5.105  18.729  0.00  0.00    +0.000 C 
ATOM     18  O   UNL     1       6.567   4.776  19.698  0.00  0.00    +0.000 OA
BRANCH  17  19
ATOM     19  O   UNL     1       6.163   6.177  17.933  0.00  0.00    +0.000 OA
BRANCH  19  21
ATOM     20  C   UNL     1       7.652   8.012  17.558  0.00  0.00    +0.000 C 
ATOM     21  C   UNL     1       7.547   6.510  17.767  0.00  0.00    +0.000 C 
ENDBRANCH  19  21
ENDBRANCH  17  19
ENDBRANCH   1  17
TORSDOF 5
ENDMDL
MODEL 2
REMARK VINA RESULT:      -6.5      0.815      1.105
REMARK  Name = 
REMARK  6 active torsions:
REMARK  status: ('A' for Active; 'I' for Inactive)
REMARK    1  A    between atoms: C_1  and  C_2
REMARK    2  A    between atoms: C_2  and  O_3
REMARK    3  A    between atoms: O_3  and  C_4
REMARK    4  A    between atoms: C_4  and  C_6
REMARK    5  A    between atoms: C_7  and  N_8
REMARK    6  A    between atoms: C_9  and  C_11
REMARK                            x       y       z     vdW  Elec       q    Type
REMARK                         _______ _______ _______ _____ _____    ______ ____
ROOT
ATOM      1  C   UNL     1       4.298   4.856  17.967  0.00  0.00    +0.000 A 
ATOM      2  C   UNL     1       4.575   3.715  17.217  0.00  0.00    +0.000 A 
ATOM      3  S   UNL     1       3.636   2.384  17.690  0.00  0.00    +0.000 S 
ATOM      4  C   UNL     1       2.856   3.266  18.905  0.00  0.00    +0.000 A 
ATOM      5  C   UNL     1       3.261   4.585  18.950  0.00  0.00    +0.000 A 
ATOM      6  C   UNL     1       2.642   5.541  19.939  0.00  0.00    +0.000 C 
ATOM      7  C   UNL     1       1.953   4.810  21.099  0.00  0.00    +0.000 C 
ATOM      8  C   UNL     1       1.069   3.662  20.602  0.00  0.00    +0.000 C 
ATOM      9  C   UNL     1       1.881   2.613  19.833  0.00  0.00    +0.000 C 
ENDROOT
BRANCH   2  10
ATOM     10  N   UNL     1       5.504   3.602  16.188  0.00  0.00    +0.000 N 
ATOM     11  C   UNL     1       5.527   4.300  14.983  0.00  0.00    +0.000 C 
ATOM     12  O   UNL     1       4.706   5.135  14.606  0.00  0.00    +0.000 OA
ATOM     13  H   UNL     1       6.240   2.909  16.345  0.00  0.00    +0.000 HD
BRANCH  11  14
ATOM     14  C   UNL     1       6.715   3.960  14.084  0.00  0.00    +0.000 C 
ATOM     15 CL   UNL     1       6.130   3.283  12.550  0.00  0.00    +0.000 Cl
ATOM     16 CL   UNL     1       7.691   5.415  13.799  0.00  0.00    +0.000 Cl
ENDBRANCH  11  14
ENDBRANCH   2  10
BRANCH   1  17
ATOM     17  C   UNL     1       5.046   6.103  17.781  0.00  0.00    +0.000 C 
ATOM     18  O   UNL     1       4.539   7.125  17.330  0.00  0.00    +0.000 OA
BRANCH  17  19
ATOM     19  O   UNL     1       6.372   5.969  18.070  0.00  0.00    +0.000 OA
BRANCH  19  21
ATOM     20  C   UNL     1       7.952   7.763  17.964  0.00  0.00    +0.000 C 
ATOM     21  C   UNL     1       7.285   6.637  17.190  0.00  0.00    +0.000 C 
ENDBRANCH  19  21
ENDBRANCH  17  19
ENDBRANCH   1  17
TORSDOF 5
ENDMDL
MODEL 3
REMARK VINA RESULT:      -6.4      2.175      3.448
REMARK  Name = 
REMARK  6 active torsions:
REMARK  status: ('A' for Active; 'I' for Inactive)
REMARK    1  A    between atoms: C_1  and  C_2
REMARK    2  A    between atoms: C_2  and  O_3
REMARK    3  A    between atoms: O_3  and  C_4
REMARK    4  A    between atoms: C_4  and  C_6
REMARK    5  A    between atoms: C_7  and  N_8
REMARK    6  A    between atoms: C_9  and  C_11
REMARK                            x       y       z     vdW  Elec       q    Type
REMARK                         _______ _______ _______ _____ _____    ______ ____
ROOT
ATOM      1  C   UNL     1       3.968   4.837  18.331  0.00  0.00    +0.000 A 
ATOM      2  C   UNL     1       4.362   5.477  17.158  0.00  0.00    +0.000 A 
ATOM      3  S   UNL     1       3.760   7.059  17.047  0.00  0.00    +0.000 S 
ATOM      4  C   UNL     1       2.950   6.938  18.528  0.00  0.00    +0.000 A 
ATOM      5  C   UNL     1       3.150   5.720  19.148  0.00  0.00    +0.000 A 
ATOM      6  C   UNL     1       2.544   5.444  20.501  0.00  0.00    +0.000 C 
ATOM      7  C   UNL     1       1.385   6.396  20.823  0.00  0.00    +0.000 C 
ATOM      8  C   UNL     1       1.743   7.852  20.513  0.00  0.00    +0.000 C 
ATOM      9  C   UNL     1       2.083   8.048  19.030  0.00  0.00    +0.000 C 
ENDROOT
BRANCH   2  10
ATOM     10  N   UNL     1       5.152   4.943  16.145  0.00  0.00    +0.000 N 
ATOM     11  C   UNL     1       6.416   5.365  15.741  0.00  0.00    +0.000 C 
ATOM     12  O   UNL     1       7.053   6.311  16.202  0.00  0.00    +0.000 OA
ATOM     13  H   UNL     1       4.732   4.159  15.638  0.00  0.00    +0.000 HD
BRANCH  11  14
ATOM     14  C   UNL     1       7.025   4.532  14.614  0.00  0.00    +0.000 C 
ATOM     15 CL   UNL     1       5.737   3.695  13.725  0.00  0.00    +0.000 Cl
ATOM     16 CL   UNL     1       7.962   5.580  13.529  0.00  0.00    +0.000 Cl
ENDBRANCH  11  14
ENDBRANCH   2  10
BRANCH   1  17
ATOM     17  C   UNL     1       4.309   3.438  18.600  0.00  0.00    +0.000 C 
ATOM     18  O   UNL     1       5.117   3.100  19.460  0.00  0.00    +0.000 OA
BRANCH  17  19
ATOM     19  O   UNL     1       3.711   2.574  17.732  0.00  0.00    +0.000 OA
BRANCH  19  21
ATOM     20  C   UNL     1       1.819   1.997  19.078  0.00  0.00    +0.000 C 
ATOM     21  C   UNL     1       2.278   2.554  17.740  0.00  0.00    +0.000 C 
ENDBRANCH  19  21
ENDBRANCH  17  19
ENDBRANCH   1  17
TORSDOF 5
ENDMDL
MODEL 4
REMARK VINA RESULT:      -6.3      3.763      5.076
REMARK  Name = 
REMARK  6 active torsions:
REMARK  status: ('A' for Active; 'I' for Inactive)
REMARK    1  A    between atoms: C_1  and  C_2
REMARK    2  A    between atoms: C_2  and  O_3
REMARK    3  A    between atoms: O_3  and  C_4
REMARK    4  A    between atoms: C_4  and  C_6
REMARK    5  A    between atoms: C_7  and  N_8
REMARK    6  A    between atoms: C_9  and  C_11
REMARK                            x       y       z     vdW  Elec       q    Type
REMARK                         _______ _______ _______ _____ _____    ______ ____
ROOT
ATOM      1  C   UNL     1       2.332   6.814  19.563  0.00  0.00    +0.000 A 
ATOM      2  C   UNL     1       2.757   7.092  18.265  0.00  0.00    +0.000 A 
ATOM      3  S   UNL     1       2.327   8.654  17.762  0.00  0.00    +0.000 S 
ATOM      4  C   UNL     1       1.554   8.998  19.227  0.00  0.00    +0.000 A 
ATOM      5  C   UNL     1       1.640   7.959  20.133  0.00  0.00    +0.000 A 
ATOM      6  C   UNL     1       1.050   8.099  21.514  0.00  0.00    +0.000 C 
ATOM      7  C   UNL     1       0.011   9.225  21.590  0.00  0.00    +0.000 C 
ATOM      8  C   UNL     1       0.515  10.508  20.922  0.00  0.00    +0.000 C 
ATOM      9  C   UNL     1       0.828  10.289  19.437  0.00  0.00    +0.000 C 
ENDROOT
BRANCH   2  10
ATOM     10  N   UNL     1       3.453   6.237  17.417  0.00  0.00    +0.000 N 
ATOM     11  C   UNL     1       4.783   6.334  17.017  0.00  0.00    +0.000 C 
ATOM     12  O   UNL     1       5.579   7.217  17.332  0.00  0.00    +0.000 OA
ATOM     13  H   UNL     1       2.902   5.461  17.040  0.00  0.00    +0.000 HD
BRANCH  11  14
ATOM     14  C   UNL     1       5.247   5.202  16.102  0.00  0.00    +0.000 C 
ATOM     15 CL   UNL     1       7.021   5.172  16.037  0.00  0.00    +0.000 Cl
ATOM     16 CL   UNL     1       4.612   3.652  16.691  0.00  0.00    +0.000 Cl
ENDBRANCH  11  14
ENDBRANCH   2  10
BRANCH   1  17
ATOM     17  C   UNL     1       2.529   5.497  20.173  0.00  0.00    +0.000 C 
ATOM     18  O   UNL     1       3.601   4.901  20.147  0.00  0.00    +0.000 OA
BRANCH  17  19
ATOM     19  O   UNL     1       1.376   4.974  20.681  0.00  0.00    +0.000 OA
BRANCH  19  21
ATOM     20  C   UNL     1       1.383   2.732  21.515  0.00  0.00    +0.000 C 
ATOM     21  C   UNL     1       1.078   3.620  20.320  0.00  0.00    +0.000 C 
ENDBRANCH  19  21
ENDBRANCH  17  19
ENDBRANCH   1  17
TORSDOF 5
ENDMDL
MODEL 5
REMARK VINA RESULT:      -6.3      2.040      2.397
REMARK  Name = 
REMARK  6 active torsions:
REMARK  status: ('A' for Active; 'I' for Inactive)
REMARK    1  A    between atoms: C_1  and  C_2
REMARK    2  A    between atoms: C_2  and  O_3
REMARK    3  A    between atoms: O_3  and  C_4
REMARK    4  A    between atoms: C_4  and  C_6
REMARK    5  A    between atoms: C_7  and  N_8
REMARK    6  A    between atoms: C_9  and  C_11
REMARK                            x       y       z     vdW  Elec       q    Type
REMARK                         _______ _______ _______ _____ _____    ______ ____
ROOT
ATOM      1  C   UNL     1       3.629   5.004  17.791  0.00  0.00    +0.000 A 
ATOM      2  C   UNL     1       4.015   3.909  17.022  0.00  0.00    +0.000 A 
ATOM      3  S   UNL     1       3.537   2.433  17.708  0.00  0.00    +0.000 S 
ATOM      4  C   UNL     1       2.828   3.193  19.043  0.00  0.00    +0.000 A 
ATOM      5  C   UNL     1       2.906   4.571  18.977  0.00  0.00    +0.000 A 
ATOM      6  C   UNL     1       2.287   5.424  20.056  0.00  0.00    +0.000 C 
ATOM      7  C   UNL     1       2.041   4.636  21.349  0.00  0.00    +0.000 C 
ATOM      8  C   UNL     1       1.376   3.284  21.072  0.00  0.00    +0.000 C 
ATOM      9  C   UNL     1       2.244   2.400  20.169  0.00  0.00    +0.000 C 
ENDROOT
BRANCH   2  10
ATOM     10  N   UNL     1       4.718   3.942  15.822  0.00  0.00    +0.000 N 
ATOM     11  C   UNL     1       6.097   4.029  15.648  0.00  0.00    +0.000 C 
ATOM     12  O   UNL     1       6.943   4.115  16.537  0.00  0.00    +0.000 OA
ATOM     13  H   UNL     1       4.137   3.913  14.980  0.00  0.00    +0.000 HD
BRANCH  11  14
ATOM     14  C   UNL     1       6.548   4.005  14.188  0.00  0.00    +0.000 C 
ATOM     15 CL   UNL     1       5.127   3.968  13.124  0.00  0.00    +0.000 Cl
ATOM     16 CL   UNL     1       7.555   5.426  13.846  0.00  0.00    +0.000 Cl
ENDBRANCH  11  14
ENDBRANCH   2  10
BRANCH   1  17
ATOM     17  C   UNL     1       4.004   6.374  17.428  0.00  0.00    +0.000 C 
ATOM     18  O   UNL     1       5.168   6.763  17.402  0.00  0.00    +0.000 OA
BRANCH  17  19
ATOM     19  O   UNL     1       2.924   7.178  17.220  0.00  0.00    +0.000 OA
BRANCH  19  21
ATOM     20  C   UNL     1       1.519   9.041  17.750  0.00  0.00    +0.000 C 
ATOM     21  C   UNL     1       2.860   8.374  18.007  0.00  0.00    +0.000 C 
ENDBRANCH  19  21
ENDBRANCH  17  19
ENDBRANCH   1  17
TORSDOF 5
ENDMDL
MODEL 6
REMARK VINA RESULT:      -6.2      1.301      1.877
REMARK  Name = 
REMARK  6 active torsions:
REMARK  status: ('A' for Active; 'I' for Inactive)
REMARK    1  A    between atoms: C_1  and  C_2
REMARK    2  A    between atoms: C_2  and  O_3
REMARK    3  A    between atoms: O_3  and  C_4
REMARK    4  A    between atoms: C_4  and  C_6
REMARK    5  A    between atoms: C_7  and  N_8
REMARK    6  A    between atoms: C_9  and  C_11
REMARK                            x       y       z     vdW  Elec       q    Type
REMARK                         _______ _______ _______ _____ _____    ______ ____
ROOT
ATOM      1  C   UNL     1       3.586   5.016  18.038  0.00  0.00    +0.000 A 
ATOM      2  C   UNL     1       3.715   4.150  16.954  0.00  0.00    +0.000 A 
ATOM      3  S   UNL     1       3.012   2.634  17.248  0.00  0.00    +0.000 S 
ATOM      4  C   UNL     1       2.538   3.070  18.813  0.00  0.00    +0.000 A 
ATOM      5  C   UNL     1       2.866   4.374  19.126  0.00  0.00    +0.000 A 
ATOM      6  C   UNL     1       2.482   4.959  20.463  0.00  0.00    +0.000 C 
ATOM      7  C   UNL     1       2.171   3.874  21.502  0.00  0.00    +0.000 C 
ATOM      8  C   UNL     1       1.251   2.790  20.933  0.00  0.00    +0.000 C 
ATOM      9  C   UNL     1       1.884   2.084  19.728  0.00  0.00    +0.000 C 
ENDROOT
BRANCH   2  10
ATOM     10  N   UNL     1       4.340   4.422  15.742  0.00  0.00    +0.000 N 
ATOM     11  C   UNL     1       5.665   4.169  15.393  0.00  0.00    +0.000 C 
ATOM     12  O   UNL     1       6.529   3.674  16.114  0.00  0.00    +0.000 OA
ATOM     13  H   UNL     1       3.746   4.875  15.042  0.00  0.00    +0.000 HD
BRANCH  11  14
ATOM     14  C   UNL     1       6.021   4.560  13.960  0.00  0.00    +0.000 C 
ATOM     15 CL   UNL     1       7.676   5.201  13.908  0.00  0.00    +0.000 Cl
ATOM     16 CL   UNL     1       5.857   3.151  12.892  0.00  0.00    +0.000 Cl
ENDBRANCH  11  14
ENDBRANCH   2  10
BRANCH   1  17
ATOM     17  C   UNL     1       4.187   6.353  18.033  0.00  0.00    +0.000 C 
ATOM     18  O   UNL     1       3.523   7.384  17.987  0.00  0.00    +0.000 OA
BRANCH  17  19
ATOM     19  O   UNL     1       5.549   6.318  17.987  0.00  0.00    +0.000 OA
BRANCH  19  21
ATOM     20  C   UNL     1       7.702   5.819  18.903  0.00  0.00    +0.000 C 
ATOM     21  C   UNL     1       6.203   5.609  19.046  0.00  0.00    +0.000 C 
ENDBRANCH  19  21
ENDBRANCH  17  19
ENDBRANCH   1  17
TORSDOF 5
ENDMDL
MODEL 7
REMARK VINA RESULT:      -6.2      1.426      1.894
REMARK  Name = 
REMARK  6 active torsions:
REMARK  status: ('A' for Active; 'I' for Inactive)
REMARK    1  A    between atoms: C_1  and  C_2
REMARK    2  A    between atoms: C_2  and  O_3
REMARK    3  A    between atoms: O_3  and  C_4
REMARK    4  A    between atoms: C_4  and  C_6
REMARK    5  A    between atoms: C_7  and  N_8
REMARK    6  A    between atoms: C_9  and  C_11
REMARK                            x       y       z     vdW  Elec       q    Type
REMARK                         _______ _______ _______ _____ _____    ______ ____
ROOT
ATOM      1  C   UNL     1       4.618   5.429  16.930  0.00  0.00    +0.000 A 
ATOM      2  C   UNL     1       5.050   4.200  16.434  0.00  0.00    +0.000 A 
ATOM      3  S   UNL     1       4.260   2.891  17.169  0.00  0.00    +0.000 S 
ATOM      4  C   UNL     1       3.346   3.902  18.171  0.00  0.00    +0.000 A 
ATOM      5  C   UNL     1       3.592   5.242  17.943  0.00  0.00    +0.000 A 
ATOM      6  C   UNL     1       2.836   6.299  18.710  0.00  0.00    +0.000 C 
ATOM      7  C   UNL     1       2.204   5.743  19.993  0.00  0.00    +0.000 C 
ATOM      8  C   UNL     1       1.476   4.420  19.742  0.00  0.00    +0.000 C 
ATOM      9  C   UNL     1       2.428   3.342  19.210  0.00  0.00    +0.000 C 
ENDROOT
BRANCH   2  10
ATOM     10  N   UNL     1       6.015   3.991  15.455  0.00  0.00    +0.000 N 
ATOM     11  C   UNL     1       5.848   4.038  14.073  0.00  0.00    +0.000 C 
ATOM     12  O   UNL     1       4.798   4.253  13.470  0.00  0.00    +0.000 OA
ATOM     13  H   UNL     1       6.947   3.762  15.810  0.00  0.00    +0.000 HD
BRANCH  11  14
ATOM     14  C   UNL     1       7.130   3.795  13.278  0.00  0.00    +0.000 C 
ATOM     15 CL   UNL     1       6.753   2.901  11.791  0.00  0.00    +0.000 Cl
ATOM     16 CL   UNL     1       7.908   5.345  12.902  0.00  0.00    +0.000 Cl
ENDBRANCH  11  14
ENDBRANCH   2  10
BRANCH   1  17
ATOM     17  C   UNL     1       5.220   6.692  16.493  0.00  0.00    +0.000 C 
ATOM     18  O   UNL     1       5.109   7.124  15.350  0.00  0.00    +0.000 OA
BRANCH  17  19
ATOM     19  O   UNL     1       5.987   7.272  17.459  0.00  0.00    +0.000 OA
BRANCH  19  21
ATOM     20  C   UNL     1       7.736   6.216  18.705  0.00  0.00    +0.000 C 
ATOM     21  C   UNL     1       7.386   6.966  17.429  0.00  0.00    +0.000 C 
ENDBRANCH  19  21
ENDBRANCH  17  19
ENDBRANCH   1  17
TORSDOF 5
ENDMDL
MODEL 8
REMARK VINA RESULT:      -6.1      4.586      6.565
REMARK  Name = 
REMARK  6 active torsions:
REMARK  status: ('A' for Active; 'I' for Inactive)
REMARK    1  A    between atoms: C_1  and  C_2
REMARK    2  A    between atoms: C_2  and  O_3
REMARK    3  A    between atoms: O_3  and  C_4
REMARK    4  A    between atoms: C_4  and  C_6
REMARK    5  A    between atoms: C_7  and  N_8
REMARK    6  A    between atoms: C_9  and  C_11
REMARK                            x       y       z     vdW  Elec       q    Type
REMARK                         _______ _______ _______ _____ _____    ______ ____
ROOT
ATOM      1  C   UNL     1       3.174   5.473  17.745  0.00  0.00    +0.000 A 
ATOM      2  C   UNL     1       3.399   6.804  18.088  0.00  0.00    +0.000 A 
ATOM      3  S   UNL     1       4.844   7.407  17.435  0.00  0.00    +0.000 S 
ATOM      4  C   UNL     1       5.221   5.931  16.701  0.00  0.00    +0.000 A 
ATOM      5  C   UNL     1       4.249   4.971  16.903  0.00  0.00    +0.000 A 
ATOM      6  C   UNL     1       4.386   3.602  16.284  0.00  0.00    +0.000 C 
ATOM      7  C   UNL     1       5.833   3.292  15.878  0.00  0.00    +0.000 C 
ATOM      8  C   UNL     1       6.472   4.459  15.119  0.00  0.00    +0.000 C 
ATOM      9  C   UNL     1       6.511   5.734  15.970  0.00  0.00    +0.000 C 
ENDROOT
BRANCH   2  10
ATOM     10  N   UNL     1       2.583   7.609  18.877  0.00  0.00    +0.000 N 
ATOM     11  C   UNL     1       1.916   8.771  18.499  0.00  0.00    +0.000 C 
ATOM     12  O   UNL     1       1.950   9.307  17.392  0.00  0.00    +0.000 OA
ATOM     13  H   UNL     1       2.486   7.304  19.849  0.00  0.00    +0.000 HD
BRANCH  11  14
ATOM     14  C   UNL     1       1.069   9.396  19.606  0.00  0.00    +0.000 C 
ATOM     15 CL   UNL     1      -0.485   9.936  18.939  0.00  0.00    +0.000 Cl
ATOM     16 CL   UNL     1       0.820   8.219  20.911  0.00  0.00    +0.000 Cl
ENDBRANCH  11  14
ENDBRANCH   2  10
BRANCH   1  17
ATOM     17  C   UNL     1       2.025   4.726  18.263  0.00  0.00    +0.000 C 
ATOM     18  O   UNL     1       1.193   4.190  17.536  0.00  0.00    +0.000 OA
BRANCH  17  19
ATOM     19  O   UNL     1       1.932   4.777  19.622  0.00  0.00    +0.000 OA
BRANCH  19  21
ATOM     20  C   UNL     1       1.547   3.067  21.250  0.00  0.00    +0.000 C 
ATOM     21  C   UNL     1       0.903   3.980  20.220  0.00  0.00    +0.000 C 
ENDBRANCH  19  21
ENDBRANCH  17  19
ENDBRANCH   1  17
TORSDOF 5
ENDMDL
MODEL 9
REMARK VINA RESULT:      -6.0      2.176      2.727
REMARK  Name = 
REMARK  6 active torsions:
REMARK  status: ('A' for Active; 'I' for Inactive)
REMARK    1  A    between atoms: C_1  and  C_2
REMARK    2  A    between atoms: C_2  and  O_3
REMARK    3  A    between atoms: O_3  and  C_4
REMARK    4  A    between atoms: C_4  and  C_6
REMARK    5  A    between atoms: C_7  and  N_8
REMARK    6  A    between atoms: C_9  and  C_11
REMARK                            x       y       z     vdW  Elec       q    Type
REMARK                         _______ _______ _______ _____ _____    ______ ____
ROOT
ATOM      1  C   UNL     1       3.386   5.121  17.982  0.00  0.00    +0.000 A 
ATOM      2  C   UNL     1       3.859   4.190  17.060  0.00  0.00    +0.000 A 
ATOM      3  S   UNL     1       3.606   2.590  17.566  0.00  0.00    +0.000 S 
ATOM      4  C   UNL     1       2.886   3.080  19.016  0.00  0.00    +0.000 A 
ATOM      5  C   UNL     1       2.790   4.453  19.128  0.00  0.00    +0.000 A 
ATOM      6  C   UNL     1       2.133   5.077  20.334  0.00  0.00    +0.000 C 
ATOM      7  C   UNL     1       2.060   4.108  21.521  0.00  0.00    +0.000 C 
ATOM      8  C   UNL     1       1.551   2.728  21.097  0.00  0.00    +0.000 C 
ATOM      9  C   UNL     1       2.469   2.083  20.051  0.00  0.00    +0.000 C 
ENDROOT
BRANCH   2  10
ATOM     10  N   UNL     1       4.484   4.463  15.848  0.00  0.00    +0.000 N 
ATOM     11  C   UNL     1       5.850   4.448  15.573  0.00  0.00    +0.000 C 
ATOM     12  O   UNL     1       6.753   4.209  16.372  0.00  0.00    +0.000 OA
ATOM     13  H   UNL     1       3.852   4.718  15.084  0.00  0.00    +0.000 HD
BRANCH  11  14
ATOM     14  C   UNL     1       6.200   4.762  14.120  0.00  0.00    +0.000 C 
ATOM     15 CL   UNL     1       7.906   5.242  14.005  0.00  0.00    +0.000 Cl
ATOM     16 CL   UNL     1       5.875   3.345  13.102  0.00  0.00    +0.000 Cl
ENDBRANCH  11  14
ENDBRANCH   2  10
BRANCH   1  17
ATOM     17  C   UNL     1       3.569   6.562  17.786  0.00  0.00    +0.000 C 
ATOM     18  O   UNL     1       4.668   7.078  17.606  0.00  0.00    +0.000 OA
BRANCH  17  19
ATOM     19  O   UNL     1       2.408   7.263  17.922  0.00  0.00    +0.000 OA
BRANCH  19  21
ATOM     20  C   UNL     1       1.298   9.315  18.454  0.00  0.00    +0.000 C 
ATOM     21  C   UNL     1       2.503   8.685  17.774  0.00  0.00    +0.000 C 
ENDBRANCH  19  21
ENDBRANCH  17  19
ENDBRANCH   1  17
TORSDOF 5
ENDMDL
