MODEL 1
REMARK VINA RESULT:      -8.2      0.000      0.000
REMARK  Name = 
REMARK  7 active torsions:
REMARK  status: ('A' for Active; 'I' for Inactive)
REMARK    1  A    between atoms: C_1  and  O_2
REMARK    2  A    between atoms: O_2  and  C_3
REMARK    3  A    between atoms: C_6  and  C_7
REMARK    4  A    between atoms: C_7  and  N_8
REMARK    5  A    between atoms: C_9  and  C_11
REMARK    6  A    between atoms: N_13  and  C_14
REMARK    7  A    between atoms: C_17  and  C_18
REMARK                            x       y       z     vdW  Elec       q    Type
REMARK                         _______ _______ _______ _____ _____    ______ ____
ROOT
ATOM      1  C   UNL     1       2.105   7.066  20.012  0.00  0.00    +0.000 C 
ATOM      2  N   UNL     1       2.877   6.808  19.001  0.00  0.00    +0.000 NA
ATOM      3  N   UNL     1       3.363   5.512  18.860  0.00  0.00    +0.000 N 
ATOM      4  C   UNL     1       3.076   4.471  19.764  0.00  0.00    +0.000 C 
ATOM      5  O   UNL     1       3.509   3.315  19.700  0.00  0.00    +0.000 OA
ATOM      6  C   UNL     1       2.175   4.809  20.933  0.00  0.00    +0.000 C 
ATOM      7  N   UNL     1       1.757   6.178  20.983  0.00  0.00    +0.000 N 
ATOM      8  H   UNL     1       1.034   6.452  21.644  0.00  0.00    +0.000 HD
ENDROOT
BRANCH   3   9
ATOM      9  C   UNL     1       4.133   5.308  17.664  0.00  0.00    +0.000 A 
ATOM     10  C   UNL     1       4.573   6.385  16.881  0.00  0.00    +0.000 A 
ATOM     11  C   UNL     1       5.362   6.194  15.748  0.00  0.00    +0.000 A 
ATOM     12  C   UNL     1       5.733   4.911  15.353  0.00  0.00    +0.000 A 
ATOM     13  C   UNL     1       6.616   4.707  14.161  0.00  0.00    +0.000 C 
ATOM     14  C   UNL     1       5.281   3.819  16.102  0.00  0.00    +0.000 A 
ATOM     15  C   UNL     1       4.500   4.016  17.250  0.00  0.00    +0.000 A 
ENDBRANCH   3   9
BRANCH   1  17
ATOM     16  N   UNL     1       1.408   9.154  18.912  0.00  0.00    +0.000 N 
ATOM     17  C   UNL     1       1.521   8.502  20.116  0.00  0.00    +0.000 C 
ATOM     18  O   UNL     1       1.205   8.934  21.212  0.00  0.00    +0.000 OA
ATOM     19  H   UNL     1       1.627   8.618  18.079  0.00  0.00    +0.000 HD
BRANCH  16  20
ATOM     20  C   UNL     1       0.944  10.517  18.789  0.00  0.00    +0.000 C 
BRANCH  20  24
ATOM     21  C   UNL     1      -3.291  10.916  17.919  0.00  0.00    +0.000 A 
ATOM     22  C   UNL     1      -2.663  11.760  18.833  0.00  0.00    +0.000 A 
ATOM     23  C   UNL     1      -1.295  11.628  19.099  0.00  0.00    +0.000 A 
ATOM     24  C   UNL     1      -0.533  10.623  18.483  0.00  0.00    +0.000 A 
ATOM     25  C   UNL     1      -1.173   9.793  17.551  0.00  0.00    +0.000 A 
ATOM     26  C   UNL     1      -2.541   9.929  17.280  0.00  0.00    +0.000 A 
BRANCH  21  28
ATOM     27  C   UNL     1      -5.265  11.909  18.755  0.00  0.00    +0.000 C 
ATOM     28  O   UNL     1      -4.633  11.122  17.750  0.00  0.00    +0.000 OA
ENDBRANCH  21  28
ENDBRANCH  20  24
ENDBRANCH  16  20
ENDBRANCH   1  17
TORSDOF 5
ENDMDL
MODEL 2
REMARK VINA RESULT:      -8.2      5.773      8.243
REMARK  Name = 
REMARK  7 active torsions:
REMARK  status: ('A' for Active; 'I' for Inactive)
REMARK    1  A    between atoms: C_1  and  O_2
REMARK    2  A    between atoms: O_2  and  C_3
REMARK    3  A    between atoms: C_6  and  C_7
REMARK    4  A    between atoms: C_7  and  N_8
REMARK    5  A    between atoms: C_9  and  C_11
REMARK    6  A    between atoms: N_13  and  C_14
REMARK    7  A    between atoms: C_17  and  C_18
REMARK                            x       y       z     vdW  Elec       q    Type
REMARK                         _______ _______ _______ _____ _____    ______ ____
ROOT
ATOM      1  C   UNL     1       7.071   6.134  17.281  0.00  0.00    +0.000 C 
ATOM      2  N   UNL     1       5.948   5.589  17.635  0.00  0.00    +0.000 NA
ATOM      3  N   UNL     1       5.226   4.886  16.675  0.00  0.00    +0.000 N 
ATOM      4  C   UNL     1       5.641   4.750  15.336  0.00  0.00    +0.000 C 
ATOM      5  O   UNL     1       5.021   4.166  14.441  0.00  0.00    +0.000 OA
ATOM      6  C   UNL     1       6.954   5.402  14.956  0.00  0.00    +0.000 C 
ATOM      7  N   UNL     1       7.593   6.114  16.023  0.00  0.00    +0.000 N 
ATOM      8  H   UNL     1       8.545   6.449  15.896  0.00  0.00    +0.000 HD
ENDROOT
BRANCH   3   9
ATOM      9  C   UNL     1       4.047   4.247  17.188  0.00  0.00    +0.000 A 
ATOM     10  C   UNL     1       3.997   2.862  17.405  0.00  0.00    +0.000 A 
ATOM     11  C   UNL     1       2.872   2.244  17.950  0.00  0.00    +0.000 A 
ATOM     12  C   UNL     1       1.748   2.995  18.288  0.00  0.00    +0.000 A 
ATOM     13  C   UNL     1       0.556   2.340  18.913  0.00  0.00    +0.000 C 
ATOM     14  C   UNL     1       1.764   4.374  18.053  0.00  0.00    +0.000 A 
ATOM     15  C   UNL     1       2.903   4.994  17.520  0.00  0.00    +0.000 A 
ENDBRANCH   3   9
BRANCH   1  17
ATOM     16  N   UNL     1       8.182   8.170  18.099  0.00  0.00    +0.000 N 
ATOM     17  C   UNL     1       7.892   6.858  18.383  0.00  0.00    +0.000 C 
ATOM     18  O   UNL     1       8.204   6.243  19.388  0.00  0.00    +0.000 OA
ATOM     19  H   UNL     1       7.767   8.560  17.260  0.00  0.00    +0.000 HD
BRANCH  16  20
ATOM     20  C   UNL     1       8.984   9.009  18.961  0.00  0.00    +0.000 C 
BRANCH  20  24
ATOM     21  C   UNL     1       8.838  13.237  17.985  0.00  0.00    +0.000 A 
ATOM     22  C   UNL     1       9.689  12.759  18.980  0.00  0.00    +0.000 A 
ATOM     23  C   UNL     1       9.735  11.392  19.279  0.00  0.00    +0.000 A 
ATOM     24  C   UNL     1       8.901  10.479  18.615  0.00  0.00    +0.000 A 
ATOM     25  C   UNL     1       8.063  10.971  17.604  0.00  0.00    +0.000 A 
ATOM     26  C   UNL     1       8.022  12.339  17.299  0.00  0.00    +0.000 A 
BRANCH  21  28
ATOM     27  C   UNL     1      10.117  15.223  18.017  0.00  0.00    +0.000 C 
ATOM     28  O   UNL     1       8.862  14.591  17.789  0.00  0.00    +0.000 OA
ENDBRANCH  21  28
ENDBRANCH  20  24
ENDBRANCH  16  20
ENDBRANCH   1  17
TORSDOF 5
ENDMDL
MODEL 3
REMARK VINA RESULT:      -8.2      5.758      8.532
REMARK  Name = 
REMARK  7 active torsions:
REMARK  status: ('A' for Active; 'I' for Inactive)
REMARK    1  A    between atoms: C_1  and  O_2
REMARK    2  A    between atoms: O_2  and  C_3
REMARK    3  A    between atoms: C_6  and  C_7
REMARK    4  A    between atoms: C_7  and  N_8
REMARK    5  A    between atoms: C_9  and  C_11
REMARK    6  A    between atoms: N_13  and  C_14
REMARK    7  A    between atoms: C_17  and  C_18
REMARK                            x       y       z     vdW  Elec       q    Type
REMARK                         _______ _______ _______ _____ _____    ______ ____
ROOT
ATOM      1  C   UNL     1       7.106   6.218  17.329  0.00  0.00    +0.000 C 
ATOM      2  N   UNL     1       5.996   5.658  17.700  0.00  0.00    +0.000 NA
ATOM      3  N   UNL     1       5.252   4.973  16.744  0.00  0.00    +0.000 N 
ATOM      4  C   UNL     1       5.632   4.871  15.392  0.00  0.00    +0.000 C 
ATOM      5  O   UNL     1       4.991   4.304  14.500  0.00  0.00    +0.000 OA
ATOM      6  C   UNL     1       6.930   5.540  14.992  0.00  0.00    +0.000 C 
ATOM      7  N   UNL     1       7.594   6.230  16.057  0.00  0.00    +0.000 N 
ATOM      8  H   UNL     1       8.540   6.574  15.912  0.00  0.00    +0.000 HD
ENDROOT
BRANCH   3   9
ATOM      9  C   UNL     1       4.090   4.315  17.273  0.00  0.00    +0.000 A 
ATOM     10  C   UNL     1       2.928   5.029  17.601  0.00  0.00    +0.000 A 
ATOM     11  C   UNL     1       1.781   4.388  18.069  0.00  0.00    +0.000 A 
ATOM     12  C   UNL     1       1.761   3.005  18.232  0.00  0.00    +0.000 A 
ATOM     13  C   UNL     1       0.516   2.311  18.692  0.00  0.00    +0.000 C 
ATOM     14  C   UNL     1       2.919   2.276  17.938  0.00  0.00    +0.000 A 
ATOM     15  C   UNL     1       4.065   2.922  17.454  0.00  0.00    +0.000 A 
ENDBRANCH   3   9
BRANCH   1  17
ATOM     16  N   UNL     1       8.160   8.261  18.204  0.00  0.00    +0.000 N 
ATOM     17  C   UNL     1       7.953   6.921  18.425  0.00  0.00    +0.000 C 
ATOM     18  O   UNL     1       8.353   6.267  19.373  0.00  0.00    +0.000 OA
ATOM     19  H   UNL     1       7.678   8.675  17.414  0.00  0.00    +0.000 HD
BRANCH  16  20
ATOM     20  C   UNL     1       8.968   9.090  19.068  0.00  0.00    +0.000 C 
BRANCH  20  24
ATOM     21  C   UNL     1       9.688  13.071  17.490  0.00  0.00    +0.000 A 
ATOM     22  C   UNL     1      10.708  12.347  18.106  0.00  0.00    +0.000 A 
ATOM     23  C   UNL     1      10.466  11.061  18.603  0.00  0.00    +0.000 A 
ATOM     24  C   UNL     1       9.188  10.486  18.527  0.00  0.00    +0.000 A 
ATOM     25  C   UNL     1       8.177  11.217  17.888  0.00  0.00    +0.000 A 
ATOM     26  C   UNL     1       8.419  12.502  17.385  0.00  0.00    +0.000 A 
BRANCH  21  28
ATOM     27  C   UNL     1      11.299  14.799  17.496  0.00  0.00    +0.000 C 
ATOM     28  O   UNL     1      10.030  14.324  17.059  0.00  0.00    +0.000 OA
ENDBRANCH  21  28
ENDBRANCH  20  24
ENDBRANCH  16  20
ENDBRANCH   1  17
TORSDOF 5
ENDMDL
MODEL 4
REMARK VINA RESULT:      -8.2      0.177      1.344
REMARK  Name = 
REMARK  7 active torsions:
REMARK  status: ('A' for Active; 'I' for Inactive)
REMARK    1  A    between atoms: C_1  and  O_2
REMARK    2  A    between atoms: O_2  and  C_3
REMARK    3  A    between atoms: C_6  and  C_7
REMARK    4  A    between atoms: C_7  and  N_8
REMARK    5  A    between atoms: C_9  and  C_11
REMARK    6  A    between atoms: N_13  and  C_14
REMARK    7  A    between atoms: C_17  and  C_18
REMARK                            x       y       z     vdW  Elec       q    Type
REMARK                         _______ _______ _______ _____ _____    ______ ____
ROOT
ATOM      1  C   UNL     1       2.036   7.157  19.988  0.00  0.00    +0.000 C 
ATOM      2  N   UNL     1       2.830   6.872  19.001  0.00  0.00    +0.000 NA
ATOM      3  N   UNL     1       3.313   5.571  18.900  0.00  0.00    +0.000 N 
ATOM      4  C   UNL     1       3.001   4.553  19.820  0.00  0.00    +0.000 C 
ATOM      5  O   UNL     1       3.430   3.394  19.792  0.00  0.00    +0.000 OA
ATOM      6  C   UNL     1       2.076   4.920  20.961  0.00  0.00    +0.000 C 
ATOM      7  N   UNL     1       1.662   6.291  20.971  0.00  0.00    +0.000 N 
ATOM      8  H   UNL     1       0.926   6.583  21.609  0.00  0.00    +0.000 HD
ENDROOT
BRANCH   3   9
ATOM      9  C   UNL     1       4.109   5.337  17.727  0.00  0.00    +0.000 A 
ATOM     10  C   UNL     1       4.414   4.038  17.294  0.00  0.00    +0.000 A 
ATOM     11  C   UNL     1       5.144   3.806  16.129  0.00  0.00    +0.000 A 
ATOM     12  C   UNL     1       5.603   4.872  15.358  0.00  0.00    +0.000 A 
ATOM     13  C   UNL     1       6.349   4.624  14.084  0.00  0.00    +0.000 C 
ATOM     14  C   UNL     1       5.335   6.177  15.787  0.00  0.00    +0.000 A 
ATOM     15  C   UNL     1       4.588   6.406  16.951  0.00  0.00    +0.000 A 
ENDBRANCH   3   9
BRANCH   1  17
ATOM     16  N   UNL     1       1.420   9.240  18.833  0.00  0.00    +0.000 N 
ATOM     17  C   UNL     1       1.457   8.597  20.046  0.00  0.00    +0.000 C 
ATOM     18  O   UNL     1       1.079   9.039  21.119  0.00  0.00    +0.000 OA
ATOM     19  H   UNL     1       1.684   8.696  18.019  0.00  0.00    +0.000 HD
BRANCH  16  20
ATOM     20  C   UNL     1       0.974  10.604  18.673  0.00  0.00    +0.000 C 
BRANCH  20  24
ATOM     21  C   UNL     1      -3.300  10.853  17.946  0.00  0.00    +0.000 A 
ATOM     22  C   UNL     1      -2.517   9.893  17.307  0.00  0.00    +0.000 A 
ATOM     23  C   UNL     1      -1.142   9.816  17.556  0.00  0.00    +0.000 A 
ATOM     24  C   UNL     1      -0.513  10.724  18.422  0.00  0.00    +0.000 A 
ATOM     25  C   UNL     1      -1.315  11.673  19.073  0.00  0.00    +0.000 A 
ATOM     26  C   UNL     1      -2.693  11.746  18.828  0.00  0.00    +0.000 A 
BRANCH  21  28
ATOM     27  C   UNL     1      -5.405  11.900  18.180  0.00  0.00    +0.000 C 
ATOM     28  O   UNL     1      -4.627  10.850  17.614  0.00  0.00    +0.000 OA
ENDBRANCH  21  28
ENDBRANCH  20  24
ENDBRANCH  16  20
ENDBRANCH   1  17
TORSDOF 5
ENDMDL
MODEL 5
REMARK VINA RESULT:      -8.0      1.256      1.993
REMARK  Name = 
REMARK  7 active torsions:
REMARK  status: ('A' for Active; 'I' for Inactive)
REMARK    1  A    between atoms: C_1  and  O_2
REMARK    2  A    between atoms: O_2  and  C_3
REMARK    3  A    between atoms: C_6  and  C_7
REMARK    4  A    between atoms: C_7  and  N_8
REMARK    5  A    between atoms: C_9  and  C_11
REMARK    6  A    between atoms: N_13  and  C_14
REMARK    7  A    between atoms: C_17  and  C_18
REMARK                            x       y       z     vdW  Elec       q    Type
REMARK                         _______ _______ _______ _____ _____    ______ ____
ROOT
ATOM      1  C   UNL     1       2.005   7.881  19.481  0.00  0.00    +0.000 C 
ATOM      2  N   UNL     1       2.796   7.420  18.561  0.00  0.00    +0.000 NA
ATOM      3  N   UNL     1       3.284   6.125  18.702  0.00  0.00    +0.000 N 
ATOM      4  C   UNL     1       2.982   5.296  19.799  0.00  0.00    +0.000 C 
ATOM      5  O   UNL     1       3.416   4.154  19.986  0.00  0.00    +0.000 OA
ATOM      6  C   UNL     1       2.060   5.867  20.856  0.00  0.00    +0.000 C 
ATOM      7  N   UNL     1       1.640   7.214  20.610  0.00  0.00    +0.000 N 
ATOM      8  H   UNL     1       0.905   7.618  21.186  0.00  0.00    +0.000 HD
ENDROOT
BRANCH   3   9
ATOM      9  C   UNL     1       4.076   5.678  17.590  0.00  0.00    +0.000 A 
ATOM     10  C   UNL     1       4.044   4.345  17.154  0.00  0.00    +0.000 A 
ATOM     11  C   UNL     1       4.773   3.918  16.044  0.00  0.00    +0.000 A 
ATOM     12  C   UNL     1       5.568   4.815  15.334  0.00  0.00    +0.000 A 
ATOM     13  C   UNL     1       6.316   4.368  14.116  0.00  0.00    +0.000 C 
ATOM     14  C   UNL     1       5.638   6.143  15.768  0.00  0.00    +0.000 A 
ATOM     15  C   UNL     1       4.892   6.572  16.875  0.00  0.00    +0.000 A 
ENDBRANCH   3   9
BRANCH   1  17
ATOM     16  N   UNL     1       0.269   9.551  19.981  0.00  0.00    +0.000 N 
ATOM     17  C   UNL     1       1.419   9.305  19.271  0.00  0.00    +0.000 C 
ATOM     18  O   UNL     1       1.999  10.080  18.529  0.00  0.00    +0.000 OA
ATOM     19  H   UNL     1      -0.033   8.831  20.629  0.00  0.00    +0.000 HD
BRANCH  16  20
ATOM     20  C   UNL     1      -0.471  10.789  19.886  0.00  0.00    +0.000 C 
BRANCH  20  24
ATOM     21  C   UNL     1      -3.313  10.751  16.604  0.00  0.00    +0.000 A 
ATOM     22  C   UNL     1      -2.145   9.991  16.552  0.00  0.00    +0.000 A 
ATOM     23  C   UNL     1      -1.241  10.004  17.620  0.00  0.00    +0.000 A 
ATOM     24  C   UNL     1      -1.467  10.807  18.748  0.00  0.00    +0.000 A 
ATOM     25  C   UNL     1      -2.655  11.551  18.796  0.00  0.00    +0.000 A 
ATOM     26  C   UNL     1      -3.564  11.534  17.730  0.00  0.00    +0.000 A 
BRANCH  21  28
ATOM     27  C   UNL     1      -3.534  10.053  14.358  0.00  0.00    +0.000 C 
ATOM     28  O   UNL     1      -4.116  10.677  15.498  0.00  0.00    +0.000 OA
ENDBRANCH  21  28
ENDBRANCH  20  24
ENDBRANCH  16  20
ENDBRANCH   1  17
TORSDOF 5
ENDMDL
MODEL 6
REMARK VINA RESULT:      -7.9      5.741      7.929
REMARK  Name = 
REMARK  7 active torsions:
REMARK  status: ('A' for Active; 'I' for Inactive)
REMARK    1  A    between atoms: C_1  and  O_2
REMARK    2  A    between atoms: O_2  and  C_3
REMARK    3  A    between atoms: C_6  and  C_7
REMARK    4  A    between atoms: C_7  and  N_8
REMARK    5  A    between atoms: C_9  and  C_11
REMARK    6  A    between atoms: N_13  and  C_14
REMARK    7  A    between atoms: C_17  and  C_18
REMARK                            x       y       z     vdW  Elec       q    Type
REMARK                         _______ _______ _______ _____ _____    ______ ____
ROOT
ATOM      1  C   UNL     1       7.079   6.177  17.300  0.00  0.00    +0.000 C 
ATOM      2  N   UNL     1       5.964   5.636  17.688  0.00  0.00    +0.000 NA
ATOM      3  N   UNL     1       5.216   4.927  16.754  0.00  0.00    +0.000 N 
ATOM      4  C   UNL     1       5.595   4.779  15.406  0.00  0.00    +0.000 C 
ATOM      5  O   UNL     1       4.951   4.189  14.532  0.00  0.00    +0.000 OA
ATOM      6  C   UNL     1       6.898   5.426  14.986  0.00  0.00    +0.000 C 
ATOM      7  N   UNL     1       7.567   6.145  16.029  0.00  0.00    +0.000 N 
ATOM      8  H   UNL     1       8.515   6.478  15.873  0.00  0.00    +0.000 HD
ENDROOT
BRANCH   3   9
ATOM      9  C   UNL     1       4.050   4.294  17.303  0.00  0.00    +0.000 A 
ATOM     10  C   UNL     1       2.878   5.018  17.569  0.00  0.00    +0.000 A 
ATOM     11  C   UNL     1       1.727   4.399  18.055  0.00  0.00    +0.000 A 
ATOM     12  C   UNL     1       1.713   3.028  18.302  0.00  0.00    +0.000 A 
ATOM     13  C   UNL     1       0.465   2.355  18.783  0.00  0.00    +0.000 C 
ATOM     14  C   UNL     1       2.880   2.291  18.072  0.00  0.00    +0.000 A 
ATOM     15  C   UNL     1       4.030   2.914  17.569  0.00  0.00    +0.000 A 
ENDBRANCH   3   9
BRANCH   1  17
ATOM     16  N   UNL     1       8.193   8.225  18.082  0.00  0.00    +0.000 N 
ATOM     17  C   UNL     1       7.930   6.909  18.373  0.00  0.00    +0.000 C 
ATOM     18  O   UNL     1       8.285   6.295  19.366  0.00  0.00    +0.000 OA
ATOM     19  H   UNL     1       7.743   8.612  17.260  0.00  0.00    +0.000 HD
BRANCH  16  20
ATOM     20  C   UNL     1       9.015   9.072  18.917  0.00  0.00    +0.000 C 
BRANCH  20  24
ATOM     21  C   UNL     1       8.558  13.326  18.177  0.00  0.00    +0.000 A 
ATOM     22  C   UNL     1       9.229  12.861  19.307  0.00  0.00    +0.000 A 
ATOM     23  C   UNL     1       9.378  11.487  19.530  0.00  0.00    +0.000 A 
ATOM     24  C   UNL     1       8.826  10.548  18.646  0.00  0.00    +0.000 A 
ATOM     25  C   UNL     1       8.171  11.028  17.503  0.00  0.00    +0.000 A 
ATOM     26  C   UNL     1       8.027  12.404  17.276  0.00  0.00    +0.000 A 
BRANCH  21  28
ATOM     27  C   UNL     1       7.376  15.279  18.784  0.00  0.00    +0.000 C 
ATOM     28  O   UNL     1       8.455  14.686  18.068  0.00  0.00    +0.000 OA
ENDBRANCH  21  28
ENDBRANCH  20  24
ENDBRANCH  16  20
ENDBRANCH   1  17
TORSDOF 5
ENDMDL
MODEL 7
REMARK VINA RESULT:      -7.9      1.314      1.805
REMARK  Name = 
REMARK  7 active torsions:
REMARK  status: ('A' for Active; 'I' for Inactive)
REMARK    1  A    between atoms: C_1  and  O_2
REMARK    2  A    between atoms: O_2  and  C_3
REMARK    3  A    between atoms: C_6  and  C_7
REMARK    4  A    between atoms: C_7  and  N_8
REMARK    5  A    between atoms: C_9  and  C_11
REMARK    6  A    between atoms: N_13  and  C_14
REMARK    7  A    between atoms: C_17  and  C_18
REMARK                            x       y       z     vdW  Elec       q    Type
REMARK                         _______ _______ _______ _____ _____    ______ ____
ROOT
ATOM      1  C   UNL     1       1.944   8.461  19.066  0.00  0.00    +0.000 C 
ATOM      2  N   UNL     1       2.728   7.820  18.254  0.00  0.00    +0.000 NA
ATOM      3  N   UNL     1       3.131   6.535  18.607  0.00  0.00    +0.000 N 
ATOM      4  C   UNL     1       2.748   5.902  19.804  0.00  0.00    +0.000 C 
ATOM      5  O   UNL     1       3.105   4.779  20.177  0.00  0.00    +0.000 OA
ATOM      6  C   UNL     1       1.837   6.681  20.730  0.00  0.00    +0.000 C 
ATOM      7  N   UNL     1       1.509   7.997  20.270  0.00  0.00    +0.000 N 
ATOM      8  H   UNL     1       0.786   8.525  20.752  0.00  0.00    +0.000 HD
ENDROOT
BRANCH   3   9
ATOM      9  C   UNL     1       3.921   5.879  17.603  0.00  0.00    +0.000 A 
ATOM     10  C   UNL     1       3.804   4.502  17.360  0.00  0.00    +0.000 A 
ATOM     11  C   UNL     1       4.533   3.870  16.353  0.00  0.00    +0.000 A 
ATOM     12  C   UNL     1       5.415   4.598  15.557  0.00  0.00    +0.000 A 
ATOM     13  C   UNL     1       6.166   3.928  14.447  0.00  0.00    +0.000 C 
ATOM     14  C   UNL     1       5.569   5.966  15.800  0.00  0.00    +0.000 A 
ATOM     15  C   UNL     1       4.823   6.601  16.803  0.00  0.00    +0.000 A 
ENDBRANCH   3   9
BRANCH   1  17
ATOM     16  N   UNL     1       0.269  10.258  19.197  0.00  0.00    +0.000 N 
ATOM     17  C   UNL     1       1.454   9.868  18.624  0.00  0.00    +0.000 C 
ATOM     18  O   UNL     1       2.131  10.509  17.837  0.00  0.00    +0.000 OA
ATOM     19  H   UNL     1      -0.120   9.646  19.907  0.00  0.00    +0.000 HD
BRANCH  16  20
ATOM     20  C   UNL     1      -0.393  11.503  18.880  0.00  0.00    +0.000 C 
BRANCH  20  24
ATOM     21  C   UNL     1      -4.621  11.120  17.971  0.00  0.00    +0.000 A 
ATOM     22  C   UNL     1      -4.179  11.962  18.990  0.00  0.00    +0.000 A 
ATOM     23  C   UNL     1      -2.812  12.085  19.268  0.00  0.00    +0.000 A 
ATOM     24  C   UNL     1      -1.861  11.338  18.557  0.00  0.00    +0.000 A 
ATOM     25  C   UNL     1      -2.318  10.509  17.522  0.00  0.00    +0.000 A 
ATOM     26  C   UNL     1      -3.686  10.391  17.239  0.00  0.00    +0.000 A 
BRANCH  21  28
ATOM     27  C   UNL     1      -6.700  10.392  18.827  0.00  0.00    +0.000 C 
ATOM     28  O   UNL     1      -5.977  11.063  17.799  0.00  0.00    +0.000 OA
ENDBRANCH  21  28
ENDBRANCH  20  24
ENDBRANCH  16  20
ENDBRANCH   1  17
TORSDOF 5
ENDMDL
MODEL 8
REMARK VINA RESULT:      -7.9      1.125      1.179
REMARK  Name = 
REMARK  7 active torsions:
REMARK  status: ('A' for Active; 'I' for Inactive)
REMARK    1  A    between atoms: C_1  and  O_2
REMARK    2  A    between atoms: O_2  and  C_3
REMARK    3  A    between atoms: C_6  and  C_7
REMARK    4  A    between atoms: C_7  and  N_8
REMARK    5  A    between atoms: C_9  and  C_11
REMARK    6  A    between atoms: N_13  and  C_14
REMARK    7  A    between atoms: C_17  and  C_18
REMARK                            x       y       z     vdW  Elec       q    Type
REMARK                         _______ _______ _______ _____ _____    ______ ____
ROOT
ATOM      1  C   UNL     1       2.065   7.997  19.230  0.00  0.00    +0.000 C 
ATOM      2  N   UNL     1       2.813   7.460  18.315  0.00  0.00    +0.000 NA
ATOM      3  N   UNL     1       3.254   6.154  18.509  0.00  0.00    +0.000 N 
ATOM      4  C   UNL     1       2.947   5.392  19.652  0.00  0.00    +0.000 C 
ATOM      5  O   UNL     1       3.341   4.244  19.886  0.00  0.00    +0.000 OA
ATOM      6  C   UNL     1       2.076   6.050  20.701  0.00  0.00    +0.000 C 
ATOM      7  N   UNL     1       1.702   7.400  20.399  0.00  0.00    +0.000 N 
ATOM      8  H   UNL     1       0.999   7.860  20.972  0.00  0.00    +0.000 HD
ENDROOT
BRANCH   3   9
ATOM      9  C   UNL     1       3.999   5.623  17.402  0.00  0.00    +0.000 A 
ATOM     10  C   UNL     1       4.727   6.456  16.539  0.00  0.00    +0.000 A 
ATOM     11  C   UNL     1       5.491   5.940  15.493  0.00  0.00    +0.000 A 
ATOM     12  C   UNL     1       5.546   4.566  15.269  0.00  0.00    +0.000 A 
ATOM     13  C   UNL     1       6.401   4.008  14.173  0.00  0.00    +0.000 C 
ATOM     14  C   UNL     1       4.804   3.718  16.099  0.00  0.00    +0.000 A 
ATOM     15  C   UNL     1       4.049   4.239  17.159  0.00  0.00    +0.000 A 
ENDBRANCH   3   9
BRANCH   1  17
ATOM     16  N   UNL     1       0.573   9.850  19.856  0.00  0.00    +0.000 N 
ATOM     17  C   UNL     1       1.529   9.431  18.964  0.00  0.00    +0.000 C 
ATOM     18  O   UNL     1       1.982  10.066  18.027  0.00  0.00    +0.000 OA
ATOM     19  H   UNL     1       0.375   9.235  20.638  0.00  0.00    +0.000 HD
BRANCH  16  20
ATOM     20  C   UNL     1      -0.098  11.126  19.757  0.00  0.00    +0.000 C 
BRANCH  20  24
ATOM     21  C   UNL     1      -3.887  11.020  17.639  0.00  0.00    +0.000 A 
ATOM     22  C   UNL     1      -3.675  11.915  18.686  0.00  0.00    +0.000 A 
ATOM     23  C   UNL     1      -2.445  11.947  19.355  0.00  0.00    +0.000 A 
ATOM     24  C   UNL     1      -1.415  11.056  19.016  0.00  0.00    +0.000 A 
ATOM     25  C   UNL     1      -1.636  10.174  17.948  0.00  0.00    +0.000 A 
ATOM     26  C   UNL     1      -2.864  10.146  17.273  0.00  0.00    +0.000 A 
BRANCH  21  28
ATOM     27  C   UNL     1      -6.008  12.059  17.583  0.00  0.00    +0.000 C 
ATOM     28  O   UNL     1      -5.130  11.062  17.069  0.00  0.00    +0.000 OA
ENDBRANCH  21  28
ENDBRANCH  20  24
ENDBRANCH  16  20
ENDBRANCH   1  17
TORSDOF 5
ENDMDL
MODEL 9
REMARK VINA RESULT:      -7.9      2.846      8.707
REMARK  Name = 
REMARK  7 active torsions:
REMARK  status: ('A' for Active; 'I' for Inactive)
REMARK    1  A    between atoms: C_1  and  O_2
REMARK    2  A    between atoms: O_2  and  C_3
REMARK    3  A    between atoms: C_6  and  C_7
REMARK    4  A    between atoms: C_7  and  N_8
REMARK    5  A    between atoms: C_9  and  C_11
REMARK    6  A    between atoms: N_13  and  C_14
REMARK    7  A    between atoms: C_17  and  C_18
REMARK                            x       y       z     vdW  Elec       q    Type
REMARK                         _______ _______ _______ _____ _____    ______ ____
ROOT
ATOM      1  C   UNL     1       4.627   5.016  18.743  0.00  0.00    +0.000 C 
ATOM      2  N   UNL     1       3.949   6.121  18.676  0.00  0.00    +0.000 NA
ATOM      3  N   UNL     1       2.770   6.214  19.409  0.00  0.00    +0.000 N 
ATOM      4  C   UNL     1       2.265   5.168  20.204  0.00  0.00    +0.000 C 
ATOM      5  O   UNL     1       1.208   5.189  20.845  0.00  0.00    +0.000 OA
ATOM      6  C   UNL     1       3.078   3.892  20.256  0.00  0.00    +0.000 C 
ATOM      7  N   UNL     1       4.259   3.909  19.445  0.00  0.00    +0.000 N 
ATOM      8  H   UNL     1       4.937   3.156  19.539  0.00  0.00    +0.000 HD
ENDROOT
BRANCH   3   9
ATOM      9  C   UNL     1       2.143   7.504  19.339  0.00  0.00    +0.000 A 
ATOM     10  C   UNL     1       2.051   8.211  18.130  0.00  0.00    +0.000 A 
ATOM     11  C   UNL     1       1.400   9.441  18.048  0.00  0.00    +0.000 A 
ATOM     12  C   UNL     1       0.822  10.012  19.180  0.00  0.00    +0.000 A 
ATOM     13  C   UNL     1       0.084  11.312  19.083  0.00  0.00    +0.000 C 
ATOM     14  C   UNL     1       0.926   9.339  20.401  0.00  0.00    +0.000 A 
ATOM     15  C   UNL     1       1.569   8.095  20.478  0.00  0.00    +0.000 A 
ENDBRANCH   3   9
BRANCH   1  17
ATOM     16  N   UNL     1       5.946   5.571  16.742  0.00  0.00    +0.000 N 
ATOM     17  C   UNL     1       5.973   4.956  17.969  0.00  0.00    +0.000 C 
ATOM     18  O   UNL     1       6.927   4.399  18.486  0.00  0.00    +0.000 OA
ATOM     19  H   UNL     1       5.098   6.073  16.500  0.00  0.00    +0.000 HD
BRANCH  16  20
ATOM     20  C   UNL     1       7.071   5.581  15.836  0.00  0.00    +0.000 C 
BRANCH  20  24
ATOM     21  C   UNL     1       6.252   3.391  12.177  0.00  0.00    +0.000 A 
ATOM     22  C   UNL     1       5.457   3.222  13.309  0.00  0.00    +0.000 A 
ATOM     23  C   UNL     1       5.724   3.941  14.480  0.00  0.00    +0.000 A 
ATOM     24  C   UNL     1       6.818   4.816  14.555  0.00  0.00    +0.000 A 
ATOM     25  C   UNL     1       7.599   4.992  13.404  0.00  0.00    +0.000 A 
ATOM     26  C   UNL     1       7.327   4.278  12.229  0.00  0.00    +0.000 A 
BRANCH  21  28
ATOM     27  C   UNL     1       6.370   1.278  11.128  0.00  0.00    +0.000 C 
ATOM     28  O   UNL     1       5.912   2.626  11.095  0.00  0.00    +0.000 OA
ENDBRANCH  21  28
ENDBRANCH  20  24
ENDBRANCH  16  20
ENDBRANCH   1  17
TORSDOF 5
ENDMDL
