MODEL 1
REMARK VINA RESULT:      -7.5      0.000      0.000
REMARK  Name = 
REMARK  9 active torsions:
REMARK  status: ('A' for Active; 'I' for Inactive)
REMARK    1  A    between atoms: C_1  and  C_2
REMARK    2  A    between atoms: C_5  and  O_6
REMARK    3  A    between atoms: O_6  and  C_7
REMARK    4  A    between atoms: C_7  and  C_8
REMARK    5  A    between atoms: C_8  and  O_9
REMARK    6  A    between atoms: O_9  and  C_10
REMARK    7  A    between atoms: C_10  and  C_11
REMARK    8  A    between atoms: C_11  and  N_12
REMARK    9  A    between atoms: C_23  and  N_24
REMARK                            x       y       z     vdW  Elec       q    Type
REMARK                         _______ _______ _______ _____ _____    ______ ____
ROOT
ATOM      1  O   UNL     1       1.156   4.007  20.792  0.00  0.00    +0.000 OA
ENDROOT
BRANCH   1   2
ATOM      2  C   UNL     1       2.029   5.118  21.013  0.00  0.00    +0.000 C 
BRANCH   2   3
ATOM      3  C   UNL     1       1.870   6.274  20.021  0.00  0.00    +0.000 C 
BRANCH   3   4
ATOM      4  O   UNL     1       2.043   7.541  20.674  0.00  0.00    +0.000 OA
BRANCH   4   9
ATOM      5  C   UNL     1      -1.180  11.425  18.066  0.00  0.00    +0.000 C 
ATOM      6  C   UNL     1      -0.271  10.489  18.803  0.00  0.00    +0.000 A 
ATOM      7  C   UNL     1       0.778   9.829  18.166  0.00  0.00    +0.000 A 
ATOM      8  C   UNL     1       1.538   8.877  18.853  0.00  0.00    +0.000 A 
ATOM      9  C   UNL     1       1.268   8.556  20.199  0.00  0.00    +0.000 A 
ATOM     10  C   UNL     1       0.295   9.313  20.872  0.00  0.00    +0.000 A 
ATOM     11  C   UNL     1      -0.475  10.260  20.169  0.00  0.00    +0.000 A 
BRANCH  10  12
ATOM     12  N   UNL     1       0.045   9.223  22.317  0.00  0.00    +0.000 N 
ATOM     13  O   UNL     1      -0.865   8.494  22.730  0.00  0.00    +0.000 OA
ATOM     14  O   UNL     1       0.790   9.879  23.062  0.00  0.00    +0.000 OA
ENDBRANCH  10  12
ENDBRANCH   4   9
ENDBRANCH   3   4
ENDBRANCH   2   3
ENDBRANCH   1   2
BRANCH   1  15
ATOM     15  C   UNL     1       1.191   3.422  19.491  0.00  0.00    +0.000 C 
BRANCH  15  16
ATOM     16  C   UNL     1       2.364   2.456  19.257  0.00  0.00    +0.000 C 
BRANCH  16  17
ATOM     17  N   UNL     1       3.523   3.116  18.666  0.00  0.00    +0.000 N 
ATOM     18  C   UNL     1       4.627   3.347  19.453  0.00  0.00    +0.000 A 
ATOM     19  N   UNL     1       5.728   3.882  19.051  0.00  0.00    +0.000 NA
ATOM     20  C   UNL     1       5.819   4.225  17.697  0.00  0.00    +0.000 A 
ATOM     21  C   UNL     1       7.039   4.706  17.216  0.00  0.00    +0.000 A 
ATOM     22  C   UNL     1       7.203   4.988  15.859  0.00  0.00    +0.000 A 
ATOM     23  C   UNL     1       6.137   4.820  14.973  0.00  0.00    +0.000 A 
ATOM     24  C   UNL     1       4.904   4.371  15.447  0.00  0.00    +0.000 A 
ATOM     25  C   UNL     1       4.759   4.059  16.804  0.00  0.00    +0.000 A 
ATOM     26  C   UNL     1       3.502   3.481  17.326  0.00  0.00    +0.000 A 
ATOM     27  O   UNL     1       2.544   3.328  16.572  0.00  0.00    +0.000 OA
ENDBRANCH  16  17
ENDBRANCH  15  16
ENDBRANCH   1  15
TORSDOF 8
ENDMDL
MODEL 2
REMARK VINA RESULT:      -7.4      6.520      8.151
REMARK  Name = 
REMARK  9 active torsions:
REMARK  status: ('A' for Active; 'I' for Inactive)
REMARK    1  A    between atoms: C_1  and  C_2
REMARK    2  A    between atoms: C_5  and  O_6
REMARK    3  A    between atoms: O_6  and  C_7
REMARK    4  A    between atoms: C_7  and  C_8
REMARK    5  A    between atoms: C_8  and  O_9
REMARK    6  A    between atoms: O_9  and  C_10
REMARK    7  A    between atoms: C_10  and  C_11
REMARK    8  A    between atoms: C_11  and  N_12
REMARK    9  A    between atoms: C_23  and  N_24
REMARK                            x       y       z     vdW  Elec       q    Type
REMARK                         _______ _______ _______ _____ _____    ______ ____
ROOT
ATOM      1  O   UNL     1       7.586   7.900  17.069  0.00  0.00    +0.000 OA
ENDROOT
BRANCH   1   2
ATOM      2  C   UNL     1       8.304   8.289  18.243  0.00  0.00    +0.000 C 
BRANCH   2   3
ATOM      3  C   UNL     1       8.544   9.796  18.386  0.00  0.00    +0.000 C 
BRANCH   3   4
ATOM      4  O   UNL     1       9.723  10.058  19.161  0.00  0.00    +0.000 OA
BRANCH   4   9
ATOM      5  C   UNL     1       9.985  14.814  22.257  0.00  0.00    +0.000 C 
ATOM      6  C   UNL     1       9.831  13.611  21.377  0.00  0.00    +0.000 A 
ATOM      7  C   UNL     1       9.153  12.471  21.804  0.00  0.00    +0.000 A 
ATOM      8  C   UNL     1       9.124  11.323  21.004  0.00  0.00    +0.000 A 
ATOM      9  C   UNL     1       9.775  11.284  19.754  0.00  0.00    +0.000 A 
ATOM     10  C   UNL     1      10.348  12.473  19.274  0.00  0.00    +0.000 A 
ATOM     11  C   UNL     1      10.385  13.620  20.092  0.00  0.00    +0.000 A 
BRANCH  10  12
ATOM     12  N   UNL     1      10.885  12.631  17.916  0.00  0.00    +0.000 N 
ATOM     13  O   UNL     1      10.211  13.224  17.064  0.00  0.00    +0.000 OA
ATOM     14  O   UNL     1      12.017  12.172  17.697  0.00  0.00    +0.000 OA
ENDBRANCH  10  12
ENDBRANCH   4   9
ENDBRANCH   3   4
ENDBRANCH   2   3
ENDBRANCH   1   2
BRANCH   1  15
ATOM     15  C   UNL     1       7.141   6.545  17.017  0.00  0.00    +0.000 C 
BRANCH  15  16
ATOM     16  C   UNL     1       6.725   5.960  18.376  0.00  0.00    +0.000 C 
BRANCH  16  17
ATOM     17  N   UNL     1       5.345   5.485  18.382  0.00  0.00    +0.000 N 
ATOM     18  C   UNL     1       4.372   6.270  17.809  0.00  0.00    +0.000 A 
ATOM     19  N   UNL     1       3.126   5.957  17.711  0.00  0.00    +0.000 NA
ATOM     20  C   UNL     1       2.738   4.702  18.194  0.00  0.00    +0.000 A 
ATOM     21  C   UNL     1       1.416   4.296  18.001  0.00  0.00    +0.000 A 
ATOM     22  C   UNL     1       1.001   3.023  18.396  0.00  0.00    +0.000 A 
ATOM     23  C   UNL     1       1.899   2.153  19.017  0.00  0.00    +0.000 A 
ATOM     24  C   UNL     1       3.215   2.560  19.245  0.00  0.00    +0.000 A 
ATOM     25  C   UNL     1       3.630   3.825  18.815  0.00  0.00    +0.000 A 
ATOM     26  C   UNL     1       5.040   4.252  18.943  0.00  0.00    +0.000 A 
ATOM     27  O   UNL     1       5.852   3.510  19.491  0.00  0.00    +0.000 OA
ENDBRANCH  16  17
ENDBRANCH  15  16
ENDBRANCH   1  15
TORSDOF 8
ENDMDL
MODEL 3
REMARK VINA RESULT:      -7.4      7.139      9.855
REMARK  Name = 
REMARK  9 active torsions:
REMARK  status: ('A' for Active; 'I' for Inactive)
REMARK    1  A    between atoms: C_1  and  C_2
REMARK    2  A    between atoms: C_5  and  O_6
REMARK    3  A    between atoms: O_6  and  C_7
REMARK    4  A    between atoms: C_7  and  C_8
REMARK    5  A    between atoms: C_8  and  O_9
REMARK    6  A    between atoms: O_9  and  C_10
REMARK    7  A    between atoms: C_10  and  C_11
REMARK    8  A    between atoms: C_11  and  N_12
REMARK    9  A    between atoms: C_23  and  N_24
REMARK                            x       y       z     vdW  Elec       q    Type
REMARK                         _______ _______ _______ _____ _____    ______ ____
ROOT
ATOM      1  O   UNL     1       8.478   7.970  18.641  0.00  0.00    +0.000 OA
ENDROOT
BRANCH   1   2
ATOM      2  C   UNL     1       7.687   7.187  17.743  0.00  0.00    +0.000 C 
BRANCH   2   3
ATOM      3  C   UNL     1       6.346   7.814  17.347  0.00  0.00    +0.000 C 
BRANCH   3   4
ATOM      4  O   UNL     1       5.749   7.102  16.252  0.00  0.00    +0.000 OA
BRANCH   4   9
ATOM      5  C   UNL     1       2.430   2.704  17.636  0.00  0.00    +0.000 C 
ATOM      6  C   UNL     1       3.382   3.826  17.352  0.00  0.00    +0.000 A 
ATOM      7  C   UNL     1       3.159   5.116  17.827  0.00  0.00    +0.000 A 
ATOM      8  C   UNL     1       4.005   6.165  17.451  0.00  0.00    +0.000 A 
ATOM      9  C   UNL     1       5.097   5.953  16.586  0.00  0.00    +0.000 A 
ATOM     10  C   UNL     1       5.391   4.631  16.212  0.00  0.00    +0.000 A 
ATOM     11  C   UNL     1       4.526   3.582  16.583  0.00  0.00    +0.000 A 
BRANCH  10  12
ATOM     12  N   UNL     1       6.603   4.239  15.479  0.00  0.00    +0.000 N 
ATOM     13  O   UNL     1       7.704   4.343  16.033  0.00  0.00    +0.000 OA
ATOM     14  O   UNL     1       6.452   3.797  14.330  0.00  0.00    +0.000 OA
ENDBRANCH  10  12
ENDBRANCH   4   9
ENDBRANCH   3   4
ENDBRANCH   2   3
ENDBRANCH   1   2
BRANCH   1  15
ATOM     15  C   UNL     1       8.562   9.367  18.359  0.00  0.00    +0.000 C 
BRANCH  15  16
ATOM     16  C   UNL     1       9.279  10.192  19.440  0.00  0.00    +0.000 C 
BRANCH  16  17
ATOM     17  N   UNL     1       9.715  11.496  18.951  0.00  0.00    +0.000 N 
ATOM     18  C   UNL     1       9.004  12.094  17.937  0.00  0.00    +0.000 A 
ATOM     19  N   UNL     1       9.253  13.257  17.439  0.00  0.00    +0.000 NA
ATOM     20  C   UNL     1      10.312  13.981  17.998  0.00  0.00    +0.000 A 
ATOM     21  C   UNL     1      10.533  15.285  17.549  0.00  0.00    +0.000 A 
ATOM     22  C   UNL     1      11.528  16.075  18.129  0.00  0.00    +0.000 A 
ATOM     23  C   UNL     1      12.332  15.556  19.146  0.00  0.00    +0.000 A 
ATOM     24  C   UNL     1      12.142  14.244  19.580  0.00  0.00    +0.000 A 
ATOM     25  C   UNL     1      11.121  13.471  19.016  0.00  0.00    +0.000 A 
ATOM     26  C   UNL     1      10.819  12.115  19.521  0.00  0.00    +0.000 A 
ATOM     27  O   UNL     1      11.514  11.629  20.411  0.00  0.00    +0.000 OA
ENDBRANCH  16  17
ENDBRANCH  15  16
ENDBRANCH   1  15
TORSDOF 8
ENDMDL
MODEL 4
REMARK VINA RESULT:      -7.4      2.437      4.584
REMARK  Name = 
REMARK  9 active torsions:
REMARK  status: ('A' for Active; 'I' for Inactive)
REMARK    1  A    between atoms: C_1  and  C_2
REMARK    2  A    between atoms: C_5  and  O_6
REMARK    3  A    between atoms: O_6  and  C_7
REMARK    4  A    between atoms: C_7  and  C_8
REMARK    5  A    between atoms: C_8  and  O_9
REMARK    6  A    between atoms: O_9  and  C_10
REMARK    7  A    between atoms: C_10  and  C_11
REMARK    8  A    between atoms: C_11  and  N_12
REMARK    9  A    between atoms: C_23  and  N_24
REMARK                            x       y       z     vdW  Elec       q    Type
REMARK                         _______ _______ _______ _____ _____    ______ ____
ROOT
ATOM      1  O   UNL     1       4.517   6.807  16.442  0.00  0.00    +0.000 OA
ENDROOT
BRANCH   1   2
ATOM      2  C   UNL     1       4.054   7.826  17.333  0.00  0.00    +0.000 C 
BRANCH   2   3
ATOM      3  C   UNL     1       2.658   7.588  17.917  0.00  0.00    +0.000 C 
BRANCH   3   4
ATOM      4  O   UNL     1       1.924   8.819  18.013  0.00  0.00    +0.000 OA
BRANCH   4   9
ATOM      5  C   UNL     1      -0.162   9.525  23.250  0.00  0.00    +0.000 C 
ATOM      6  C   UNL     1       0.291   9.280  21.843  0.00  0.00    +0.000 A 
ATOM      7  C   UNL     1       1.241   8.308  21.535  0.00  0.00    +0.000 A 
ATOM      8  C   UNL     1       1.725   8.180  20.229  0.00  0.00    +0.000 A 
ATOM      9  C   UNL     1       1.273   9.023  19.193  0.00  0.00    +0.000 A 
ATOM     10  C   UNL     1       0.226   9.913  19.481  0.00  0.00    +0.000 A 
ATOM     11  C   UNL     1      -0.246  10.046  20.801  0.00  0.00    +0.000 A 
BRANCH  10  12
ATOM     12  N   UNL     1      -0.473  10.709  18.462  0.00  0.00    +0.000 N 
ATOM     13  O   UNL     1      -0.230  11.918  18.367  0.00  0.00    +0.000 OA
ATOM     14  O   UNL     1      -1.269  10.109  17.723  0.00  0.00    +0.000 OA
ENDBRANCH  10  12
ENDBRANCH   4   9
ENDBRANCH   3   4
ENDBRANCH   2   3
ENDBRANCH   1   2
BRANCH   1  15
ATOM     15  C   UNL     1       5.806   6.260  16.719  0.00  0.00    +0.000 C 
BRANCH  15  16
ATOM     16  C   UNL     1       5.798   4.768  17.087  0.00  0.00    +0.000 C 
BRANCH  16  17
ATOM     17  N   UNL     1       4.524   4.337  17.652  0.00  0.00    +0.000 N 
ATOM     18  C   UNL     1       3.612   3.716  16.831  0.00  0.00    +0.000 A 
ATOM     19  N   UNL     1       2.469   3.252  17.205  0.00  0.00    +0.000 NA
ATOM     20  C   UNL     1       2.146   3.358  18.563  0.00  0.00    +0.000 A 
ATOM     21  C   UNL     1       0.963   2.767  19.011  0.00  0.00    +0.000 A 
ATOM     22  C   UNL     1       0.634   2.779  20.368  0.00  0.00    +0.000 A 
ATOM     23  C   UNL     1       1.474   3.410  21.288  0.00  0.00    +0.000 A 
ATOM     24  C   UNL     1       2.643   4.033  20.847  0.00  0.00    +0.000 A 
ATOM     25  C   UNL     1       2.980   3.987  19.490  0.00  0.00    +0.000 A 
ATOM     26  C   UNL     1       4.260   4.541  19.000  0.00  0.00    +0.000 A 
ATOM     27  O   UNL     1       5.017   5.109  19.785  0.00  0.00    +0.000 OA
ENDBRANCH  16  17
ENDBRANCH  15  16
ENDBRANCH   1  15
TORSDOF 8
ENDMDL
MODEL 5
REMARK VINA RESULT:      -7.3      2.590      8.543
REMARK  Name = 
REMARK  9 active torsions:
REMARK  status: ('A' for Active; 'I' for Inactive)
REMARK    1  A    between atoms: C_1  and  C_2
REMARK    2  A    between atoms: C_5  and  O_6
REMARK    3  A    between atoms: O_6  and  C_7
REMARK    4  A    between atoms: C_7  and  C_8
REMARK    5  A    between atoms: C_8  and  O_9
REMARK    6  A    between atoms: O_9  and  C_10
REMARK    7  A    between atoms: C_10  and  C_11
REMARK    8  A    between atoms: C_11  and  N_12
REMARK    9  A    between atoms: C_23  and  N_24
REMARK                            x       y       z     vdW  Elec       q    Type
REMARK                         _______ _______ _______ _____ _____    ______ ____
ROOT
ATOM      1  O   UNL     1       1.897   5.725  19.851  0.00  0.00    +0.000 OA
ENDROOT
BRANCH   1   2
ATOM      2  C   UNL     1       2.347   4.474  20.380  0.00  0.00    +0.000 C 
BRANCH   2   3
ATOM      3  C   UNL     1       3.693   3.987  19.833  0.00  0.00    +0.000 C 
BRANCH   3   4
ATOM      4  O   UNL     1       4.550   5.094  19.516  0.00  0.00    +0.000 OA
BRANCH   4   9
ATOM      5  C   UNL     1       6.845   4.692  14.334  0.00  0.00    +0.000 C 
ATOM      6  C   UNL     1       6.308   4.709  15.733  0.00  0.00    +0.000 A 
ATOM      7  C   UNL     1       5.060   4.176  16.048  0.00  0.00    +0.000 A 
ATOM      8  C   UNL     1       4.539   4.307  17.339  0.00  0.00    +0.000 A 
ATOM      9  C   UNL     1       5.252   4.978  18.354  0.00  0.00    +0.000 A 
ATOM     10  C   UNL     1       6.560   5.401  18.065  0.00  0.00    +0.000 A 
ATOM     11  C   UNL     1       7.072   5.278  16.759  0.00  0.00    +0.000 A 
BRANCH  10  12
ATOM     12  N   UNL     1       7.486   5.936  19.074  0.00  0.00    +0.000 N 
ATOM     13  O   UNL     1       7.563   5.383  20.178  0.00  0.00    +0.000 OA
ATOM     14  O   UNL     1       8.170   6.919  18.750  0.00  0.00    +0.000 OA
ENDBRANCH  10  12
ENDBRANCH   4   9
ENDBRANCH   3   4
ENDBRANCH   2   3
ENDBRANCH   1   2
BRANCH   1  15
ATOM     15  C   UNL     1       1.643   6.760  20.800  0.00  0.00    +0.000 C 
BRANCH  15  16
ATOM     16  C   UNL     1       1.639   8.179  20.209  0.00  0.00    +0.000 C 
BRANCH  16  17
ATOM     17  N   UNL     1       0.760   9.087  20.938  0.00  0.00    +0.000 N 
ATOM     18  C   UNL     1       0.767   9.054  22.313  0.00  0.00    +0.000 A 
ATOM     19  N   UNL     1       0.072   9.823  23.079  0.00  0.00    +0.000 NA
ATOM     20  C   UNL     1      -0.727  10.793  22.462  0.00  0.00    +0.000 A 
ATOM     21  C   UNL     1      -1.403  11.707  23.271  0.00  0.00    +0.000 A 
ATOM     22  C   UNL     1      -2.150  12.740  22.702  0.00  0.00    +0.000 A 
ATOM     23  C   UNL     1      -2.252  12.850  21.314  0.00  0.00    +0.000 A 
ATOM     24  C   UNL     1      -1.607  11.923  20.495  0.00  0.00    +0.000 A 
ATOM     25  C   UNL     1      -0.833  10.911  21.074  0.00  0.00    +0.000 A 
ATOM     26  C   UNL     1      -0.050   9.974  20.241  0.00  0.00    +0.000 A 
ATOM     27  O   UNL     1      -0.124  10.042  19.016  0.00  0.00    +0.000 OA
ENDBRANCH  16  17
ENDBRANCH  15  16
ENDBRANCH   1  15
TORSDOF 8
ENDMDL
MODEL 6
REMARK VINA RESULT:      -7.3      1.592      2.125
REMARK  Name = 
REMARK  9 active torsions:
REMARK  status: ('A' for Active; 'I' for Inactive)
REMARK    1  A    between atoms: C_1  and  C_2
REMARK    2  A    between atoms: C_5  and  O_6
REMARK    3  A    between atoms: O_6  and  C_7
REMARK    4  A    between atoms: C_7  and  C_8
REMARK    5  A    between atoms: C_8  and  O_9
REMARK    6  A    between atoms: O_9  and  C_10
REMARK    7  A    between atoms: C_10  and  C_11
REMARK    8  A    between atoms: C_11  and  N_12
REMARK    9  A    between atoms: C_23  and  N_24
REMARK                            x       y       z     vdW  Elec       q    Type
REMARK                         _______ _______ _______ _____ _____    ______ ____
ROOT
ATOM      1  O   UNL     1       1.373   4.178  20.149  0.00  0.00    +0.000 OA
ENDROOT
BRANCH   1   2
ATOM      2  C   UNL     1       1.968   5.282  20.838  0.00  0.00    +0.000 C 
BRANCH   2   3
ATOM      3  C   UNL     1       1.716   6.653  20.203  0.00  0.00    +0.000 C 
BRANCH   3   4
ATOM      4  O   UNL     1       1.348   7.620  21.198  0.00  0.00    +0.000 OA
BRANCH   4   9
ATOM      5  C   UNL     1      -0.355  12.361  18.571  0.00  0.00    +0.000 C 
ATOM      6  C   UNL     1       0.179  11.174  19.313  0.00  0.00    +0.000 A 
ATOM      7  C   UNL     1       0.949  10.199  18.684  0.00  0.00    +0.000 A 
ATOM      8  C   UNL     1       1.338   9.047  19.375  0.00  0.00    +0.000 A 
ATOM      9  C   UNL     1       0.965   8.837  20.719  0.00  0.00    +0.000 A 
ATOM     10  C   UNL     1       0.298   9.879  21.385  0.00  0.00    +0.000 A 
ATOM     11  C   UNL     1      -0.102  11.029  20.677  0.00  0.00    +0.000 A 
BRANCH  10  12
ATOM     12  N   UNL     1       0.021   9.880  22.828  0.00  0.00    +0.000 N 
ATOM     13  O   UNL     1       0.932   9.606  23.618  0.00  0.00    +0.000 OA
ATOM     14  O   UNL     1      -1.128  10.183  23.184  0.00  0.00    +0.000 OA
ENDBRANCH  10  12
ENDBRANCH   4   9
ENDBRANCH   3   4
ENDBRANCH   2   3
ENDBRANCH   1   2
BRANCH   1  15
ATOM     15  C   UNL     1       2.186   3.016  19.991  0.00  0.00    +0.000 C 
BRANCH  15  16
ATOM     16  C   UNL     1       2.725   2.806  18.567  0.00  0.00    +0.000 C 
BRANCH  16  17
ATOM     17  N   UNL     1       3.761   3.771  18.212  0.00  0.00    +0.000 N 
ATOM     18  C   UNL     1       3.538   4.625  17.158  0.00  0.00    +0.000 A 
ATOM     19  N   UNL     1       4.347   5.548  16.764  0.00  0.00    +0.000 NA
ATOM     20  C   UNL     1       5.532   5.715  17.489  0.00  0.00    +0.000 A 
ATOM     21  C   UNL     1       6.373   6.777  17.148  0.00  0.00    +0.000 A 
ATOM     22  C   UNL     1       7.528   7.032  17.890  0.00  0.00    +0.000 A 
ATOM     23  C   UNL     1       7.869   6.207  18.964  0.00  0.00    +0.000 A 
ATOM     24  C   UNL     1       7.054   5.123  19.293  0.00  0.00    +0.000 A 
ATOM     25  C   UNL     1       5.881   4.896  18.564  0.00  0.00    +0.000 A 
ATOM     26  C   UNL     1       4.938   3.824  18.948  0.00  0.00    +0.000 A 
ATOM     27  O   UNL     1       5.214   3.077  19.885  0.00  0.00    +0.000 OA
ENDBRANCH  16  17
ENDBRANCH  15  16
ENDBRANCH   1  15
TORSDOF 8
ENDMDL
MODEL 7
REMARK VINA RESULT:      -7.3      2.715      9.055
REMARK  Name = 
REMARK  9 active torsions:
REMARK  status: ('A' for Active; 'I' for Inactive)
REMARK    1  A    between atoms: C_1  and  C_2
REMARK    2  A    between atoms: C_5  and  O_6
REMARK    3  A    between atoms: O_6  and  C_7
REMARK    4  A    between atoms: C_7  and  C_8
REMARK    5  A    between atoms: C_8  and  O_9
REMARK    6  A    between atoms: O_9  and  C_10
REMARK    7  A    between atoms: C_10  and  C_11
REMARK    8  A    between atoms: C_11  and  N_12
REMARK    9  A    between atoms: C_23  and  N_24
REMARK                            x       y       z     vdW  Elec       q    Type
REMARK                         _______ _______ _______ _____ _____    ______ ____
ROOT
ATOM      1  O   UNL     1       2.710   6.781  20.239  0.00  0.00    +0.000 OA
ENDROOT
BRANCH   1   2
ATOM      2  C   UNL     1       2.312   5.522  19.689  0.00  0.00    +0.000 C 
BRANCH   2   3
ATOM      3  C   UNL     1       3.460   4.546  19.410  0.00  0.00    +0.000 C 
BRANCH   3   4
ATOM      4  O   UNL     1       4.709   5.242  19.291  0.00  0.00    +0.000 OA
BRANCH   4   9
ATOM      5  C   UNL     1       6.845   4.554  14.071  0.00  0.00    +0.000 C 
ATOM      6  C   UNL     1       6.348   4.646  15.482  0.00  0.00    +0.000 A 
ATOM      7  C   UNL     1       5.094   4.165  15.853  0.00  0.00    +0.000 A 
ATOM      8  C   UNL     1       4.614   4.366  17.151  0.00  0.00    +0.000 A 
ATOM      9  C   UNL     1       5.375   5.056  18.116  0.00  0.00    +0.000 A 
ATOM     10  C   UNL     1       6.686   5.426  17.776  0.00  0.00    +0.000 A 
ATOM     11  C   UNL     1       7.158   5.233  16.463  0.00  0.00    +0.000 A 
BRANCH  10  12
ATOM     12  N   UNL     1       7.655   5.973  18.735  0.00  0.00    +0.000 N 
ATOM     13  O   UNL     1       8.117   7.106  18.549  0.00  0.00    +0.000 OA
ATOM     14  O   UNL     1       7.948   5.265  19.711  0.00  0.00    +0.000 OA
ENDBRANCH  10  12
ENDBRANCH   4   9
ENDBRANCH   3   4
ENDBRANCH   2   3
ENDBRANCH   1   2
BRANCH   1  15
ATOM     15  C   UNL     1       1.783   7.856  20.098  0.00  0.00    +0.000 C 
BRANCH  15  16
ATOM     16  C   UNL     1       1.174   8.350  21.421  0.00  0.00    +0.000 C 
BRANCH  16  17
ATOM     17  N   UNL     1       0.356   9.545  21.249  0.00  0.00    +0.000 N 
ATOM     18  C   UNL     1       0.065   9.970  19.974  0.00  0.00    +0.000 A 
ATOM     19  N   UNL     1      -0.676  10.983  19.678  0.00  0.00    +0.000 NA
ATOM     20  C   UNL     1      -1.257  11.685  20.740  0.00  0.00    +0.000 A 
ATOM     21  C   UNL     1      -2.149  12.718  20.443  0.00  0.00    +0.000 A 
ATOM     22  C   UNL     1      -2.813  13.397  21.466  0.00  0.00    +0.000 A 
ATOM     23  C   UNL     1      -2.569  13.068  22.801  0.00  0.00    +0.000 A 
ATOM     24  C   UNL     1      -1.655  12.060  23.111  0.00  0.00    +0.000 A 
ATOM     25  C   UNL     1      -1.019  11.363  22.078  0.00  0.00    +0.000 A 
ATOM     26  C   UNL     1      -0.127  10.219  22.363  0.00  0.00    +0.000 A 
ATOM     27  O   UNL     1       0.113   9.911  23.528  0.00  0.00    +0.000 OA
ENDBRANCH  16  17
ENDBRANCH  15  16
ENDBRANCH   1  15
TORSDOF 8
ENDMDL
MODEL 8
REMARK VINA RESULT:      -7.2      7.112      9.847
REMARK  Name = 
REMARK  9 active torsions:
REMARK  status: ('A' for Active; 'I' for Inactive)
REMARK    1  A    between atoms: C_1  and  C_2
REMARK    2  A    between atoms: C_5  and  O_6
REMARK    3  A    between atoms: O_6  and  C_7
REMARK    4  A    between atoms: C_7  and  C_8
REMARK    5  A    between atoms: C_8  and  O_9
REMARK    6  A    between atoms: O_9  and  C_10
REMARK    7  A    between atoms: C_10  and  C_11
REMARK    8  A    between atoms: C_11  and  N_12
REMARK    9  A    between atoms: C_23  and  N_24
REMARK                            x       y       z     vdW  Elec       q    Type
REMARK                         _______ _______ _______ _____ _____    ______ ____
ROOT
ATOM      1  O   UNL     1       7.884   9.247  17.982  0.00  0.00    +0.000 OA
ENDROOT
BRANCH   1   2
ATOM      2  C   UNL     1       7.724   7.899  17.532  0.00  0.00    +0.000 C 
BRANCH   2   3
ATOM      3  C   UNL     1       7.979   6.827  18.597  0.00  0.00    +0.000 C 
BRANCH   3   4
ATOM      4  O   UNL     1       7.682   5.517  18.089  0.00  0.00    +0.000 OA
BRANCH   4   9
ATOM      5  C   UNL     1       2.051   4.759  18.091  0.00  0.00    +0.000 C 
ATOM      6  C   UNL     1       3.548   4.843  18.077  0.00  0.00    +0.000 A 
ATOM      7  C   UNL     1       4.284   5.024  19.246  0.00  0.00    +0.000 A 
ATOM      8  C   UNL     1       5.669   5.211  19.190  0.00  0.00    +0.000 A 
ATOM      9  C   UNL     1       6.357   5.225  17.959  0.00  0.00    +0.000 A 
ATOM     10  C   UNL     1       5.631   4.917  16.797  0.00  0.00    +0.000 A 
ATOM     11  C   UNL     1       4.234   4.743  16.861  0.00  0.00    +0.000 A 
BRANCH  10  12
ATOM     12  N   UNL     1       6.248   4.705  15.481  0.00  0.00    +0.000 N 
ATOM     13  O   UNL     1       6.777   5.660  14.900  0.00  0.00    +0.000 OA
ATOM     14  O   UNL     1       6.223   3.552  15.023  0.00  0.00    +0.000 OA
ENDBRANCH  10  12
ENDBRANCH   4   9
ENDBRANCH   3   4
ENDBRANCH   2   3
ENDBRANCH   1   2
BRANCH   1  15
ATOM     15  C   UNL     1       9.113   9.555  18.638  0.00  0.00    +0.000 C 
BRANCH  15  16
ATOM     16  C   UNL     1       9.058  10.799  19.540  0.00  0.00    +0.000 C 
BRANCH  16  17
ATOM     17  N   UNL     1       9.666  11.970  18.917  0.00  0.00    +0.000 N 
ATOM     18  C   UNL     1      10.547  11.783  17.877  0.00  0.00    +0.000 A 
ATOM     19  N   UNL     1      11.124  12.726  17.213  0.00  0.00    +0.000 NA
ATOM     20  C   UNL     1      10.800  14.044  17.555  0.00  0.00    +0.000 A 
ATOM     21  C   UNL     1      11.328  15.078  16.780  0.00  0.00    +0.000 A 
ATOM     22  C   UNL     1      10.973  16.405  17.032  0.00  0.00    +0.000 A 
ATOM     23  C   UNL     1      10.108  16.712  18.085  0.00  0.00    +0.000 A 
ATOM     24  C   UNL     1       9.600  15.689  18.887  0.00  0.00    +0.000 A 
ATOM     25  C   UNL     1       9.935  14.360  18.605  0.00  0.00    +0.000 A 
ATOM     26  C   UNL     1       9.335  13.242  19.363  0.00  0.00    +0.000 A 
ATOM     27  O   UNL     1       8.575  13.481  20.300  0.00  0.00    +0.000 OA
ENDBRANCH  16  17
ENDBRANCH  15  16
ENDBRANCH   1  15
TORSDOF 8
ENDMDL
MODEL 9
REMARK VINA RESULT:      -7.2      2.148      3.017
REMARK  Name = 
REMARK  9 active torsions:
REMARK  status: ('A' for Active; 'I' for Inactive)
REMARK    1  A    between atoms: C_1  and  C_2
REMARK    2  A    between atoms: C_5  and  O_6
REMARK    3  A    between atoms: O_6  and  C_7
REMARK    4  A    between atoms: C_7  and  C_8
REMARK    5  A    between atoms: C_8  and  O_9
REMARK    6  A    between atoms: O_9  and  C_10
REMARK    7  A    between atoms: C_10  and  C_11
REMARK    8  A    between atoms: C_11  and  N_12
REMARK    9  A    between atoms: C_23  and  N_24
REMARK                            x       y       z     vdW  Elec       q    Type
REMARK                         _______ _______ _______ _____ _____    ______ ____
ROOT
ATOM      1  O   UNL     1       1.304   4.096  20.147  0.00  0.00    +0.000 OA
ENDROOT
BRANCH   1   2
ATOM      2  C   UNL     1       1.795   5.364  20.589  0.00  0.00    +0.000 C 
BRANCH   2   3
ATOM      3  C   UNL     1       1.765   6.474  19.533  0.00  0.00    +0.000 C 
BRANCH   3   4
ATOM      4  O   UNL     1       2.323   7.691  20.050  0.00  0.00    +0.000 OA
BRANCH   4   9
ATOM      5  C   UNL     1      -1.076  11.578  22.422  0.00  0.00    +0.000 C 
ATOM      6  C   UNL     1      -0.276  10.499  21.757  0.00  0.00    +0.000 A 
ATOM      7  C   UNL     1       0.298   9.456  22.482  0.00  0.00    +0.000 A 
ATOM      8  C   UNL     1       1.132   8.529  21.850  0.00  0.00    +0.000 A 
ATOM      9  C   UNL     1       1.418   8.619  20.472  0.00  0.00    +0.000 A 
ATOM     10  C   UNL     1       0.738   9.594  19.723  0.00  0.00    +0.000 A 
ATOM     11  C   UNL     1      -0.089  10.533  20.370  0.00  0.00    +0.000 A 
BRANCH  10  12
ATOM     12  N   UNL     1       0.787   9.679  18.257  0.00  0.00    +0.000 N 
ATOM     13  O   UNL     1       1.885   9.707  17.689  0.00  0.00    +0.000 OA
ATOM     14  O   UNL     1      -0.298   9.695  17.654  0.00  0.00    +0.000 OA
ENDBRANCH  10  12
ENDBRANCH   4   9
ENDBRANCH   3   4
ENDBRANCH   2   3
ENDBRANCH   1   2
BRANCH   1  15
ATOM     15  C   UNL     1       2.251   3.030  20.102  0.00  0.00    +0.000 C 
BRANCH  15  16
ATOM     16  C   UNL     1       2.809   2.732  18.700  0.00  0.00    +0.000 C 
BRANCH  16  17
ATOM     17  N   UNL     1       3.808   3.708  18.277  0.00  0.00    +0.000 N 
ATOM     18  C   UNL     1       3.543   4.493  17.179  0.00  0.00    +0.000 A 
ATOM     19  N   UNL     1       4.316   5.417  16.721  0.00  0.00    +0.000 NA
ATOM     20  C   UNL     1       5.504   5.664  17.418  0.00  0.00    +0.000 A 
ATOM     21  C   UNL     1       6.305   6.731  17.006  0.00  0.00    +0.000 A 
ATOM     22  C   UNL     1       7.460   7.066  17.715  0.00  0.00    +0.000 A 
ATOM     23  C   UNL     1       7.842   6.315  18.829  0.00  0.00    +0.000 A 
ATOM     24  C   UNL     1       7.067   5.226  19.231  0.00  0.00    +0.000 A 
ATOM     25  C   UNL     1       5.893   4.919  18.534  0.00  0.00    +0.000 A 
ATOM     26  C   UNL     1       4.991   3.841  18.991  0.00  0.00    +0.000 A 
ATOM     27  O   UNL     1       5.304   3.159  19.965  0.00  0.00    +0.000 OA
ENDBRANCH  16  17
ENDBRANCH  15  16
ENDBRANCH   1  15
TORSDOF 8
ENDMDL
