MODEL 1
REMARK VINA RESULT:      -7.9      0.000      0.000
REMARK  Name = 
REMARK  8 active torsions:
REMARK  status: ('A' for Active; 'I' for Inactive)
REMARK    1  A    between atoms: C_1  and  C_2
REMARK    2  A    between atoms: C_2  and  C_3
REMARK    3  A    between atoms: C_3  and  O_4
REMARK    4  A    between atoms: O_4  and  C_5
REMARK    5  A    between atoms: C_7  and  O_8
REMARK    6  A    between atoms: C_13  and  C_14
REMARK    7  A    between atoms: C_17  and  O_18
REMARK    8  A    between atoms: C_19  and  O_20
REMARK                            x       y       z     vdW  Elec       q    Type
REMARK                         _______ _______ _______ _____ _____    ______ ____
ROOT
ATOM      1  C   UNL     1      -0.051  10.300  21.853  0.00  0.00    +0.000 A 
ATOM      2  C   UNL     1      -0.041  11.107  20.715  0.00  0.00    +0.000 A 
ATOM      3  C   UNL     1       0.577  10.674  19.540  0.00  0.00    +0.000 A 
ATOM      4  C   UNL     1       1.195   9.421  19.489  0.00  0.00    +0.000 A 
ATOM      5  C   UNL     1       1.868   8.916  18.274  0.00  0.00    +0.000 A 
ATOM      6  O   UNL     1       1.950   9.527  17.217  0.00  0.00    +0.000 OA
ATOM      7  C   UNL     1       2.479   7.585  18.372  0.00  0.00    +0.000 A 
ATOM      8  C   UNL     1       2.419   6.901  19.521  0.00  0.00    +0.000 A 
ATOM      9  O   UNL     1       1.770   7.361  20.659  0.00  0.00    +0.000 OA
ATOM     10  C   UNL     1       1.184   8.606  20.624  0.00  0.00    +0.000 A 
ATOM     11  C   UNL     1       0.560   9.044  21.800  0.00  0.00    +0.000 A 
ENDROOT
BRANCH   8  12
ATOM     12  C   UNL     1       3.051   5.567  19.647  0.00  0.00    +0.000 A 
ATOM     13  C   UNL     1       2.393   4.521  20.321  0.00  0.00    +0.000 A 
ATOM     14  C   UNL     1       2.981   3.254  20.448  0.00  0.00    +0.000 A 
ATOM     15  C   UNL     1       4.236   3.030  19.899  0.00  0.00    +0.000 A 
ATOM     16  C   UNL     1       4.899   4.053  19.233  0.00  0.00    +0.000 A 
ATOM     17  C   UNL     1       4.325   5.312  19.109  0.00  0.00    +0.000 A 
BRANCH  15  18
ATOM     18  O   UNL     1       4.865   1.820  19.988  0.00  0.00    +0.000 OA
ATOM     19  H   UNL     1       4.906   1.433  19.096  0.00  0.00    +0.000 HD
ENDBRANCH  15  18
BRANCH  16  20
ATOM     20  O   UNL     1       6.133   3.833  18.691  0.00  0.00    +0.000 OA
ATOM     21  H   UNL     1       6.096   2.913  18.361  0.00  0.00    +0.000 HD
ENDBRANCH  16  20
ENDBRANCH   8  12
BRANCH   3  22
ATOM     22  O   UNL     1       0.565  11.497  18.452  0.00  0.00    +0.000 OA
ATOM     23  H   UNL     1      -0.088  11.200  17.799  0.00  0.00    +0.000 HD
ENDBRANCH   3  22
BRANCH   1  24
ATOM     24  O   UNL     1      -0.625  10.640  23.053  0.00  0.00    +0.000 OA
BRANCH  24  25
ATOM     25  C   UNL     1      -1.173  11.961  23.128  0.00  0.00    +0.000 C 
BRANCH  25  27
ATOM     26  C   UNL     1      -3.401  12.662  22.223  0.00  0.00    +0.000 C 
ATOM     27  C   UNL     1      -2.683  11.892  23.321  0.00  0.00    +0.000 C 
ENDBRANCH  25  27
ENDBRANCH  24  25
ENDBRANCH   1  24
TORSDOF 7
ENDMDL
MODEL 2
REMARK VINA RESULT:      -7.8      2.721      8.618
REMARK  Name = 
REMARK  8 active torsions:
REMARK  status: ('A' for Active; 'I' for Inactive)
REMARK    1  A    between atoms: C_1  and  C_2
REMARK    2  A    between atoms: C_2  and  C_3
REMARK    3  A    between atoms: C_3  and  O_4
REMARK    4  A    between atoms: O_4  and  C_5
REMARK    5  A    between atoms: C_7  and  O_8
REMARK    6  A    between atoms: C_13  and  C_14
REMARK    7  A    between atoms: C_17  and  O_18
REMARK    8  A    between atoms: C_19  and  O_20
REMARK                            x       y       z     vdW  Elec       q    Type
REMARK                         _______ _______ _______ _____ _____    ______ ____
ROOT
ATOM      1  C   UNL     1       5.309   5.440  16.262  0.00  0.00    +0.000 A 
ATOM      2  C   UNL     1       5.193   4.143  16.763  0.00  0.00    +0.000 A 
ATOM      3  C   UNL     1       4.371   3.875  17.859  0.00  0.00    +0.000 A 
ATOM      4  C   UNL     1       3.653   4.906  18.472  0.00  0.00    +0.000 A 
ATOM      5  C   UNL     1       2.775   4.677  19.638  0.00  0.00    +0.000 A 
ATOM      6  O   UNL     1       2.591   3.592  20.172  0.00  0.00    +0.000 OA
ATOM      7  C   UNL     1       2.090   5.857  20.179  0.00  0.00    +0.000 A 
ATOM      8  C   UNL     1       2.285   7.061  19.626  0.00  0.00    +0.000 A 
ATOM      9  O   UNL     1       3.092   7.278  18.518  0.00  0.00    +0.000 OA
ATOM     10  C   UNL     1       3.763   6.206  17.973  0.00  0.00    +0.000 A 
ATOM     11  C   UNL     1       4.586   6.471  16.870  0.00  0.00    +0.000 A 
ENDROOT
BRANCH   8  12
ATOM     12  C   UNL     1       1.622   8.268  20.174  0.00  0.00    +0.000 A 
ATOM     13  C   UNL     1       1.193   9.301  19.320  0.00  0.00    +0.000 A 
ATOM     14  C   UNL     1       0.564  10.448  19.825  0.00  0.00    +0.000 A 
ATOM     15  C   UNL     1       0.365  10.566  21.194  0.00  0.00    +0.000 A 
ATOM     16  C   UNL     1       0.786   9.555  22.049  0.00  0.00    +0.000 A 
ATOM     17  C   UNL     1       1.414   8.420  21.556  0.00  0.00    +0.000 A 
BRANCH  15  18
ATOM     18  O   UNL     1      -0.239  11.657  21.751  0.00  0.00    +0.000 OA
ATOM     19  H   UNL     1      -0.853  12.031  21.097  0.00  0.00    +0.000 HD
ENDBRANCH  15  18
BRANCH  16  20
ATOM     20  O   UNL     1       0.589   9.669  23.396  0.00  0.00    +0.000 OA
ATOM     21  H   UNL     1       1.111   8.940  23.784  0.00  0.00    +0.000 HD
ENDBRANCH  16  20
ENDBRANCH   8  12
BRANCH   3  22
ATOM     22  O   UNL     1       4.288   2.591  18.316  0.00  0.00    +0.000 OA
ATOM     23  H   UNL     1       4.961   2.419  18.993  0.00  0.00    +0.000 HD
ENDBRANCH   3  22
BRANCH   1  24
ATOM     24  O   UNL     1       6.095   5.804  15.196  0.00  0.00    +0.000 OA
BRANCH  24  25
ATOM     25  C   UNL     1       7.071   4.840  14.786  0.00  0.00    +0.000 C 
BRANCH  25  27
ATOM     26  C   UNL     1       5.905   3.589  12.955  0.00  0.00    +0.000 C 
ATOM     27  C   UNL     1       6.983   4.612  13.282  0.00  0.00    +0.000 C 
ENDBRANCH  25  27
ENDBRANCH  24  25
ENDBRANCH   1  24
TORSDOF 7
ENDMDL
MODEL 3
REMARK VINA RESULT:      -7.8      5.205      9.955
REMARK  Name = 
REMARK  8 active torsions:
REMARK  status: ('A' for Active; 'I' for Inactive)
REMARK    1  A    between atoms: C_1  and  C_2
REMARK    2  A    between atoms: C_2  and  C_3
REMARK    3  A    between atoms: C_3  and  O_4
REMARK    4  A    between atoms: O_4  and  C_5
REMARK    5  A    between atoms: C_7  and  O_8
REMARK    6  A    between atoms: C_13  and  C_14
REMARK    7  A    between atoms: C_17  and  O_18
REMARK    8  A    between atoms: C_19  and  O_20
REMARK                            x       y       z     vdW  Elec       q    Type
REMARK                         _______ _______ _______ _____ _____    ______ ____
ROOT
ATOM      1  C   UNL     1       6.283   3.650  12.292  0.00  0.00    +0.000 A 
ATOM      2  C   UNL     1       7.390   4.475  12.494  0.00  0.00    +0.000 A 
ATOM      3  C   UNL     1       7.569   5.142  13.707  0.00  0.00    +0.000 A 
ATOM      4  C   UNL     1       6.638   4.990  14.739  0.00  0.00    +0.000 A 
ATOM      5  C   UNL     1       6.777   5.677  16.040  0.00  0.00    +0.000 A 
ATOM      6  O   UNL     1       7.695   6.427  16.340  0.00  0.00    +0.000 OA
ATOM      7  C   UNL     1       5.717   5.428  17.025  0.00  0.00    +0.000 A 
ATOM      8  C   UNL     1       4.690   4.625  16.720  0.00  0.00    +0.000 A 
ATOM      9  O   UNL     1       4.566   3.961  15.507  0.00  0.00    +0.000 OA
ATOM     10  C   UNL     1       5.530   4.163  14.544  0.00  0.00    +0.000 A 
ATOM     11  C   UNL     1       5.356   3.493  13.325  0.00  0.00    +0.000 A 
ENDROOT
BRANCH   8  12
ATOM     12  C   UNL     1       3.598   4.381  17.691  0.00  0.00    +0.000 A 
ATOM     13  C   UNL     1       2.598   3.428  17.422  0.00  0.00    +0.000 A 
ATOM     14  C   UNL     1       1.558   3.188  18.332  0.00  0.00    +0.000 A 
ATOM     15  C   UNL     1       1.517   3.906  19.520  0.00  0.00    +0.000 A 
ATOM     16  C   UNL     1       2.496   4.852  19.797  0.00  0.00    +0.000 A 
ATOM     17  C   UNL     1       3.524   5.099  18.898  0.00  0.00    +0.000 A 
BRANCH  15  18
ATOM     18  O   UNL     1       0.532   3.722  20.449  0.00  0.00    +0.000 OA
ATOM     19  H   UNL     1       0.764   2.945  20.986  0.00  0.00    +0.000 HD
ENDBRANCH  15  18
BRANCH  16  20
ATOM     20  O   UNL     1       2.457   5.557  20.966  0.00  0.00    +0.000 OA
ATOM     21  H   UNL     1       2.621   6.483  20.701  0.00  0.00    +0.000 HD
ENDBRANCH  16  20
ENDBRANCH   8  12
BRANCH   3  22
ATOM     22  O   UNL     1       8.666   5.940  13.861  0.00  0.00    +0.000 OA
ATOM     23  H   UNL     1       8.699   6.621  13.172  0.00  0.00    +0.000 HD
ENDBRANCH   3  22
BRANCH   1  24
ATOM     24  O   UNL     1       6.017   2.961  11.134  0.00  0.00    +0.000 OA
BRANCH  24  25
ATOM     25  C   UNL     1       5.468   1.650  11.304  0.00  0.00    +0.000 C 
BRANCH  25  27
ATOM     26  C   UNL     1       6.020  -0.792  11.390  0.00  0.00    +0.000 C 
ATOM     27  C   UNL     1       6.537   0.596  11.042  0.00  0.00    +0.000 C 
ENDBRANCH  25  27
ENDBRANCH  24  25
ENDBRANCH   1  24
TORSDOF 7
ENDMDL
MODEL 4
REMARK VINA RESULT:      -7.7      5.355      9.918
REMARK  Name = 
REMARK  8 active torsions:
REMARK  status: ('A' for Active; 'I' for Inactive)
REMARK    1  A    between atoms: C_1  and  C_2
REMARK    2  A    between atoms: C_2  and  C_3
REMARK    3  A    between atoms: C_3  and  O_4
REMARK    4  A    between atoms: O_4  and  C_5
REMARK    5  A    between atoms: C_7  and  O_8
REMARK    6  A    between atoms: C_13  and  C_14
REMARK    7  A    between atoms: C_17  and  O_18
REMARK    8  A    between atoms: C_19  and  O_20
REMARK                            x       y       z     vdW  Elec       q    Type
REMARK                         _______ _______ _______ _____ _____    ______ ____
ROOT
ATOM      1  C   UNL     1       6.173   3.729  12.352  0.00  0.00    +0.000 A 
ATOM      2  C   UNL     1       7.306   4.524  12.525  0.00  0.00    +0.000 A 
ATOM      3  C   UNL     1       7.539   5.177  13.737  0.00  0.00    +0.000 A 
ATOM      4  C   UNL     1       6.637   5.040  14.796  0.00  0.00    +0.000 A 
ATOM      5  C   UNL     1       6.832   5.713  16.097  0.00  0.00    +0.000 A 
ATOM      6  O   UNL     1       7.779   6.438  16.373  0.00  0.00    +0.000 OA
ATOM      7  C   UNL     1       5.798   5.483  17.113  0.00  0.00    +0.000 A 
ATOM      8  C   UNL     1       4.742   4.708  16.834  0.00  0.00    +0.000 A 
ATOM      9  O   UNL     1       4.564   4.057  15.621  0.00  0.00    +0.000 OA
ATOM     10  C   UNL     1       5.503   4.242  14.630  0.00  0.00    +0.000 A 
ATOM     11  C   UNL     1       5.274   3.587  13.413  0.00  0.00    +0.000 A 
ENDROOT
BRANCH   8  12
ATOM     12  C   UNL     1       3.675   4.484  17.837  0.00  0.00    +0.000 A 
ATOM     13  C   UNL     1       3.664   5.202  19.046  0.00  0.00    +0.000 A 
ATOM     14  C   UNL     1       2.661   4.999  20.005  0.00  0.00    +0.000 A 
ATOM     15  C   UNL     1       1.662   4.068  19.753  0.00  0.00    +0.000 A 
ATOM     16  C   UNL     1       1.661   3.349  18.565  0.00  0.00    +0.000 A 
ATOM     17  C   UNL     1       2.655   3.542  17.615  0.00  0.00    +0.000 A 
BRANCH  15  18
ATOM     18  O   UNL     1       0.656   3.821  20.644  0.00  0.00    +0.000 OA
ATOM     19  H   UNL     1       0.769   2.918  20.987  0.00  0.00    +0.000 HD
ENDBRANCH  15  18
BRANCH  16  20
ATOM     20  O   UNL     1       0.677   2.436  18.316  0.00  0.00    +0.000 OA
ATOM     21  H   UNL     1       0.057   2.898  17.717  0.00  0.00    +0.000 HD
ENDBRANCH  16  20
ENDBRANCH   8  12
BRANCH   3  22
ATOM     22  O   UNL     1       8.659   5.946  13.862  0.00  0.00    +0.000 OA
ATOM     23  H   UNL     1       9.231   5.856  13.084  0.00  0.00    +0.000 HD
ENDBRANCH   3  22
BRANCH   1  24
ATOM     24  O   UNL     1       5.854   3.056  11.198  0.00  0.00    +0.000 OA
BRANCH  24  25
ATOM     25  C   UNL     1       5.389   1.712  11.371  0.00  0.00    +0.000 C 
BRANCH  25  27
ATOM     26  C   UNL     1       6.064  -0.700  11.352  0.00  0.00    +0.000 C 
ATOM     27  C   UNL     1       6.512   0.727  11.074  0.00  0.00    +0.000 C 
ENDBRANCH  25  27
ENDBRANCH  24  25
ENDBRANCH   1  24
TORSDOF 7
ENDMDL
MODEL 5
REMARK VINA RESULT:      -7.7      5.452      9.366
REMARK  Name = 
REMARK  8 active torsions:
REMARK  status: ('A' for Active; 'I' for Inactive)
REMARK    1  A    between atoms: C_1  and  C_2
REMARK    2  A    between atoms: C_2  and  C_3
REMARK    3  A    between atoms: C_3  and  O_4
REMARK    4  A    between atoms: O_4  and  C_5
REMARK    5  A    between atoms: C_7  and  O_8
REMARK    6  A    between atoms: C_13  and  C_14
REMARK    7  A    between atoms: C_17  and  O_18
REMARK    8  A    between atoms: C_19  and  O_20
REMARK                            x       y       z     vdW  Elec       q    Type
REMARK                         _______ _______ _______ _____ _____    ______ ____
ROOT
ATOM      1  C   UNL     1       6.065   3.527  12.505  0.00  0.00    +0.000 A 
ATOM      2  C   UNL     1       7.155   4.391  12.627  0.00  0.00    +0.000 A 
ATOM      3  C   UNL     1       7.385   5.083  13.817  0.00  0.00    +0.000 A 
ATOM      4  C   UNL     1       6.524   4.920  14.906  0.00  0.00    +0.000 A 
ATOM      5  C   UNL     1       6.717   5.633  16.186  0.00  0.00    +0.000 A 
ATOM      6  O   UNL     1       7.627   6.417  16.417  0.00  0.00    +0.000 OA
ATOM      7  C   UNL     1       5.728   5.367  17.237  0.00  0.00    +0.000 A 
ATOM      8  C   UNL     1       4.711   4.526  17.007  0.00  0.00    +0.000 A 
ATOM      9  O   UNL     1       4.536   3.838  15.814  0.00  0.00    +0.000 OA
ATOM     10  C   UNL     1       5.433   4.054  14.792  0.00  0.00    +0.000 A 
ATOM     11  C   UNL     1       5.207   3.358  13.596  0.00  0.00    +0.000 A 
ENDROOT
BRANCH   8  12
ATOM     12  C   UNL     1       3.689   4.264  18.046  0.00  0.00    +0.000 A 
ATOM     13  C   UNL     1       3.628   5.055  19.209  0.00  0.00    +0.000 A 
ATOM     14  C   UNL     1       2.666   4.817  20.201  0.00  0.00    +0.000 A 
ATOM     15  C   UNL     1       1.759   3.779  20.032  0.00  0.00    +0.000 A 
ATOM     16  C   UNL     1       1.810   2.988  18.891  0.00  0.00    +0.000 A 
ATOM     17  C   UNL     1       2.764   3.214  17.908  0.00  0.00    +0.000 A 
BRANCH  15  18
ATOM     18  O   UNL     1       0.798   3.492  20.960  0.00  0.00    +0.000 OA
ATOM     19  H   UNL     1      -0.004   3.993  20.731  0.00  0.00    +0.000 HD
ENDBRANCH  15  18
BRANCH  16  20
ATOM     20  O   UNL     1       0.917   1.968  18.723  0.00  0.00    +0.000 OA
ATOM     21  H   UNL     1       0.367   2.244  17.964  0.00  0.00    +0.000 HD
ENDBRANCH  16  20
ENDBRANCH   8  12
BRANCH   3  22
ATOM     22  O   UNL     1       8.462   5.918  13.891  0.00  0.00    +0.000 OA
ATOM     23  H   UNL     1       8.819   5.946  14.792  0.00  0.00    +0.000 HD
ENDBRANCH   3  22
BRANCH   1  24
ATOM     24  O   UNL     1       5.753   2.810  11.377  0.00  0.00    +0.000 OA
BRANCH  24  25
ATOM     25  C   UNL     1       4.356   2.691  11.083  0.00  0.00    +0.000 C 
BRANCH  25  27
ATOM     26  C   UNL     1       2.820   3.922   9.534  0.00  0.00    +0.000 C 
ATOM     27  C   UNL     1       3.781   4.051  10.706  0.00  0.00    +0.000 C 
ENDBRANCH  25  27
ENDBRANCH  24  25
ENDBRANCH   1  24
TORSDOF 7
ENDMDL
MODEL 6
REMARK VINA RESULT:      -7.7      5.600      9.311
REMARK  Name = 
REMARK  8 active torsions:
REMARK  status: ('A' for Active; 'I' for Inactive)
REMARK    1  A    between atoms: C_1  and  C_2
REMARK    2  A    between atoms: C_2  and  C_3
REMARK    3  A    between atoms: C_3  and  O_4
REMARK    4  A    between atoms: O_4  and  C_5
REMARK    5  A    between atoms: C_7  and  O_8
REMARK    6  A    between atoms: C_13  and  C_14
REMARK    7  A    between atoms: C_17  and  O_18
REMARK    8  A    between atoms: C_19  and  O_20
REMARK                            x       y       z     vdW  Elec       q    Type
REMARK                         _______ _______ _______ _____ _____    ______ ____
ROOT
ATOM      1  C   UNL     1       5.949   3.523  12.528  0.00  0.00    +0.000 A 
ATOM      2  C   UNL     1       7.052   4.370  12.641  0.00  0.00    +0.000 A 
ATOM      3  C   UNL     1       7.330   5.019  13.845  0.00  0.00    +0.000 A 
ATOM      4  C   UNL     1       6.505   4.828  14.957  0.00  0.00    +0.000 A 
ATOM      5  C   UNL     1       6.750   5.494  16.252  0.00  0.00    +0.000 A 
ATOM      6  O   UNL     1       7.676   6.261  16.478  0.00  0.00    +0.000 OA
ATOM      7  C   UNL     1       5.794   5.203  17.327  0.00  0.00    +0.000 A 
ATOM      8  C   UNL     1       4.760   4.381  17.104  0.00  0.00    +0.000 A 
ATOM      9  O   UNL     1       4.537   3.736  15.895  0.00  0.00    +0.000 OA
ATOM     10  C   UNL     1       5.401   3.977  14.851  0.00  0.00    +0.000 A 
ATOM     11  C   UNL     1       5.127   3.325  13.641  0.00  0.00    +0.000 A 
ENDROOT
BRANCH   8  12
ATOM     12  C   UNL     1       3.771   4.094  18.169  0.00  0.00    +0.000 A 
ATOM     13  C   UNL     1       2.449   4.564  18.066  0.00  0.00    +0.000 A 
ATOM     14  C   UNL     1       1.503   4.300  19.067  0.00  0.00    +0.000 A 
ATOM     15  C   UNL     1       1.882   3.563  20.180  0.00  0.00    +0.000 A 
ATOM     16  C   UNL     1       3.184   3.095  20.297  0.00  0.00    +0.000 A 
ATOM     17  C   UNL     1       4.127   3.358  19.313  0.00  0.00    +0.000 A 
BRANCH  15  18
ATOM     18  O   UNL     1       1.010   3.271  21.192  0.00  0.00    +0.000 OA
ATOM     19  H   UNL     1       1.482   3.368  22.037  0.00  0.00    +0.000 HD
ENDBRANCH  15  18
BRANCH  16  20
ATOM     20  O   UNL     1       3.557   2.368  21.392  0.00  0.00    +0.000 OA
ATOM     21  H   UNL     1       4.310   1.826  21.083  0.00  0.00    +0.000 HD
ENDBRANCH  16  20
ENDBRANCH   8  12
BRANCH   3  22
ATOM     22  O   UNL     1       8.419   5.840  13.910  0.00  0.00    +0.000 OA
ATOM     23  H   UNL     1       8.850   5.915  13.045  0.00  0.00    +0.000 HD
ENDBRANCH   3  22
BRANCH   1  24
ATOM     24  O   UNL     1       5.591   2.848  11.387  0.00  0.00    +0.000 OA
BRANCH  24  25
ATOM     25  C   UNL     1       4.184   2.758  11.134  0.00  0.00    +0.000 C 
BRANCH  25  27
ATOM     26  C   UNL     1       2.869   3.903   9.335  0.00  0.00    +0.000 C 
ATOM     27  C   UNL     1       3.658   4.094  10.622  0.00  0.00    +0.000 C 
ENDBRANCH  25  27
ENDBRANCH  24  25
ENDBRANCH   1  24
TORSDOF 7
ENDMDL
MODEL 7
REMARK VINA RESULT:      -7.7      5.002      9.292
REMARK  Name = 
REMARK  8 active torsions:
REMARK  status: ('A' for Active; 'I' for Inactive)
REMARK    1  A    between atoms: C_1  and  C_2
REMARK    2  A    between atoms: C_2  and  C_3
REMARK    3  A    between atoms: C_3  and  O_4
REMARK    4  A    between atoms: O_4  and  C_5
REMARK    5  A    between atoms: C_7  and  O_8
REMARK    6  A    between atoms: C_13  and  C_14
REMARK    7  A    between atoms: C_17  and  O_18
REMARK    8  A    between atoms: C_19  and  O_20
REMARK                            x       y       z     vdW  Elec       q    Type
REMARK                         _______ _______ _______ _____ _____    ______ ____
ROOT
ATOM      1  C   UNL     1       5.992   3.517  12.636  0.00  0.00    +0.000 A 
ATOM      2  C   UNL     1       7.082   4.386  12.667  0.00  0.00    +0.000 A 
ATOM      3  C   UNL     1       7.407   5.078  13.836  0.00  0.00    +0.000 A 
ATOM      4  C   UNL     1       6.641   4.907  14.993  0.00  0.00    +0.000 A 
ATOM      5  C   UNL     1       6.937   5.619  16.254  0.00  0.00    +0.000 A 
ATOM      6  O   UNL     1       7.858   6.408  16.410  0.00  0.00    +0.000 OA
ATOM      7  C   UNL     1       6.040   5.345  17.383  0.00  0.00    +0.000 A 
ATOM      8  C   UNL     1       5.013   4.499  17.237  0.00  0.00    +0.000 A 
ATOM      9  O   UNL     1       4.743   3.812  16.061  0.00  0.00    +0.000 OA
ATOM     10  C   UNL     1       5.550   4.035  14.968  0.00  0.00    +0.000 A 
ATOM     11  C   UNL     1       5.229   3.340  13.794  0.00  0.00    +0.000 A 
ENDROOT
BRANCH   8  12
ATOM     12  C   UNL     1       4.083   4.228  18.358  0.00  0.00    +0.000 A 
ATOM     13  C   UNL     1       3.681   2.913  18.656  0.00  0.00    +0.000 A 
ATOM     14  C   UNL     1       2.800   2.644  19.713  0.00  0.00    +0.000 A 
ATOM     15  C   UNL     1       2.316   3.696  20.478  0.00  0.00    +0.000 A 
ATOM     16  C   UNL     1       2.702   5.000  20.194  0.00  0.00    +0.000 A 
ATOM     17  C   UNL     1       3.568   5.274  19.144  0.00  0.00    +0.000 A 
BRANCH  15  18
ATOM     18  O   UNL     1       1.455   3.503  21.521  0.00  0.00    +0.000 OA
ATOM     19  H   UNL     1       0.836   2.793  21.277  0.00  0.00    +0.000 HD
ENDBRANCH  15  18
BRANCH  16  20
ATOM     20  O   UNL     1       2.227   6.036  20.947  0.00  0.00    +0.000 OA
ATOM     21  H   UNL     1       1.573   6.480  20.372  0.00  0.00    +0.000 HD
ENDBRANCH  16  20
ENDBRANCH   8  12
BRANCH   3  22
ATOM     22  O   UNL     1       8.481   5.919  13.822  0.00  0.00    +0.000 OA
ATOM     23  H   UNL     1       9.194   5.582  14.386  0.00  0.00    +0.000 HD
ENDBRANCH   3  22
BRANCH   1  24
ATOM     24  O   UNL     1       5.590   2.800  11.536  0.00  0.00    +0.000 OA
BRANCH  24  25
ATOM     25  C   UNL     1       4.180   2.778  11.289  0.00  0.00    +0.000 C 
BRANCH  25  27
ATOM     26  C   UNL     1       2.979   3.934   9.418  0.00  0.00    +0.000 C 
ATOM     27  C   UNL     1       3.724   4.121  10.732  0.00  0.00    +0.000 C 
ENDBRANCH  25  27
ENDBRANCH  24  25
ENDBRANCH   1  24
TORSDOF 7
ENDMDL
MODEL 8
REMARK VINA RESULT:      -7.6      2.813      8.729
REMARK  Name = 
REMARK  8 active torsions:
REMARK  status: ('A' for Active; 'I' for Inactive)
REMARK    1  A    between atoms: C_1  and  C_2
REMARK    2  A    between atoms: C_2  and  C_3
REMARK    3  A    between atoms: C_3  and  O_4
REMARK    4  A    between atoms: O_4  and  C_5
REMARK    5  A    between atoms: C_7  and  O_8
REMARK    6  A    between atoms: C_13  and  C_14
REMARK    7  A    between atoms: C_17  and  O_18
REMARK    8  A    between atoms: C_19  and  O_20
REMARK                            x       y       z     vdW  Elec       q    Type
REMARK                         _______ _______ _______ _____ _____    ______ ____
ROOT
ATOM      1  C   UNL     1       5.426   5.412  16.158  0.00  0.00    +0.000 A 
ATOM      2  C   UNL     1       5.443   4.201  16.850  0.00  0.00    +0.000 A 
ATOM      3  C   UNL     1       4.672   4.028  18.001  0.00  0.00    +0.000 A 
ATOM      4  C   UNL     1       3.871   5.070  18.477  0.00  0.00    +0.000 A 
ATOM      5  C   UNL     1       3.041   4.942  19.693  0.00  0.00    +0.000 A 
ATOM      6  O   UNL     1       2.972   3.939  20.389  0.00  0.00    +0.000 OA
ATOM      7  C   UNL     1       2.257   6.124  20.074  0.00  0.00    +0.000 A 
ATOM      8  C   UNL     1       2.326   7.242  19.342  0.00  0.00    +0.000 A 
ATOM      9  O   UNL     1       3.088   7.361  18.187  0.00  0.00    +0.000 OA
ATOM     10  C   UNL     1       3.847   6.284  17.786  0.00  0.00    +0.000 A 
ATOM     11  C   UNL     1       4.620   6.452  16.629  0.00  0.00    +0.000 A 
ENDROOT
BRANCH   8  12
ATOM     12  C   UNL     1       1.562   8.452  19.725  0.00  0.00    +0.000 A 
ATOM     13  C   UNL     1       1.077   8.610  21.036  0.00  0.00    +0.000 A 
ATOM     14  C   UNL     1       0.351   9.750  21.411  0.00  0.00    +0.000 A 
ATOM     15  C   UNL     1       0.107  10.739  20.468  0.00  0.00    +0.000 A 
ATOM     16  C   UNL     1       0.577  10.596  19.169  0.00  0.00    +0.000 A 
ATOM     17  C   UNL     1       1.291   9.467  18.790  0.00  0.00    +0.000 A 
BRANCH  15  18
ATOM     18  O   UNL     1      -0.594  11.873  20.767  0.00  0.00    +0.000 OA
ATOM     19  H   UNL     1      -0.151  12.317  21.511  0.00  0.00    +0.000 HD
ENDBRANCH  15  18
BRANCH  16  20
ATOM     20  O   UNL     1       0.339  11.570  18.242  0.00  0.00    +0.000 OA
ATOM     21  H   UNL     1       0.228  12.387  18.766  0.00  0.00    +0.000 HD
ENDBRANCH  16  20
ENDBRANCH   8  12
BRANCH   3  22
ATOM     22  O   UNL     1       4.721   2.827  18.648  0.00  0.00    +0.000 OA
ATOM     23  H   UNL     1       4.663   2.946  19.608  0.00  0.00    +0.000 HD
ENDBRANCH   3  22
BRANCH   1  24
ATOM     24  O   UNL     1       6.153   5.680  15.024  0.00  0.00    +0.000 OA
BRANCH  24  25
ATOM     25  C   UNL     1       6.900   4.581  14.491  0.00  0.00    +0.000 C 
BRANCH  25  27
ATOM     26  C   UNL     1       6.767   3.768  12.125  0.00  0.00    +0.000 C 
ATOM     27  C   UNL     1       6.060   3.821  13.471  0.00  0.00    +0.000 C 
ENDBRANCH  25  27
ENDBRANCH  24  25
ENDBRANCH   1  24
TORSDOF 7
ENDMDL
MODEL 9
REMARK VINA RESULT:      -7.6      0.581      1.368
REMARK  Name = 
REMARK  8 active torsions:
REMARK  status: ('A' for Active; 'I' for Inactive)
REMARK    1  A    between atoms: C_1  and  C_2
REMARK    2  A    between atoms: C_2  and  C_3
REMARK    3  A    between atoms: C_3  and  O_4
REMARK    4  A    between atoms: O_4  and  C_5
REMARK    5  A    between atoms: C_7  and  O_8
REMARK    6  A    between atoms: C_13  and  C_14
REMARK    7  A    between atoms: C_17  and  O_18
REMARK    8  A    between atoms: C_19  and  O_20
REMARK                            x       y       z     vdW  Elec       q    Type
REMARK                         _______ _______ _______ _____ _____    ______ ____
ROOT
ATOM      1  C   UNL     1      -0.235  10.211  21.709  0.00  0.00    +0.000 A 
ATOM      2  C   UNL     1      -0.162  11.048  20.595  0.00  0.00    +0.000 A 
ATOM      3  C   UNL     1       0.540  10.654  19.454  0.00  0.00    +0.000 A 
ATOM      4  C   UNL     1       1.180   9.412  19.413  0.00  0.00    +0.000 A 
ATOM      5  C   UNL     1       1.940   8.949  18.233  0.00  0.00    +0.000 A 
ATOM      6  O   UNL     1       2.082   9.589  17.200  0.00  0.00    +0.000 OA
ATOM      7  C   UNL     1       2.565   7.625  18.338  0.00  0.00    +0.000 A 
ATOM      8  C   UNL     1       2.440   6.910  19.463  0.00  0.00    +0.000 A 
ATOM      9  O   UNL     1       1.710   7.331  20.567  0.00  0.00    +0.000 OA
ATOM     10  C   UNL     1       1.107   8.568  20.523  0.00  0.00    +0.000 A 
ATOM     11  C   UNL     1       0.399   8.966  21.666  0.00  0.00    +0.000 A 
ENDROOT
BRANCH   8  12
ATOM     12  C   UNL     1       3.084   5.583  19.598  0.00  0.00    +0.000 A 
ATOM     13  C   UNL     1       4.221   5.256  18.836  0.00  0.00    +0.000 A 
ATOM     14  C   UNL     1       4.839   4.002  18.953  0.00  0.00    +0.000 A 
ATOM     15  C   UNL     1       4.316   3.068  19.836  0.00  0.00    +0.000 A 
ATOM     16  C   UNL     1       3.193   3.375  20.593  0.00  0.00    +0.000 A 
ATOM     17  C   UNL     1       2.572   4.612  20.477  0.00  0.00    +0.000 A 
BRANCH  15  18
ATOM     18  O   UNL     1       4.869   1.829  19.998  0.00  0.00    +0.000 OA
ATOM     19  H   UNL     1       4.930   1.407  19.123  0.00  0.00    +0.000 HD
ENDBRANCH  15  18
BRANCH  16  20
ATOM     20  O   UNL     1       2.679   2.457  21.464  0.00  0.00    +0.000 OA
ATOM     21  H   UNL     1       1.917   2.909  21.877  0.00  0.00    +0.000 HD
ENDBRANCH  16  20
ENDBRANCH   8  12
BRANCH   3  22
ATOM     22  O   UNL     1       0.586  11.506  18.388  0.00  0.00    +0.000 OA
ATOM     23  H   UNL     1       1.363  11.328  17.835  0.00  0.00    +0.000 HD
ENDBRANCH   3  22
BRANCH   1  24
ATOM     24  O   UNL     1      -0.892  10.512  22.877  0.00  0.00    +0.000 OA
BRANCH  24  25
ATOM     25  C   UNL     1      -1.271  11.883  23.041  0.00  0.00    +0.000 C 
BRANCH  25  27
ATOM     26  C   UNL     1      -3.468  12.717  22.172  0.00  0.00    +0.000 C 
ATOM     27  C   UNL     1      -2.769  11.984  23.307  0.00  0.00    +0.000 C 
ENDBRANCH  25  27
ENDBRANCH  24  25
ENDBRANCH   1  24
TORSDOF 7
ENDMDL
