MODEL 1
REMARK VINA RESULT:      -7.2      0.000      0.000
REMARK  Name = 
REMARK  7 active torsions:
REMARK  status: ('A' for Active; 'I' for Inactive)
REMARK    1  A    between atoms: C_1  and  C_2
REMARK    2  A    between atoms: C_5  and  N_6
REMARK    3  A    between atoms: N_6  and  S_7
REMARK    4  A    between atoms: S_7  and  C_10
REMARK    5  A    between atoms: C_15  and  N_16
REMARK    6  A    between atoms: N_16  and  C_17
REMARK    7  A    between atoms: N_16  and  C_18
REMARK                            x       y       z     vdW  Elec       q    Type
REMARK                         _______ _______ _______ _____ _____    ______ ____
ROOT
ATOM      1  C   UNL     1       5.423   6.127  17.918  0.00  0.00    +0.000 A 
ATOM      2  C   UNL     1       4.618   7.119  17.357  0.00  0.00    +0.000 A 
ATOM      3  C   UNL     1       3.252   7.061  17.529  0.00  0.00    +0.000 A 
ATOM      4  C   UNL     1       2.688   5.999  18.231  0.00  0.00    +0.000 A 
ATOM      5  C   UNL     1       3.432   4.907  18.744  0.00  0.00    +0.000 A 
ATOM      6  C   UNL     1       2.819   3.762  19.380  0.00  0.00    +0.000 A 
ATOM      7  C   UNL     1       3.686   2.799  19.936  0.00  0.00    +0.000 A 
ATOM      8  C   UNL     1       5.069   2.935  19.901  0.00  0.00    +0.000 A 
ATOM      9  C   UNL     1       5.644   4.021  19.254  0.00  0.00    +0.000 A 
ATOM     10  C   UNL     1       4.861   5.016  18.632  0.00  0.00    +0.000 A 
ENDROOT
BRANCH   1  11
ATOM     11  S   UNL     1       7.191   6.268  17.681  0.00  0.00    +0.000 S 
ATOM     12  O   UNL     1       7.800   6.404  18.988  0.00  0.00    +0.000 OA
ATOM     13  O   UNL     1       7.407   7.236  16.630  0.00  0.00    +0.000 OA
BRANCH  11  14
ATOM     14  N   UNL     1       7.663   4.773  16.981  0.00  0.00    +0.000 N 
ATOM     15  H   UNL     1       7.152   4.079  17.533  0.00  0.00    +0.000 HD
BRANCH  14  20
ATOM     16  C   UNL     1       5.375   3.807  12.602  0.00  0.00    +0.000 C 
ATOM     17  C   UNL     1       6.281   4.272  13.679  0.00  0.00    +0.000 A 
ATOM     18  N   UNL     1       7.295   5.104  13.397  0.00  0.00    +0.000 NA
ATOM     19  O   UNL     1       7.917   5.366  14.608  0.00  0.00    +0.000 OA
ATOM     20  C   UNL     1       7.301   4.668  15.603  0.00  0.00    +0.000 A 
ATOM     21  C   UNL     1       6.242   3.986  15.060  0.00  0.00    +0.000 A 
ATOM     22 BR   UNL     1       4.932   2.956  15.909  0.00  0.00    +0.000 Br
ENDBRANCH  14  20
ENDBRANCH  11  14
ENDBRANCH   1  11
BRANCH   6  23
ATOM     23  N   UNL     1       1.436   3.545  19.471  0.00  0.00    +0.000 N 
ATOM     24  C   UNL     1       0.615   4.168  20.510  0.00  0.00    +0.000 C 
ATOM     25  C   UNL     1       0.736   2.542  18.676  0.00  0.00    +0.000 C 
ENDBRANCH   6  23
TORSDOF 4
ENDMDL
MODEL 2
REMARK VINA RESULT:      -7.0      6.262      8.630
REMARK  Name = 
REMARK  7 active torsions:
REMARK  status: ('A' for Active; 'I' for Inactive)
REMARK    1  A    between atoms: C_1  and  C_2
REMARK    2  A    between atoms: C_5  and  N_6
REMARK    3  A    between atoms: N_6  and  S_7
REMARK    4  A    between atoms: S_7  and  C_10
REMARK    5  A    between atoms: C_15  and  N_16
REMARK    6  A    between atoms: N_16  and  C_17
REMARK    7  A    between atoms: N_16  and  C_18
REMARK                            x       y       z     vdW  Elec       q    Type
REMARK                         _______ _______ _______ _____ _____    ______ ____
ROOT
ATOM      1  C   UNL     1       1.633   8.285  19.902  0.00  0.00    +0.000 A 
ATOM      2  C   UNL     1       1.910   9.086  18.793  0.00  0.00    +0.000 A 
ATOM      3  C   UNL     1       2.532   8.531  17.695  0.00  0.00    +0.000 A 
ATOM      4  C   UNL     1       2.906   7.190  17.717  0.00  0.00    +0.000 A 
ATOM      5  C   UNL     1       2.747   6.343  18.841  0.00  0.00    +0.000 A 
ATOM      6  C   UNL     1       3.235   4.982  18.882  0.00  0.00    +0.000 A 
ATOM      7  C   UNL     1       2.915   4.222  20.025  0.00  0.00    +0.000 A 
ATOM      8  C   UNL     1       2.150   4.732  21.068  0.00  0.00    +0.000 A 
ATOM      9  C   UNL     1       1.721   6.052  21.032  0.00  0.00    +0.000 A 
ATOM     10  C   UNL     1       2.025   6.904  19.950  0.00  0.00    +0.000 A 
ENDROOT
BRANCH   1  11
ATOM     11  S   UNL     1       0.804   9.054  21.288  0.00  0.00    +0.000 S 
ATOM     12  O   UNL     1       1.700   8.997  22.423  0.00  0.00    +0.000 OA
ATOM     13  O   UNL     1      -0.535   8.512  21.340  0.00  0.00    +0.000 OA
BRANCH  11  14
ATOM     14  N   UNL     1       0.579  10.689  20.817  0.00  0.00    +0.000 N 
ATOM     15  H   UNL     1       0.260  10.616  19.846  0.00  0.00    +0.000 HD
BRANCH  14  20
ATOM     16  C   UNL     1      -3.510  13.097  22.498  0.00  0.00    +0.000 C 
ATOM     17  C   UNL     1      -2.213  12.393  22.353  0.00  0.00    +0.000 A 
ATOM     18  N   UNL     1      -1.498  12.066  23.439  0.00  0.00    +0.000 NA
ATOM     19  O   UNL     1      -0.377  11.402  22.967  0.00  0.00    +0.000 OA
ATOM     20  C   UNL     1      -0.403  11.363  21.605  0.00  0.00    +0.000 A 
ATOM     21  C   UNL     1      -1.565  11.955  21.179  0.00  0.00    +0.000 A 
ATOM     22 BR   UNL     1      -2.257  12.104  19.448  0.00  0.00    +0.000 Br
ENDBRANCH  14  20
ENDBRANCH  11  14
ENDBRANCH   1  11
BRANCH   6  23
ATOM     23  N   UNL     1       4.004   4.380  17.875  0.00  0.00    +0.000 N 
ATOM     24  C   UNL     1       3.450   3.377  16.964  0.00  0.00    +0.000 C 
ATOM     25  C   UNL     1       5.450   4.547  17.772  0.00  0.00    +0.000 C 
ENDBRANCH   6  23
TORSDOF 4
ENDMDL
MODEL 3
REMARK VINA RESULT:      -7.0      3.158      4.641
REMARK  Name = 
REMARK  7 active torsions:
REMARK  status: ('A' for Active; 'I' for Inactive)
REMARK    1  A    between atoms: C_1  and  C_2
REMARK    2  A    between atoms: C_5  and  N_6
REMARK    3  A    between atoms: N_6  and  S_7
REMARK    4  A    between atoms: S_7  and  C_10
REMARK    5  A    between atoms: C_15  and  N_16
REMARK    6  A    between atoms: N_16  and  C_17
REMARK    7  A    between atoms: N_16  and  C_18
REMARK                            x       y       z     vdW  Elec       q    Type
REMARK                         _______ _______ _______ _____ _____    ______ ____
ROOT
ATOM      1  C   UNL     1       3.082   4.177  19.005  0.00  0.00    +0.000 A 
ATOM      2  C   UNL     1       2.782   3.368  20.101  0.00  0.00    +0.000 A 
ATOM      3  C   UNL     1       2.069   3.894  21.157  0.00  0.00    +0.000 A 
ATOM      4  C   UNL     1       1.685   5.233  21.133  0.00  0.00    +0.000 A 
ATOM      5  C   UNL     1       2.039   6.138  20.102  0.00  0.00    +0.000 A 
ATOM      6  C   UNL     1       1.720   7.548  20.143  0.00  0.00    +0.000 A 
ATOM      7  C   UNL     1       2.040   8.309  19.001  0.00  0.00    +0.000 A 
ATOM      8  C   UNL     1       2.618   7.747  17.870  0.00  0.00    +0.000 A 
ATOM      9  C   UNL     1       2.953   6.400  17.858  0.00  0.00    +0.000 A 
ATOM     10  C   UNL     1       2.710   5.563  18.967  0.00  0.00    +0.000 A 
ENDROOT
BRANCH   1  11
ATOM     11  S   UNL     1       3.990   3.433  17.654  0.00  0.00    +0.000 S 
ATOM     12  O   UNL     1       3.621   4.131  16.440  0.00  0.00    +0.000 OA
ATOM     13  O   UNL     1       3.855   2.000  17.786  0.00  0.00    +0.000 OA
BRANCH  11  14
ATOM     14  N   UNL     1       5.641   3.735  18.012  0.00  0.00    +0.000 N 
ATOM     15  H   UNL     1       6.138   3.024  17.467  0.00  0.00    +0.000 HD
BRANCH  14  20
ATOM     16  C   UNL     1       7.912   8.209  17.591  0.00  0.00    +0.000 C 
ATOM     17  C   UNL     1       7.083   6.994  17.407  0.00  0.00    +0.000 A 
ATOM     18  N   UNL     1       6.345   6.842  16.297  0.00  0.00    +0.000 NA
ATOM     19  O   UNL     1       5.726   5.608  16.421  0.00  0.00    +0.000 OA
ATOM     20  C   UNL     1       6.064   5.040  17.612  0.00  0.00    +0.000 A 
ATOM     21  C   UNL     1       6.944   5.874  18.254  0.00  0.00    +0.000 A 
ATOM     22 BR   UNL     1       7.874   5.614  19.855  0.00  0.00    +0.000 Br
ENDBRANCH  14  20
ENDBRANCH  11  14
ENDBRANCH   1  11
BRANCH   6  23
ATOM     23  N   UNL     1       1.129   8.200  21.236  0.00  0.00    +0.000 N 
ATOM     24  C   UNL     1      -0.322   8.270  21.411  0.00  0.00    +0.000 C 
ATOM     25  C   UNL     1       1.886   9.023  22.173  0.00  0.00    +0.000 C 
ENDBRANCH   6  23
TORSDOF 4
ENDMDL
MODEL 4
REMARK VINA RESULT:      -6.9      6.357      8.679
REMARK  Name = 
REMARK  7 active torsions:
REMARK  status: ('A' for Active; 'I' for Inactive)
REMARK    1  A    between atoms: C_1  and  C_2
REMARK    2  A    between atoms: C_5  and  N_6
REMARK    3  A    between atoms: N_6  and  S_7
REMARK    4  A    between atoms: S_7  and  C_10
REMARK    5  A    between atoms: C_15  and  N_16
REMARK    6  A    between atoms: N_16  and  C_17
REMARK    7  A    between atoms: N_16  and  C_18
REMARK                            x       y       z     vdW  Elec       q    Type
REMARK                         _______ _______ _______ _____ _____    ______ ____
ROOT
ATOM      1  C   UNL     1       1.286   8.573  19.980  0.00  0.00    +0.000 A 
ATOM      2  C   UNL     1       1.471   9.472  18.928  0.00  0.00    +0.000 A 
ATOM      3  C   UNL     1       2.190   9.079  17.820  0.00  0.00    +0.000 A 
ATOM      4  C   UNL     1       2.749   7.805  17.774  0.00  0.00    +0.000 A 
ATOM      5  C   UNL     1       2.687   6.876  18.842  0.00  0.00    +0.000 A 
ATOM      6  C   UNL     1       3.361   5.597  18.818  0.00  0.00    +0.000 A 
ATOM      7  C   UNL     1       3.126   4.730  19.904  0.00  0.00    +0.000 A 
ATOM      8  C   UNL     1       2.275   5.062  20.951  0.00  0.00    +0.000 A 
ATOM      9  C   UNL     1       1.664   6.309  20.980  0.00  0.00    +0.000 A 
ATOM     10  C   UNL     1       1.868   7.261  19.959  0.00  0.00    +0.000 A 
ENDROOT
BRANCH   1  11
ATOM     11  S   UNL     1       0.326   9.131  21.382  0.00  0.00    +0.000 S 
ATOM     12  O   UNL     1       1.252   9.620  22.382  0.00  0.00    +0.000 OA
ATOM     13  O   UNL     1      -0.644   8.100  21.675  0.00  0.00    +0.000 OA
BRANCH  11  14
ATOM     14  N   UNL     1      -0.614  10.436  20.783  0.00  0.00    +0.000 N 
ATOM     15  H   UNL     1      -1.578  10.118  20.918  0.00  0.00    +0.000 HD
BRANCH  14  20
ATOM     16  C   UNL     1       0.517  15.140  22.176  0.00  0.00    +0.000 C 
ATOM     17  C   UNL     1       0.072  13.728  22.110  0.00  0.00    +0.000 A 
ATOM     18  N   UNL     1      -0.543  13.163  23.159  0.00  0.00    +0.000 NA
ATOM     19  O   UNL     1      -0.853  11.871  22.766  0.00  0.00    +0.000 OA
ATOM     20  C   UNL     1      -0.395  11.652  21.501  0.00  0.00    +0.000 A 
ATOM     21  C   UNL     1       0.171  12.813  21.040  0.00  0.00    +0.000 A 
ATOM     22 BR   UNL     1       0.860  13.207  19.346  0.00  0.00    +0.000 Br
ENDBRANCH  14  20
ENDBRANCH  11  14
ENDBRANCH   1  11
BRANCH   6  23
ATOM     23  N   UNL     1       4.230   5.171  17.801  0.00  0.00    +0.000 N 
ATOM     24  C   UNL     1       3.904   4.056  16.913  0.00  0.00    +0.000 C 
ATOM     25  C   UNL     1       5.597   5.664  17.667  0.00  0.00    +0.000 C 
ENDBRANCH   6  23
TORSDOF 4
ENDMDL
MODEL 5
REMARK VINA RESULT:      -6.8      3.069      4.796
REMARK  Name = 
REMARK  7 active torsions:
REMARK  status: ('A' for Active; 'I' for Inactive)
REMARK    1  A    between atoms: C_1  and  C_2
REMARK    2  A    between atoms: C_5  and  N_6
REMARK    3  A    between atoms: N_6  and  S_7
REMARK    4  A    between atoms: S_7  and  C_10
REMARK    5  A    between atoms: C_15  and  N_16
REMARK    6  A    between atoms: N_16  and  C_17
REMARK    7  A    between atoms: N_16  and  C_18
REMARK                            x       y       z     vdW  Elec       q    Type
REMARK                         _______ _______ _______ _____ _____    ______ ____
ROOT
ATOM      1  C   UNL     1       2.865   4.075  19.061  0.00  0.00    +0.000 A 
ATOM      2  C   UNL     1       2.483   3.297  20.155  0.00  0.00    +0.000 A 
ATOM      3  C   UNL     1       1.786   3.880  21.191  0.00  0.00    +0.000 A 
ATOM      4  C   UNL     1       1.500   5.243  21.151  0.00  0.00    +0.000 A 
ATOM      5  C   UNL     1       1.940   6.113  20.123  0.00  0.00    +0.000 A 
ATOM      6  C   UNL     1       1.722   7.542  20.150  0.00  0.00    +0.000 A 
ATOM      7  C   UNL     1       2.121   8.271  19.012  0.00  0.00    +0.000 A 
ATOM      8  C   UNL     1       2.683   7.661  17.897  0.00  0.00    +0.000 A 
ATOM      9  C   UNL     1       2.921   6.293  17.900  0.00  0.00    +0.000 A 
ATOM     10  C   UNL     1       2.593   5.484  19.008  0.00  0.00    +0.000 A 
ENDROOT
BRANCH   1  11
ATOM     11  S   UNL     1       3.748   3.259  17.736  0.00  0.00    +0.000 S 
ATOM     12  O   UNL     1       3.778   4.164  16.606  0.00  0.00    +0.000 OA
ATOM     13  O   UNL     1       3.217   1.918  17.631  0.00  0.00    +0.000 OA
BRANCH  11  14
ATOM     14  N   UNL     1       5.340   3.037  18.337  0.00  0.00    +0.000 N 
ATOM     15  H   UNL     1       5.797   2.486  17.604  0.00  0.00    +0.000 HD
BRANCH  14  20
ATOM     16  C   UNL     1       7.849   7.362  17.751  0.00  0.00    +0.000 C 
ATOM     17  C   UNL     1       7.112   6.186  18.273  0.00  0.00    +0.000 A 
ATOM     18  N   UNL     1       6.761   6.128  19.566  0.00  0.00    +0.000 NA
ATOM     19  O   UNL     1       6.069   4.937  19.716  0.00  0.00    +0.000 OA
ATOM     20  C   UNL     1       6.036   4.269  18.529  0.00  0.00    +0.000 A 
ATOM     21  C   UNL     1       6.661   5.041  17.583  0.00  0.00    +0.000 A 
ATOM     22 BR   UNL     1       6.837   4.753  15.743  0.00  0.00    +0.000 Br
ENDBRANCH  14  20
ENDBRANCH  11  14
ENDBRANCH   1  11
BRANCH   6  23
ATOM     23  N   UNL     1       1.154   8.243  21.225  0.00  0.00    +0.000 N 
ATOM     24  C   UNL     1      -0.291   8.421  21.365  0.00  0.00    +0.000 C 
ATOM     25  C   UNL     1       1.947   9.013  22.178  0.00  0.00    +0.000 C 
ENDBRANCH   6  23
TORSDOF 4
ENDMDL
MODEL 6
REMARK VINA RESULT:      -6.8      6.605      8.843
REMARK  Name = 
REMARK  7 active torsions:
REMARK  status: ('A' for Active; 'I' for Inactive)
REMARK    1  A    between atoms: C_1  and  C_2
REMARK    2  A    between atoms: C_5  and  N_6
REMARK    3  A    between atoms: N_6  and  S_7
REMARK    4  A    between atoms: S_7  and  C_10
REMARK    5  A    between atoms: C_15  and  N_16
REMARK    6  A    between atoms: N_16  and  C_17
REMARK    7  A    between atoms: N_16  and  C_18
REMARK                            x       y       z     vdW  Elec       q    Type
REMARK                         _______ _______ _______ _____ _____    ______ ____
ROOT
ATOM      1  C   UNL     1       1.217   8.734  19.977  0.00  0.00    +0.000 A 
ATOM      2  C   UNL     1       1.386   9.652  18.939  0.00  0.00    +0.000 A 
ATOM      3  C   UNL     1       2.117   9.291  17.827  0.00  0.00    +0.000 A 
ATOM      4  C   UNL     1       2.704   8.030  17.766  0.00  0.00    +0.000 A 
ATOM      5  C   UNL     1       2.658   7.084  18.820  0.00  0.00    +0.000 A 
ATOM      6  C   UNL     1       3.360   5.820  18.780  0.00  0.00    +0.000 A 
ATOM      7  C   UNL     1       3.140   4.933  19.853  0.00  0.00    +0.000 A 
ATOM      8  C   UNL     1       2.278   5.232  20.901  0.00  0.00    +0.000 A 
ATOM      9  C   UNL     1       1.640   6.464  20.945  0.00  0.00    +0.000 A 
ATOM     10  C   UNL     1       1.827   7.435  19.939  0.00  0.00    +0.000 A 
ENDROOT
BRANCH   1  11
ATOM     11  S   UNL     1       0.240   9.251  21.383  0.00  0.00    +0.000 S 
ATOM     12  O   UNL     1       1.146   9.805  22.368  0.00  0.00    +0.000 OA
ATOM     13  O   UNL     1      -0.664   8.168  21.698  0.00  0.00    +0.000 OA
BRANCH  11  14
ATOM     14  N   UNL     1      -0.781  10.492  20.781  0.00  0.00    +0.000 N 
ATOM     15  H   UNL     1      -1.711  10.217  21.110  0.00  0.00    +0.000 HD
BRANCH  14  20
ATOM     16  C   UNL     1      -0.586  14.833  23.323  0.00  0.00    +0.000 C 
ATOM     17  C   UNL     1      -0.336  13.678  22.427  0.00  0.00    +0.000 A 
ATOM     18  N   UNL     1       0.794  13.614  21.708  0.00  0.00    +0.000 NA
ATOM     19  O   UNL     1       0.733  12.415  21.015  0.00  0.00    +0.000 OA
ATOM     20  C   UNL     1      -0.443  11.783  21.289  0.00  0.00    +0.000 A 
ATOM     21  C   UNL     1      -1.135  12.537  22.202  0.00  0.00    +0.000 A 
ATOM     22 BR   UNL     1      -2.745  12.161  23.077  0.00  0.00    +0.000 Br
ENDBRANCH  14  20
ENDBRANCH  11  14
ENDBRANCH   1  11
BRANCH   6  23
ATOM     23  N   UNL     1       4.241   5.429  17.761  0.00  0.00    +0.000 N 
ATOM     24  C   UNL     1       4.025   4.221  16.963  0.00  0.00    +0.000 C 
ATOM     25  C   UNL     1       5.533   6.068  17.539  0.00  0.00    +0.000 C 
ENDBRANCH   6  23
TORSDOF 4
ENDMDL
MODEL 7
REMARK VINA RESULT:      -6.7      6.312      8.657
REMARK  Name = 
REMARK  7 active torsions:
REMARK  status: ('A' for Active; 'I' for Inactive)
REMARK    1  A    between atoms: C_1  and  C_2
REMARK    2  A    between atoms: C_5  and  N_6
REMARK    3  A    between atoms: N_6  and  S_7
REMARK    4  A    between atoms: S_7  and  C_10
REMARK    5  A    between atoms: C_15  and  N_16
REMARK    6  A    between atoms: N_16  and  C_17
REMARK    7  A    between atoms: N_16  and  C_18
REMARK                            x       y       z     vdW  Elec       q    Type
REMARK                         _______ _______ _______ _____ _____    ______ ____
ROOT
ATOM      1  C   UNL     1       1.605   8.128  19.887  0.00  0.00    +0.000 A 
ATOM      2  C   UNL     1       1.909   8.954  18.804  0.00  0.00    +0.000 A 
ATOM      3  C   UNL     1       2.636   8.447  17.749  0.00  0.00    +0.000 A 
ATOM      4  C   UNL     1       3.087   7.130  17.789  0.00  0.00    +0.000 A 
ATOM      5  C   UNL     1       2.902   6.264  18.895  0.00  0.00    +0.000 A 
ATOM      6  C   UNL     1       3.465   4.935  18.962  0.00  0.00    +0.000 A 
ATOM      7  C   UNL     1       3.113   4.146  20.077  0.00  0.00    +0.000 A 
ATOM      8  C   UNL     1       2.251   4.601  21.067  0.00  0.00    +0.000 A 
ATOM      9  C   UNL     1       1.747   5.893  21.009  0.00  0.00    +0.000 A 
ATOM     10  C   UNL     1       2.073   6.772  19.955  0.00  0.00    +0.000 A 
ENDROOT
BRANCH   1  11
ATOM     11  S   UNL     1       0.638   8.834  21.217  0.00  0.00    +0.000 S 
ATOM     12  O   UNL     1       1.526   9.045  22.341  0.00  0.00    +0.000 OA
ATOM     13  O   UNL     1      -0.570   8.050  21.332  0.00  0.00    +0.000 OA
BRANCH  11  14
ATOM     14  N   UNL     1       0.102  10.350  20.617  0.00  0.00    +0.000 N 
ATOM     15  H   UNL     1      -0.671  10.101  19.994  0.00  0.00    +0.000 HD
BRANCH  14  20
ATOM     16  C   UNL     1      -1.142  14.317  23.456  0.00  0.00    +0.000 C 
ATOM     17  C   UNL     1      -0.939  12.964  22.886  0.00  0.00    +0.000 A 
ATOM     18  N   UNL     1      -1.481  11.891  23.482  0.00  0.00    +0.000 NA
ATOM     19  O   UNL     1      -1.136  10.806  22.692  0.00  0.00    +0.000 OA
ATOM     20  C   UNL     1      -0.363  11.221  21.650  0.00  0.00    +0.000 A 
ATOM     21  C   UNL     1      -0.239  12.585  21.721  0.00  0.00    +0.000 A 
ATOM     22 BR   UNL     1       0.580  13.767  20.525  0.00  0.00    +0.000 Br
ENDBRANCH  14  20
ENDBRANCH  11  14
ENDBRANCH   1  11
BRANCH   6  23
ATOM     23  N   UNL     1       4.336   4.388  18.007  0.00  0.00    +0.000 N 
ATOM     24  C   UNL     1       5.769   4.683  17.998  0.00  0.00    +0.000 C 
ATOM     25  C   UNL     1       3.870   3.647  16.840  0.00  0.00    +0.000 C 
ENDBRANCH   6  23
TORSDOF 4
ENDMDL
MODEL 8
REMARK VINA RESULT:      -6.7      6.192      8.274
REMARK  Name = 
REMARK  7 active torsions:
REMARK  status: ('A' for Active; 'I' for Inactive)
REMARK    1  A    between atoms: C_1  and  C_2
REMARK    2  A    between atoms: C_5  and  N_6
REMARK    3  A    between atoms: N_6  and  S_7
REMARK    4  A    between atoms: S_7  and  C_10
REMARK    5  A    between atoms: C_15  and  N_16
REMARK    6  A    between atoms: N_16  and  C_17
REMARK    7  A    between atoms: N_16  and  C_18
REMARK                            x       y       z     vdW  Elec       q    Type
REMARK                         _______ _______ _______ _____ _____    ______ ____
ROOT
ATOM      1  C   UNL     1       1.642   8.399  19.826  0.00  0.00    +0.000 A 
ATOM      2  C   UNL     1       1.969   9.168  18.707  0.00  0.00    +0.000 A 
ATOM      3  C   UNL     1       2.612   8.575  17.642  0.00  0.00    +0.000 A 
ATOM      4  C   UNL     1       2.958   7.227  17.707  0.00  0.00    +0.000 A 
ATOM      5  C   UNL     1       2.748   6.411  18.845  0.00  0.00    +0.000 A 
ATOM      6  C   UNL     1       3.207   5.042  18.933  0.00  0.00    +0.000 A 
ATOM      7  C   UNL     1       2.837   4.316  20.083  0.00  0.00    +0.000 A 
ATOM      8  C   UNL     1       2.052   4.866  21.089  0.00  0.00    +0.000 A 
ATOM      9  C   UNL     1       1.651   6.193  21.010  0.00  0.00    +0.000 A 
ATOM     10  C   UNL     1       2.004   7.013  19.918  0.00  0.00    +0.000 A 
ENDROOT
BRANCH   1  11
ATOM     11  S   UNL     1       0.787   9.218  21.167  0.00  0.00    +0.000 S 
ATOM     12  O   UNL     1       1.578   9.037  22.367  0.00  0.00    +0.000 OA
ATOM     13  O   UNL     1      -0.600   8.819  21.097  0.00  0.00    +0.000 OA
BRANCH  11  14
ATOM     14  N   UNL     1       0.772  10.879  20.734  0.00  0.00    +0.000 N 
ATOM     15  H   UNL     1       1.425  10.926  19.947  0.00  0.00    +0.000 HD
BRANCH  14  20
ATOM     16  C   UNL     1      -3.790  12.990  20.456  0.00  0.00    +0.000 C 
ATOM     17  C   UNL     1      -2.512  12.286  20.190  0.00  0.00    +0.000 A 
ATOM     18  N   UNL     1      -2.219  11.861  18.953  0.00  0.00    +0.000 NA
ATOM     19  O   UNL     1      -0.962  11.284  19.039  0.00  0.00    +0.000 OA
ATOM     20  C   UNL     1      -0.520  11.333  20.327  0.00  0.00    +0.000 A 
ATOM     21  C   UNL     1      -1.460  11.986  21.082  0.00  0.00    +0.000 A 
ATOM     22 BR   UNL     1      -1.397  12.490  22.882  0.00  0.00    +0.000 Br
ENDBRANCH  14  20
ENDBRANCH  11  14
ENDBRANCH   1  11
BRANCH   6  23
ATOM     23  N   UNL     1       3.994   4.401  17.964  0.00  0.00    +0.000 N 
ATOM     24  C   UNL     1       3.430   3.447  17.008  0.00  0.00    +0.000 C 
ATOM     25  C   UNL     1       5.451   4.474  17.949  0.00  0.00    +0.000 C 
ENDBRANCH   6  23
TORSDOF 4
ENDMDL
MODEL 9
REMARK VINA RESULT:      -6.7      3.104      4.338
REMARK  Name = 
REMARK  7 active torsions:
REMARK  status: ('A' for Active; 'I' for Inactive)
REMARK    1  A    between atoms: C_1  and  C_2
REMARK    2  A    between atoms: C_5  and  N_6
REMARK    3  A    between atoms: N_6  and  S_7
REMARK    4  A    between atoms: S_7  and  C_10
REMARK    5  A    between atoms: C_15  and  N_16
REMARK    6  A    between atoms: N_16  and  C_17
REMARK    7  A    between atoms: N_16  and  C_18
REMARK                            x       y       z     vdW  Elec       q    Type
REMARK                         _______ _______ _______ _____ _____    ______ ____
ROOT
ATOM      1  C   UNL     1       2.894   4.288  19.139  0.00  0.00    +0.000 A 
ATOM      2  C   UNL     1       2.377   3.685  20.286  0.00  0.00    +0.000 A 
ATOM      3  C   UNL     1       1.625   4.434  21.165  0.00  0.00    +0.000 A 
ATOM      4  C   UNL     1       1.416   5.788  20.916  0.00  0.00    +0.000 A 
ATOM      5  C   UNL     1       1.989   6.489  19.827  0.00  0.00    +0.000 A 
ATOM      6  C   UNL     1       1.846   7.916  19.641  0.00  0.00    +0.000 A 
ATOM      7  C   UNL     1       2.381   8.463  18.457  0.00  0.00    +0.000 A 
ATOM      8  C   UNL     1       3.004   7.682  17.492  0.00  0.00    +0.000 A 
ATOM      9  C   UNL     1       3.168   6.320  17.701  0.00  0.00    +0.000 A 
ATOM     10  C   UNL     1       2.703   5.685  18.872  0.00  0.00    +0.000 A 
ENDROOT
BRANCH   1  11
ATOM     11  S   UNL     1       3.843   3.260  18.023  0.00  0.00    +0.000 S 
ATOM     12  O   UNL     1       3.239   3.362  16.711  0.00  0.00    +0.000 OA
ATOM     13  O   UNL     1       4.044   1.988  18.678  0.00  0.00    +0.000 OA
BRANCH  11  14
ATOM     14  N   UNL     1       5.406   3.969  17.991  0.00  0.00    +0.000 N 
ATOM     15  H   UNL     1       5.988   3.287  18.485  0.00  0.00    +0.000 HD
BRANCH  14  20
ATOM     16  C   UNL     1       7.713   5.653  13.845  0.00  0.00    +0.000 C 
ATOM     17  C   UNL     1       6.937   4.884  14.847  0.00  0.00    +0.000 A 
ATOM     18  N   UNL     1       6.435   3.680  14.535  0.00  0.00    +0.000 NA
ATOM     19  O   UNL     1       5.805   3.224  15.683  0.00  0.00    +0.000 OA
ATOM     20  C   UNL     1       5.899   4.164  16.665  0.00  0.00    +0.000 A 
ATOM     21  C   UNL     1       6.634   5.218  16.185  0.00  0.00    +0.000 A 
ATOM     22 BR   UNL     1       7.226   6.754  17.071  0.00  0.00    +0.000 Br
ENDBRANCH  14  20
ENDBRANCH  11  14
ENDBRANCH   1  11
BRANCH   6  23
ATOM     23  N   UNL     1       1.225   8.781  20.555  0.00  0.00    +0.000 N 
ATOM     24  C   UNL     1       0.287   9.820  20.131  0.00  0.00    +0.000 C 
ATOM     25  C   UNL     1       1.603   8.853  21.962  0.00  0.00    +0.000 C 
ENDBRANCH   6  23
TORSDOF 4
ENDMDL
