MODEL 1
REMARK VINA RESULT:      -7.7      0.000      0.000
REMARK  Name = 
REMARK  7 active torsions:
REMARK  status: ('A' for Active; 'I' for Inactive)
REMARK    1  A    between atoms: C_1  and  C_2
REMARK    2  A    between atoms: C_2  and  O_3
REMARK    3  A    between atoms: O_3  and  C_4
REMARK    4  A    between atoms: N_9  and  S_10
REMARK    5  A    between atoms: S_10  and  C_13
REMARK    6  A    between atoms: C_20  and  C_21
REMARK    7  A    between atoms: C_23  and  C_25
REMARK                            x       y       z     vdW  Elec       q    Type
REMARK                         _______ _______ _______ _____ _____    ______ ____
ROOT
ATOM      1  C   UNL     1       1.982   7.167  19.663  0.00  0.00    +0.000 A 
ATOM      2  C   UNL     1       1.481   7.233  20.974  0.00  0.00    +0.000 A 
ATOM      3  C   UNL     1       0.807   8.384  21.410  0.00  0.00    +0.000 A 
ATOM      4  C   UNL     1       0.676   9.457  20.538  0.00  0.00    +0.000 A 
ATOM      5  C   UNL     1       1.213   9.376  19.252  0.00  0.00    +0.000 A 
ATOM      6  C   UNL     1       1.839   8.235  18.781  0.00  0.00    +0.000 A 
ATOM      7  C   UNL     1       1.124  10.680  18.535  0.00  0.00    +0.000 C 
ATOM      8  C   UNL     1       0.269  11.530  19.500  0.00  0.00    +0.000 C 
ATOM      9  C   UNL     1      -1.054  11.879  18.812  0.00  0.00    +0.000 C 
ATOM     10  N   UNL     1       0.101  10.734  20.751  0.00  0.00    +0.000 N 
ATOM     11  C   UNL     1      -0.461  11.143  21.960  0.00  0.00    +0.000 C 
ATOM     12  O   UNL     1      -0.664  10.405  22.915  0.00  0.00    +0.000 OA
ENDROOT
BRANCH   1  13
ATOM     13  S   UNL     1       2.971   5.785  19.144  0.00  0.00    +0.000 S 
ATOM     14  O   UNL     1       2.440   5.314  17.884  0.00  0.00    +0.000 OA
ATOM     15  O   UNL     1       3.120   4.890  20.271  0.00  0.00    +0.000 OA
BRANCH  13  21
ATOM     16  C   UNL     1       7.045   4.754  15.976  0.00  0.00    +0.000 C 
ATOM     17  O   UNL     1       7.948   4.000  16.321  0.00  0.00    +0.000 OA
ATOM     18  N   UNL     1       5.992   5.106  16.788  0.00  0.00    +0.000 N 
ATOM     19  C   UNL     1       5.950   4.582  18.149  0.00  0.00    +0.000 C 
ATOM     20  C   UNL     1       5.718   5.707  19.155  0.00  0.00    +0.000 C 
ATOM     21  N   UNL     1       4.493   6.507  18.829  0.00  0.00    +0.000 NA
ATOM     22  C   UNL     1       4.624   7.088  17.449  0.00  0.00    +0.000 C 
ATOM     23  C   UNL     1       4.894   6.001  16.390  0.00  0.00    +0.000 C 
BRANCH  16  24
ATOM     24  O   UNL     1       7.030   5.424  14.797  0.00  0.00    +0.000 OA
BRANCH  24  26
ATOM     25  C   UNL     1       5.920   3.839  13.405  0.00  0.00    +0.000 C 
ATOM     26  C   UNL     1       7.215   4.595  13.644  0.00  0.00    +0.000 C 
ENDBRANCH  24  26
ENDBRANCH  16  24
ENDBRANCH  13  21
ENDBRANCH   1  13
BRANCH  11  27
ATOM     27  C   UNL     1      -0.827  12.596  22.101  0.00  0.00    +0.000 C 
ATOM     28  C   UNL     1      -2.274  13.038  22.044  0.00  0.00    +0.000 C 
ATOM     29  C   UNL     1      -1.545  13.046  23.354  0.00  0.00    +0.000 C 
ENDBRANCH  11  27
TORSDOF 5
ENDMDL
MODEL 2
REMARK VINA RESULT:      -7.5      2.216      9.743
REMARK  Name = 
REMARK  7 active torsions:
REMARK  status: ('A' for Active; 'I' for Inactive)
REMARK    1  A    between atoms: C_1  and  C_2
REMARK    2  A    between atoms: C_2  and  O_3
REMARK    3  A    between atoms: O_3  and  C_4
REMARK    4  A    between atoms: N_9  and  S_10
REMARK    5  A    between atoms: S_10  and  C_13
REMARK    6  A    between atoms: C_20  and  C_21
REMARK    7  A    between atoms: C_23  and  C_25
REMARK                            x       y       z     vdW  Elec       q    Type
REMARK                         _______ _______ _______ _____ _____    ______ ____
ROOT
ATOM      1  C   UNL     1       1.910   7.912  19.663  0.00  0.00    +0.000 A 
ATOM      2  C   UNL     1       2.444   8.478  18.494  0.00  0.00    +0.000 A 
ATOM      3  C   UNL     1       3.280   7.715  17.664  0.00  0.00    +0.000 A 
ATOM      4  C   UNL     1       3.590   6.414  18.035  0.00  0.00    +0.000 A 
ATOM      5  C   UNL     1       3.072   5.888  19.221  0.00  0.00    +0.000 A 
ATOM      6  C   UNL     1       2.207   6.602  20.032  0.00  0.00    +0.000 A 
ATOM      7  C   UNL     1       3.655   4.552  19.532  0.00  0.00    +0.000 C 
ATOM      8  C   UNL     1       4.465   4.240  18.255  0.00  0.00    +0.000 C 
ATOM      9  C   UNL     1       3.854   3.015  17.568  0.00  0.00    +0.000 C 
ATOM     10  N   UNL     1       4.445   5.471  17.412  0.00  0.00    +0.000 N 
ATOM     11  C   UNL     1       5.162   5.724  16.244  0.00  0.00    +0.000 C 
ATOM     12  O   UNL     1       5.018   6.717  15.543  0.00  0.00    +0.000 OA
ENDROOT
BRANCH   1  13
ATOM     13  S   UNL     1       0.980   8.908  20.804  0.00  0.00    +0.000 S 
ATOM     14  O   UNL     1       1.795   9.102  21.982  0.00  0.00    +0.000 OA
ATOM     15  O   UNL     1      -0.352   8.352  20.902  0.00  0.00    +0.000 OA
BRANCH  13  21
ATOM     16  C   UNL     1      -2.796  12.477  19.973  0.00  0.00    +0.000 C 
ATOM     17  O   UNL     1      -3.562  12.388  19.020  0.00  0.00    +0.000 OA
ATOM     18  N   UNL     1      -1.754  11.609  20.200  0.00  0.00    +0.000 N 
ATOM     19  C   UNL     1      -1.519  10.531  19.245  0.00  0.00    +0.000 C 
ATOM     20  C   UNL     1      -0.054  10.500  18.816  0.00  0.00    +0.000 C 
ATOM     21  N   UNL     1       0.873  10.413  19.991  0.00  0.00    +0.000 NA
ATOM     22  C   UNL     1       0.642  11.587  20.901  0.00  0.00    +0.000 C 
ATOM     23  C   UNL     1      -0.831  11.693  21.342  0.00  0.00    +0.000 C 
BRANCH  16  24
ATOM     24  O   UNL     1      -2.808  13.507  20.856  0.00  0.00    +0.000 OA
BRANCH  24  26
ATOM     25  C   UNL     1      -4.389  13.016  22.573  0.00  0.00    +0.000 C 
ATOM     26  C   UNL     1      -4.111  13.856  21.338  0.00  0.00    +0.000 C 
ENDBRANCH  24  26
ENDBRANCH  16  24
ENDBRANCH  13  21
ENDBRANCH   1  13
BRANCH  11  27
ATOM     27  C   UNL     1       6.195   4.711  15.828  0.00  0.00    +0.000 C 
ATOM     28  C   UNL     1       5.982   3.850  14.602  0.00  0.00    +0.000 C 
ATOM     29  C   UNL     1       6.989   4.961  14.565  0.00  0.00    +0.000 C 
ENDBRANCH  11  27
TORSDOF 5
ENDMDL
MODEL 3
REMARK VINA RESULT:      -7.4      2.234      9.702
REMARK  Name = 
REMARK  7 active torsions:
REMARK  status: ('A' for Active; 'I' for Inactive)
REMARK    1  A    between atoms: C_1  and  C_2
REMARK    2  A    between atoms: C_2  and  O_3
REMARK    3  A    between atoms: O_3  and  C_4
REMARK    4  A    between atoms: N_9  and  S_10
REMARK    5  A    between atoms: S_10  and  C_13
REMARK    6  A    between atoms: C_20  and  C_21
REMARK    7  A    between atoms: C_23  and  C_25
REMARK                            x       y       z     vdW  Elec       q    Type
REMARK                         _______ _______ _______ _____ _____    ______ ____
ROOT
ATOM      1  C   UNL     1       1.873   8.020  19.621  0.00  0.00    +0.000 A 
ATOM      2  C   UNL     1       2.408   8.560  18.440  0.00  0.00    +0.000 A 
ATOM      3  C   UNL     1       3.251   7.780  17.633  0.00  0.00    +0.000 A 
ATOM      4  C   UNL     1       3.567   6.491  18.038  0.00  0.00    +0.000 A 
ATOM      5  C   UNL     1       3.047   5.992  19.234  0.00  0.00    +0.000 A 
ATOM      6  C   UNL     1       2.175   6.722  20.024  0.00  0.00    +0.000 A 
ATOM      7  C   UNL     1       3.636   4.668  19.581  0.00  0.00    +0.000 C 
ATOM      8  C   UNL     1       4.452   4.328  18.316  0.00  0.00    +0.000 C 
ATOM      9  C   UNL     1       3.851   3.083  17.657  0.00  0.00    +0.000 C 
ATOM     10  N   UNL     1       4.429   5.537  17.442  0.00  0.00    +0.000 N 
ATOM     11  C   UNL     1       5.149   5.765  16.270  0.00  0.00    +0.000 C 
ATOM     12  O   UNL     1       5.002   6.739  15.544  0.00  0.00    +0.000 OA
ENDROOT
BRANCH   1  13
ATOM     13  S   UNL     1       0.932   9.039  20.733  0.00  0.00    +0.000 S 
ATOM     14  O   UNL     1       1.740   9.263  21.912  0.00  0.00    +0.000 OA
ATOM     15  O   UNL     1      -0.399   8.482  20.837  0.00  0.00    +0.000 OA
BRANCH  13  21
ATOM     16  C   UNL     1      -2.322  13.173  20.778  0.00  0.00    +0.000 C 
ATOM     17  O   UNL     1      -3.339  13.195  20.093  0.00  0.00    +0.000 OA
ATOM     18  N   UNL     1      -1.407  12.147  20.756  0.00  0.00    +0.000 N 
ATOM     19  C   UNL     1      -1.632  11.027  19.849  0.00  0.00    +0.000 C 
ATOM     20  C   UNL     1      -0.380  10.742  19.022  0.00  0.00    +0.000 C 
ATOM     21  N   UNL     1       0.825  10.525  19.885  0.00  0.00    +0.000 NA
ATOM     22  C   UNL     1       1.056  11.738  20.741  0.00  0.00    +0.000 C 
ATOM     23  C   UNL     1      -0.188  12.098  21.577  0.00  0.00    +0.000 C 
BRANCH  16  24
ATOM     24  O   UNL     1      -1.916  14.208  21.556  0.00  0.00    +0.000 OA
BRANCH  24  26
ATOM     25  C   UNL     1      -0.700  15.652  20.100  0.00  0.00    +0.000 C 
ATOM     26  C   UNL     1      -1.971  15.487  20.915  0.00  0.00    +0.000 C 
ENDBRANCH  24  26
ENDBRANCH  16  24
ENDBRANCH  13  21
ENDBRANCH   1  13
BRANCH  11  27
ATOM     27  C   UNL     1       6.189   4.748  15.884  0.00  0.00    +0.000 C 
ATOM     28  C   UNL     1       5.984   3.851  14.682  0.00  0.00    +0.000 C 
ATOM     29  C   UNL     1       6.983   4.967  14.615  0.00  0.00    +0.000 C 
ENDBRANCH  11  27
TORSDOF 5
ENDMDL
MODEL 4
REMARK VINA RESULT:      -7.4      1.021      1.356
REMARK  Name = 
REMARK  7 active torsions:
REMARK  status: ('A' for Active; 'I' for Inactive)
REMARK    1  A    between atoms: C_1  and  C_2
REMARK    2  A    between atoms: C_2  and  O_3
REMARK    3  A    between atoms: O_3  and  C_4
REMARK    4  A    between atoms: N_9  and  S_10
REMARK    5  A    between atoms: S_10  and  C_13
REMARK    6  A    between atoms: C_20  and  C_21
REMARK    7  A    between atoms: C_23  and  C_25
REMARK                            x       y       z     vdW  Elec       q    Type
REMARK                         _______ _______ _______ _____ _____    ______ ____
ROOT
ATOM      1  C   UNL     1       2.299   6.918  19.658  0.00  0.00    +0.000 A 
ATOM      2  C   UNL     1       1.786   6.930  20.965  0.00  0.00    +0.000 A 
ATOM      3  C   UNL     1       1.038   8.030  21.414  0.00  0.00    +0.000 A 
ATOM      4  C   UNL     1       0.847   9.107  20.560  0.00  0.00    +0.000 A 
ATOM      5  C   UNL     1       1.398   9.082  19.277  0.00  0.00    +0.000 A 
ATOM      6  C   UNL     1       2.098   7.990  18.793  0.00  0.00    +0.000 A 
ATOM      7  C   UNL     1       1.235  10.390  18.582  0.00  0.00    +0.000 C 
ATOM      8  C   UNL     1       0.321  11.168  19.552  0.00  0.00    +0.000 C 
ATOM      9  C   UNL     1      -1.016  11.447  18.859  0.00  0.00    +0.000 C 
ATOM     10  N   UNL     1       0.192  10.343  20.788  0.00  0.00    +0.000 N 
ATOM     11  C   UNL     1      -0.403  10.695  21.999  0.00  0.00    +0.000 C 
ATOM     12  O   UNL     1      -0.568   9.929  22.940  0.00  0.00    +0.000 OA
ENDROOT
BRANCH   1  13
ATOM     13  S   UNL     1       3.377   5.609  19.125  0.00  0.00    +0.000 S 
ATOM     14  O   UNL     1       2.720   4.354  19.416  0.00  0.00    +0.000 OA
ATOM     15  O   UNL     1       4.705   5.888  19.624  0.00  0.00    +0.000 OA
BRANCH  13  21
ATOM     16  C   UNL     1       6.889   4.843  15.282  0.00  0.00    +0.000 C 
ATOM     17  O   UNL     1       7.691   5.714  14.965  0.00  0.00    +0.000 OA
ATOM     18  N   UNL     1       5.911   5.013  16.233  0.00  0.00    +0.000 N 
ATOM     19  C   UNL     1       5.793   6.310  16.892  0.00  0.00    +0.000 C 
ATOM     20  C   UNL     1       4.349   6.807  16.851  0.00  0.00    +0.000 C 
ATOM     21  N   UNL     1       3.393   5.804  17.422  0.00  0.00    +0.000 NA
ATOM     22  C   UNL     1       3.501   4.514  16.657  0.00  0.00    +0.000 C 
ATOM     23  C   UNL     1       4.946   3.978  16.633  0.00  0.00    +0.000 C 
BRANCH  16  24
ATOM     24  O   UNL     1       6.791   3.644  14.654  0.00  0.00    +0.000 OA
BRANCH  24  26
ATOM     25  C   UNL     1       6.867   3.658  12.271  0.00  0.00    +0.000 C 
ATOM     26  C   UNL     1       5.959   3.653  13.489  0.00  0.00    +0.000 C 
ENDBRANCH  24  26
ENDBRANCH  16  24
ENDBRANCH  13  21
ENDBRANCH   1  13
BRANCH  11  27
ATOM     27  C   UNL     1      -0.860  12.120  22.161  0.00  0.00    +0.000 C 
ATOM     28  C   UNL     1      -2.315  12.491  21.975  0.00  0.00    +0.000 C 
ATOM     29  C   UNL     1      -1.722  12.475  23.352  0.00  0.00    +0.000 C 
ENDBRANCH  11  27
TORSDOF 5
ENDMDL
MODEL 5
REMARK VINA RESULT:      -7.4      3.014      9.775
REMARK  Name = 
REMARK  7 active torsions:
REMARK  status: ('A' for Active; 'I' for Inactive)
REMARK    1  A    between atoms: C_1  and  C_2
REMARK    2  A    between atoms: C_2  and  O_3
REMARK    3  A    between atoms: O_3  and  C_4
REMARK    4  A    between atoms: N_9  and  S_10
REMARK    5  A    between atoms: S_10  and  C_13
REMARK    6  A    between atoms: C_20  and  C_21
REMARK    7  A    between atoms: C_23  and  C_25
REMARK                            x       y       z     vdW  Elec       q    Type
REMARK                         _______ _______ _______ _____ _____    ______ ____
ROOT
ATOM      1  C   UNL     1       1.494   8.892  19.069  0.00  0.00    +0.000 A 
ATOM      2  C   UNL     1       2.172   9.202  17.879  0.00  0.00    +0.000 A 
ATOM      3  C   UNL     1       3.073   8.278  17.326  0.00  0.00    +0.000 A 
ATOM      4  C   UNL     1       3.302   7.081  17.989  0.00  0.00    +0.000 A 
ATOM      5  C   UNL     1       2.639   6.814  19.189  0.00  0.00    +0.000 A 
ATOM      6  C   UNL     1       1.709   7.685  19.730  0.00  0.00    +0.000 A 
ATOM      7  C   UNL     1       3.143   5.569  19.832  0.00  0.00    +0.000 C 
ATOM      8  C   UNL     1       4.083   4.995  18.750  0.00  0.00    +0.000 C 
ATOM      9  C   UNL     1       3.518   3.657  18.262  0.00  0.00    +0.000 C 
ATOM     10  N   UNL     1       4.193   6.025  17.676  0.00  0.00    +0.000 N 
ATOM     11  C   UNL     1       5.045   6.028  16.572  0.00  0.00    +0.000 C 
ATOM     12  O   UNL     1       5.009   6.855  15.671  0.00  0.00    +0.000 OA
ENDROOT
BRANCH   1  13
ATOM     13  S   UNL     1       0.470  10.107  19.866  0.00  0.00    +0.000 S 
ATOM     14  O   UNL     1       1.340  11.011  20.585  0.00  0.00    +0.000 OA
ATOM     15  O   UNL     1      -0.607   9.414  20.541  0.00  0.00    +0.000 OA
BRANCH  13  21
ATOM     16  C   UNL     1      -4.369  11.468  18.309  0.00  0.00    +0.000 C 
ATOM     17  O   UNL     1      -5.054  10.719  17.621  0.00  0.00    +0.000 OA
ATOM     18  N   UNL     1      -3.077  11.188  18.689  0.00  0.00    +0.000 N 
ATOM     19  C   UNL     1      -2.465   9.945  18.231  0.00  0.00    +0.000 C 
ATOM     20  C   UNL     1      -1.096  10.214  17.610  0.00  0.00    +0.000 C 
ATOM     21  N   UNL     1      -0.195  10.967  18.541  0.00  0.00    +0.000 NA
ATOM     22  C   UNL     1      -0.839  12.272  18.918  0.00  0.00    +0.000 C 
ATOM     23  C   UNL     1      -2.243  12.068  19.521  0.00  0.00    +0.000 C 
BRANCH  16  24
ATOM     24  O   UNL     1      -4.757  12.713  18.684  0.00  0.00    +0.000 OA
BRANCH  24  26
ATOM     25  C   UNL     1      -7.029  13.430  18.608  0.00  0.00    +0.000 C 
ATOM     26  C   UNL     1      -5.965  12.749  19.451  0.00  0.00    +0.000 C 
ENDBRANCH  24  26
ENDBRANCH  16  24
ENDBRANCH  13  21
ENDBRANCH   1  13
BRANCH  11  27
ATOM     27  C   UNL     1       6.088   4.945  16.496  0.00  0.00    +0.000 C 
ATOM     28  C   UNL     1       5.953   3.810  15.503  0.00  0.00    +0.000 C 
ATOM     29  C   UNL     1       6.979   4.880  15.274  0.00  0.00    +0.000 C 
ENDBRANCH  11  27
TORSDOF 5
ENDMDL
MODEL 6
REMARK VINA RESULT:      -7.2      3.665      9.117
REMARK  Name = 
REMARK  7 active torsions:
REMARK  status: ('A' for Active; 'I' for Inactive)
REMARK    1  A    between atoms: C_1  and  C_2
REMARK    2  A    between atoms: C_2  and  O_3
REMARK    3  A    between atoms: O_3  and  C_4
REMARK    4  A    between atoms: N_9  and  S_10
REMARK    5  A    between atoms: S_10  and  C_13
REMARK    6  A    between atoms: C_20  and  C_21
REMARK    7  A    between atoms: C_23  and  C_25
REMARK                            x       y       z     vdW  Elec       q    Type
REMARK                         _______ _______ _______ _____ _____    ______ ____
ROOT
ATOM      1  C   UNL     1       0.989   9.860  20.282  0.00  0.00    +0.000 A 
ATOM      2  C   UNL     1       0.880   8.867  21.270  0.00  0.00    +0.000 A 
ATOM      3  C   UNL     1       1.414   7.590  21.042  0.00  0.00    +0.000 A 
ATOM      4  C   UNL     1       2.017   7.321  19.821  0.00  0.00    +0.000 A 
ATOM      5  C   UNL     1       2.082   8.317  18.844  0.00  0.00    +0.000 A 
ATOM      6  C   UNL     1       1.606   9.599  19.061  0.00  0.00    +0.000 A 
ATOM      7  C   UNL     1       2.603   7.789  17.552  0.00  0.00    +0.000 C 
ATOM      8  C   UNL     1       3.041   6.358  17.933  0.00  0.00    +0.000 C 
ATOM      9  C   UNL     1       4.560   6.244  17.767  0.00  0.00    +0.000 C 
ATOM     10  N   UNL     1       2.572   6.114  19.328  0.00  0.00    +0.000 N 
ATOM     11  C   UNL     1       2.597   4.919  20.046  0.00  0.00    +0.000 C 
ATOM     12  O   UNL     1       2.292   4.813  21.227  0.00  0.00    +0.000 OA
ENDROOT
BRANCH   1  13
ATOM     13  S   UNL     1       0.184  11.431  20.489  0.00  0.00    +0.000 S 
ATOM     14  O   UNL     1       0.859  12.132  21.558  0.00  0.00    +0.000 OA
ATOM     15  O   UNL     1      -1.244  11.202  20.532  0.00  0.00    +0.000 OA
BRANCH  13  21
ATOM     16  C   UNL     1       0.197  16.431  18.848  0.00  0.00    +0.000 C 
ATOM     17  O   UNL     1      -0.812  16.957  18.393  0.00  0.00    +0.000 OA
ATOM     18  N   UNL     1       0.264  15.112  19.231  0.00  0.00    +0.000 N 
ATOM     19  C   UNL     1      -0.917  14.272  19.066  0.00  0.00    +0.000 C 
ATOM     20  C   UNL     1      -0.562  12.976  18.342  0.00  0.00    +0.000 C 
ATOM     21  N   UNL     1       0.552  12.239  19.023  0.00  0.00    +0.000 NA
ATOM     22  C   UNL     1       1.767  13.121  19.097  0.00  0.00    +0.000 C 
ATOM     23  C   UNL     1       1.462  14.464  19.789  0.00  0.00    +0.000 C 
BRANCH  16  24
ATOM     24  O   UNL     1       1.402  17.050  18.924  0.00  0.00    +0.000 OA
BRANCH  24  26
ATOM     25  C   UNL     1       3.073  16.668  17.266  0.00  0.00    +0.000 C 
ATOM     26  C   UNL     1       1.895  17.538  17.671  0.00  0.00    +0.000 C 
ENDBRANCH  24  26
ENDBRANCH  16  24
ENDBRANCH  13  21
ENDBRANCH   1  13
BRANCH  11  27
ATOM     27  C   UNL     1       3.013   3.674  19.310  0.00  0.00    +0.000 C 
ATOM     28  C   UNL     1       4.348   3.019  19.593  0.00  0.00    +0.000 C 
ATOM     29  C   UNL     1       3.085   2.370  20.074  0.00  0.00    +0.000 C 
ENDBRANCH  11  27
TORSDOF 5
ENDMDL
MODEL 7
REMARK VINA RESULT:      -7.1      3.209      9.440
REMARK  Name = 
REMARK  7 active torsions:
REMARK  status: ('A' for Active; 'I' for Inactive)
REMARK    1  A    between atoms: C_1  and  C_2
REMARK    2  A    between atoms: C_2  and  O_3
REMARK    3  A    between atoms: O_3  and  C_4
REMARK    4  A    between atoms: N_9  and  S_10
REMARK    5  A    between atoms: S_10  and  C_13
REMARK    6  A    between atoms: C_20  and  C_21
REMARK    7  A    between atoms: C_23  and  C_25
REMARK                            x       y       z     vdW  Elec       q    Type
REMARK                         _______ _______ _______ _____ _____    ______ ____
ROOT
ATOM      1  C   UNL     1       1.448   9.090  19.299  0.00  0.00    +0.000 A 
ATOM      2  C   UNL     1       2.173   9.235  18.105  0.00  0.00    +0.000 A 
ATOM      3  C   UNL     1       2.957   8.174  17.627  0.00  0.00    +0.000 A 
ATOM      4  C   UNL     1       3.028   7.003  18.369  0.00  0.00    +0.000 A 
ATOM      5  C   UNL     1       2.324   6.899  19.571  0.00  0.00    +0.000 A 
ATOM      6  C   UNL     1       1.505   7.911  20.039  0.00  0.00    +0.000 A 
ATOM      7  C   UNL     1       2.663   5.645  20.301  0.00  0.00    +0.000 C 
ATOM      8  C   UNL     1       3.534   4.890  19.275  0.00  0.00    +0.000 C 
ATOM      9  C   UNL     1       2.812   3.604  18.861  0.00  0.00    +0.000 C 
ATOM     10  N   UNL     1       3.784   5.826  18.140  0.00  0.00    +0.000 N 
ATOM     11  C   UNL     1       4.640   5.652  17.054  0.00  0.00    +0.000 C 
ATOM     12  O   UNL     1       4.717   6.417  16.101  0.00  0.00    +0.000 OA
ENDROOT
BRANCH   1  13
ATOM     13  S   UNL     1       0.576  10.471  19.999  0.00  0.00    +0.000 S 
ATOM     14  O   UNL     1       1.360  10.969  21.108  0.00  0.00    +0.000 OA
ATOM     15  O   UNL     1      -0.807  10.086  20.177  0.00  0.00    +0.000 OA
BRANCH  13  21
ATOM     16  C   UNL     1       0.060  15.699  19.687  0.00  0.00    +0.000 C 
ATOM     17  O   UNL     1      -1.037  16.225  19.537  0.00  0.00    +0.000 OA
ATOM     18  N   UNL     1       0.258  14.338  19.711  0.00  0.00    +0.000 N 
ATOM     19  C   UNL     1      -0.892  13.460  19.521  0.00  0.00    +0.000 C 
ATOM     20  C   UNL     1      -0.600  12.412  18.449  0.00  0.00    +0.000 C 
ATOM     21  N   UNL     1       0.648  11.638  18.745  0.00  0.00    +0.000 NA
ATOM     22  C   UNL     1       1.813  12.583  18.852  0.00  0.00    +0.000 C 
ATOM     23  C   UNL     1       1.563  13.687  19.898  0.00  0.00    +0.000 C 
BRANCH  16  24
ATOM     24  O   UNL     1       1.228  16.388  19.731  0.00  0.00    +0.000 OA
BRANCH  24  26
ATOM     25  C   UNL     1       2.802  16.624  17.955  0.00  0.00    +0.000 C 
ATOM     26  C   UNL     1       1.509  17.152  18.552  0.00  0.00    +0.000 C 
ENDBRANCH  24  26
ENDBRANCH  16  24
ENDBRANCH  13  21
ENDBRANCH   1  13
BRANCH  11  27
ATOM     27  C   UNL     1       5.541   4.446  17.065  0.00  0.00    +0.000 C 
ATOM     28  C   UNL     1       6.269   4.013  15.810  0.00  0.00    +0.000 C 
ATOM     29  C   UNL     1       7.033   4.654  16.930  0.00  0.00    +0.000 C 
ENDBRANCH  11  27
TORSDOF 5
ENDMDL
MODEL 8
REMARK VINA RESULT:      -7.0      2.813      9.749
REMARK  Name = 
REMARK  7 active torsions:
REMARK  status: ('A' for Active; 'I' for Inactive)
REMARK    1  A    between atoms: C_1  and  C_2
REMARK    2  A    between atoms: C_2  and  O_3
REMARK    3  A    between atoms: O_3  and  C_4
REMARK    4  A    between atoms: N_9  and  S_10
REMARK    5  A    between atoms: S_10  and  C_13
REMARK    6  A    between atoms: C_20  and  C_21
REMARK    7  A    between atoms: C_23  and  C_25
REMARK                            x       y       z     vdW  Elec       q    Type
REMARK                         _______ _______ _______ _____ _____    ______ ____
ROOT
ATOM      1  C   UNL     1       1.517   8.841  19.239  0.00  0.00    +0.000 A 
ATOM      2  C   UNL     1       2.169   9.117  18.026  0.00  0.00    +0.000 A 
ATOM      3  C   UNL     1       3.038   8.168  17.466  0.00  0.00    +0.000 A 
ATOM      4  C   UNL     1       3.262   6.978  18.145  0.00  0.00    +0.000 A 
ATOM      5  C   UNL     1       2.626   6.745  19.366  0.00  0.00    +0.000 A 
ATOM      6  C   UNL     1       1.727   7.642  19.916  0.00  0.00    +0.000 A 
ATOM      7  C   UNL     1       3.124   5.501  20.018  0.00  0.00    +0.000 C 
ATOM      8  C   UNL     1       4.023   4.891  18.921  0.00  0.00    +0.000 C 
ATOM      9  C   UNL     1       3.421   3.556  18.472  0.00  0.00    +0.000 C 
ATOM     10  N   UNL     1       4.125   5.900  17.827  0.00  0.00    +0.000 N 
ATOM     11  C   UNL     1       4.946   5.867  16.701  0.00  0.00    +0.000 C 
ATOM     12  O   UNL     1       4.902   6.679  15.786  0.00  0.00    +0.000 OA
ENDROOT
BRANCH   1  13
ATOM     13  S   UNL     1       0.538  10.089  20.041  0.00  0.00    +0.000 S 
ATOM     14  O   UNL     1       1.225  10.474  21.254  0.00  0.00    +0.000 OA
ATOM     15  O   UNL     1      -0.834   9.631  20.075  0.00  0.00    +0.000 OA
BRANCH  13  21
ATOM     16  C   UNL     1      -0.423  15.257  20.278  0.00  0.00    +0.000 C 
ATOM     17  O   UNL     1      -1.542  15.710  20.064  0.00  0.00    +0.000 OA
ATOM     18  N   UNL     1      -0.104  13.924  20.167  0.00  0.00    +0.000 N 
ATOM     19  C   UNL     1      -1.141  12.989  19.745  0.00  0.00    +0.000 C 
ATOM     20  C   UNL     1      -0.641  12.110  18.600  0.00  0.00    +0.000 C 
ATOM     21  N   UNL     1       0.635  11.406  18.948  0.00  0.00    +0.000 NA
ATOM     22  C   UNL     1       1.689  12.418  19.299  0.00  0.00    +0.000 C 
ATOM     23  C   UNL     1       1.229  13.360  20.429  0.00  0.00    +0.000 C 
BRANCH  16  24
ATOM     24  O   UNL     1       0.665  16.026  20.537  0.00  0.00    +0.000 OA
BRANCH  24  26
ATOM     25  C   UNL     1       1.080  16.512  22.835  0.00  0.00    +0.000 C 
ATOM     26  C   UNL     1       0.458  17.021  21.546  0.00  0.00    +0.000 C 
ENDBRANCH  24  26
ENDBRANCH  16  24
ENDBRANCH  13  21
ENDBRANCH   1  13
BRANCH  11  27
ATOM     27  C   UNL     1       5.966   4.763  16.616  0.00  0.00    +0.000 C 
ATOM     28  C   UNL     1       5.866   3.699  15.545  0.00  0.00    +0.000 C 
ATOM     29  C   UNL     1       6.929   4.753  15.449  0.00  0.00    +0.000 C 
ENDBRANCH  11  27
TORSDOF 5
ENDMDL
MODEL 9
REMARK VINA RESULT:      -7.0      2.678      9.636
REMARK  Name = 
REMARK  7 active torsions:
REMARK  status: ('A' for Active; 'I' for Inactive)
REMARK    1  A    between atoms: C_1  and  C_2
REMARK    2  A    between atoms: C_2  and  O_3
REMARK    3  A    between atoms: O_3  and  C_4
REMARK    4  A    between atoms: N_9  and  S_10
REMARK    5  A    between atoms: S_10  and  C_13
REMARK    6  A    between atoms: C_20  and  C_21
REMARK    7  A    between atoms: C_23  and  C_25
REMARK                            x       y       z     vdW  Elec       q    Type
REMARK                         _______ _______ _______ _____ _____    ______ ____
ROOT
ATOM      1  C   UNL     1       1.581   8.441  19.646  0.00  0.00    +0.000 A 
ATOM      2  C   UNL     1       2.205   8.815  18.445  0.00  0.00    +0.000 A 
ATOM      3  C   UNL     1       3.032   7.903  17.771  0.00  0.00    +0.000 A 
ATOM      4  C   UNL     1       3.243   6.649  18.327  0.00  0.00    +0.000 A 
ATOM      5  C   UNL     1       2.636   6.316  19.540  0.00  0.00    +0.000 A 
ATOM      6  C   UNL     1       1.778   7.178  20.200  0.00  0.00    +0.000 A 
ATOM      7  C   UNL     1       3.119   5.004  20.056  0.00  0.00    +0.000 C 
ATOM      8  C   UNL     1       3.970   4.480  18.879  0.00  0.00    +0.000 C 
ATOM      9  C   UNL     1       3.319   3.208  18.325  0.00  0.00    +0.000 C 
ATOM     10  N   UNL     1       4.067   5.585  17.882  0.00  0.00    +0.000 N 
ATOM     11  C   UNL     1       4.855   5.640  16.733  0.00  0.00    +0.000 C 
ATOM     12  O   UNL     1       4.806   6.536  15.901  0.00  0.00    +0.000 OA
ENDROOT
BRANCH   1  13
ATOM     13  S   UNL     1       0.658   9.630  20.592  0.00  0.00    +0.000 S 
ATOM     14  O   UNL     1       1.585  10.303  21.475  0.00  0.00    +0.000 OA
ATOM     15  O   UNL     1      -0.522   8.973  21.111  0.00  0.00    +0.000 OA
BRANCH  13  21
ATOM     16  C   UNL     1      -1.370  14.485  20.617  0.00  0.00    +0.000 C 
ATOM     17  O   UNL     1      -2.579  14.673  20.692  0.00  0.00    +0.000 OA
ATOM     18  N   UNL     1      -0.793  13.239  20.543  0.00  0.00    +0.000 N 
ATOM     19  C   UNL     1      -1.660  12.066  20.524  0.00  0.00    +0.000 C 
ATOM     20  C   UNL     1      -1.287  11.138  19.370  0.00  0.00    +0.000 C 
ATOM     21  N   UNL     1       0.162  10.758  19.400  0.00  0.00    +0.000 NA
ATOM     22  C   UNL     1       1.009  11.998  19.340  0.00  0.00    +0.000 C 
ATOM     23  C   UNL     1       0.655  12.993  20.463  0.00  0.00    +0.000 C 
BRANCH  16  24
ATOM     24  O   UNL     1      -0.459  15.482  20.482  0.00  0.00    +0.000 OA
BRANCH  24  26
ATOM     25  C   UNL     1       0.440  17.362  19.324  0.00  0.00    +0.000 C 
ATOM     26  C   UNL     1      -0.652  16.306  19.327  0.00  0.00    +0.000 C 
ENDBRANCH  24  26
ENDBRANCH  16  24
ENDBRANCH  13  21
ENDBRANCH   1  13
BRANCH  11  27
ATOM     27  C   UNL     1       5.842   4.526  16.513  0.00  0.00    +0.000 C 
ATOM     28  C   UNL     1       7.029   4.716  15.593  0.00  0.00    +0.000 C 
ATOM     29  C   UNL     1       7.239   4.672  17.077  0.00  0.00    +0.000 C 
ENDBRANCH  11  27
TORSDOF 5
ENDMDL
