MODEL 1
REMARK VINA RESULT:      -9.2      0.000      0.000
REMARK  Name = 
REMARK  5 active torsions:
REMARK  status: ('A' for Active; 'I' for Inactive)
REMARK    1  A    between atoms: C_1  and  C_2
REMARK    2  A    between atoms: C_5  and  S_6
REMARK    3  A    between atoms: S_6  and  N_9
REMARK    4  A    between atoms: C_11  and  N_12
REMARK    5  A    between atoms: C_13  and  C_15
REMARK                            x       y       z     vdW  Elec       q    Type
REMARK                         _______ _______ _______ _____ _____    ______ ____
ROOT
ATOM      1  N   UNL     1       6.778   5.708  17.469  0.00  0.00    +0.000 N 
ATOM      2  C   UNL     1       7.253   6.995  17.459  0.00  0.00    +0.000 A 
ATOM      3  C   UNL     1       8.074   7.128  18.551  0.00  0.00    +0.000 A 
ATOM      4  C   UNL     1       8.011   5.862  19.183  0.00  0.00    +0.000 A 
ATOM      5  N   UNL     1       7.228   4.989  18.537  0.00  0.00    +0.000 NA
ENDROOT
BRANCH   3   6
ATOM      6  N   UNL     1       8.795   8.242  18.949  0.00  0.00    +0.000 N 
ATOM      7  C   UNL     1       8.603   9.523  18.459  0.00  0.00    +0.000 C 
ATOM      8  O   UNL     1       7.777   9.859  17.614  0.00  0.00    +0.000 OA
ATOM      9  H   UNL     1       9.528   8.135  19.646  0.00  0.00    +0.000 HD
BRANCH   7  10
ATOM     10  C   UNL     1       9.513  10.555  19.052  0.00  0.00    +0.000 A 
ATOM     11  C   UNL     1      10.437  11.203  18.236  0.00  0.00    +0.000 A 
ATOM     12  C   UNL     1      11.252  12.177  18.803  0.00  0.00    +0.000 A 
ATOM     13  C   UNL     1      11.119  12.468  20.156  0.00  0.00    +0.000 A 
ATOM     14  C   UNL     1      10.177  11.766  20.895  0.00  0.00    +0.000 A 
ATOM     15  N   UNL     1       9.365  10.812  20.384  0.00  0.00    +0.000 NA
ENDBRANCH   7  10
ENDBRANCH   3   6
BRANCH   1  16
ATOM     16  S   UNL     1       5.704   5.156  16.231  0.00  0.00    +0.000 S 
ATOM     17  O   UNL     1       6.395   4.043  15.603  0.00  0.00    +0.000 OA
ATOM     18  O   UNL     1       5.326   6.345  15.489  0.00  0.00    +0.000 OA
BRANCH  16  23
ATOM     19  C   UNL     1       0.845   2.987  19.146  0.00  0.00    +0.000 C 
ATOM     20  C   UNL     1       2.038   3.549  18.433  0.00  0.00    +0.000 A 
ATOM     21  C   UNL     1       2.214   4.931  18.283  0.00  0.00    +0.000 A 
ATOM     22  C   UNL     1       3.327   5.431  17.599  0.00  0.00    +0.000 A 
ATOM     23  C   UNL     1       4.263   4.543  17.055  0.00  0.00    +0.000 A 
ATOM     24  C   UNL     1       4.113   3.166  17.221  0.00  0.00    +0.000 A 
ATOM     25  C   UNL     1       2.999   2.685  17.900  0.00  0.00    +0.000 A 
ATOM     26  F   UNL     1       2.854   1.360  18.043  0.00  0.00    +0.000 F 
ENDBRANCH  16  23
ENDBRANCH   1  16
TORSDOF 4
ENDMDL
MODEL 2
REMARK VINA RESULT:      -8.9      0.773      1.093
REMARK  Name = 
REMARK  5 active torsions:
REMARK  status: ('A' for Active; 'I' for Inactive)
REMARK    1  A    between atoms: C_1  and  C_2
REMARK    2  A    between atoms: C_5  and  S_6
REMARK    3  A    between atoms: S_6  and  N_9
REMARK    4  A    between atoms: C_11  and  N_12
REMARK    5  A    between atoms: C_13  and  C_15
REMARK                            x       y       z     vdW  Elec       q    Type
REMARK                         _______ _______ _______ _____ _____    ______ ____
ROOT
ATOM      1  N   UNL     1       6.623   5.634  17.583  0.00  0.00    +0.000 N 
ATOM      2  C   UNL     1       7.054   6.936  17.549  0.00  0.00    +0.000 A 
ATOM      3  C   UNL     1       8.003   7.069  18.532  0.00  0.00    +0.000 A 
ATOM      4  C   UNL     1       8.060   5.786  19.130  0.00  0.00    +0.000 A 
ATOM      5  N   UNL     1       7.227   4.904  18.564  0.00  0.00    +0.000 NA
ENDROOT
BRANCH   3   6
ATOM      6  N   UNL     1       8.736   8.196  18.867  0.00  0.00    +0.000 N 
ATOM      7  C   UNL     1       8.519   9.462  18.349  0.00  0.00    +0.000 C 
ATOM      8  O   UNL     1       7.658   9.771  17.530  0.00  0.00    +0.000 OA
ATOM      9  H   UNL     1       9.498   8.112  19.536  0.00  0.00    +0.000 HD
BRANCH   7  10
ATOM     10  C   UNL     1       9.449  10.513  18.874  0.00  0.00    +0.000 A 
ATOM     11  C   UNL     1       9.470  10.789  20.239  0.00  0.00    +0.000 A 
ATOM     12  C   UNL     1      10.360  11.749  20.706  0.00  0.00    +0.000 A 
ATOM     13  C   UNL     1      11.193  12.399  19.801  0.00  0.00    +0.000 A 
ATOM     14  C   UNL     1      11.097  12.066  18.456  0.00  0.00    +0.000 A 
ATOM     15  N   UNL     1      10.246  11.139  17.960  0.00  0.00    +0.000 NA
ENDBRANCH   7  10
ENDBRANCH   3   6
BRANCH   1  16
ATOM     16  S   UNL     1       5.417   5.078  16.475  0.00  0.00    +0.000 S 
ATOM     17  O   UNL     1       5.975   3.873  15.886  0.00  0.00    +0.000 OA
ATOM     18  O   UNL     1       5.065   6.236  15.674  0.00  0.00    +0.000 OA
BRANCH  16  23
ATOM     19  C   UNL     1       0.652   3.458  19.864  0.00  0.00    +0.000 C 
ATOM     20  C   UNL     1       1.832   3.881  19.042  0.00  0.00    +0.000 A 
ATOM     21  C   UNL     1       2.431   5.135  19.218  0.00  0.00    +0.000 A 
ATOM     22  C   UNL     1       3.520   5.515  18.428  0.00  0.00    +0.000 A 
ATOM     23  C   UNL     1       4.007   4.638  17.451  0.00  0.00    +0.000 A 
ATOM     24  C   UNL     1       3.436   3.376  17.284  0.00  0.00    +0.000 A 
ATOM     25  C   UNL     1       2.351   3.016  18.075  0.00  0.00    +0.000 A 
ATOM     26  F   UNL     1       1.799   1.808  17.898  0.00  0.00    +0.000 F 
ENDBRANCH  16  23
ENDBRANCH   1  16
TORSDOF 4
ENDMDL
MODEL 3
REMARK VINA RESULT:      -8.9      0.982      1.341
REMARK  Name = 
REMARK  5 active torsions:
REMARK  status: ('A' for Active; 'I' for Inactive)
REMARK    1  A    between atoms: C_1  and  C_2
REMARK    2  A    between atoms: C_5  and  S_6
REMARK    3  A    between atoms: S_6  and  N_9
REMARK    4  A    between atoms: C_11  and  N_12
REMARK    5  A    between atoms: C_13  and  C_15
REMARK                            x       y       z     vdW  Elec       q    Type
REMARK                         _______ _______ _______ _____ _____    ______ ____
ROOT
ATOM      1  N   UNL     1       6.709   5.712  17.485  0.00  0.00    +0.000 N 
ATOM      2  C   UNL     1       7.182   7.000  17.469  0.00  0.00    +0.000 A 
ATOM      3  C   UNL     1       8.048   7.122  18.526  0.00  0.00    +0.000 A 
ATOM      4  C   UNL     1       8.015   5.849  19.146  0.00  0.00    +0.000 A 
ATOM      5  N   UNL     1       7.206   4.982  18.524  0.00  0.00    +0.000 NA
ENDROOT
BRANCH   3   6
ATOM      6  N   UNL     1       8.785   8.233  18.906  0.00  0.00    +0.000 N 
ATOM      7  C   UNL     1       8.571   9.518  18.438  0.00  0.00    +0.000 C 
ATOM      8  O   UNL     1       7.710   9.863  17.633  0.00  0.00    +0.000 OA
ATOM      9  H   UNL     1       9.547   8.119  19.570  0.00  0.00    +0.000 HD
BRANCH   7  10
ATOM     10  C   UNL     1       9.504  10.546  19.004  0.00  0.00    +0.000 A 
ATOM     11  C   UNL     1      10.419  11.176  18.164  0.00  0.00    +0.000 A 
ATOM     12  C   UNL     1      11.256  12.145  18.706  0.00  0.00    +0.000 A 
ATOM     13  C   UNL     1      11.153  12.450  20.059  0.00  0.00    +0.000 A 
ATOM     14  C   UNL     1      10.218  11.765  20.822  0.00  0.00    +0.000 A 
ATOM     15  N   UNL     1       9.386  10.816  20.336  0.00  0.00    +0.000 NA
ENDBRANCH   7  10
ENDBRANCH   3   6
BRANCH   1  16
ATOM     16  S   UNL     1       5.585   5.172  16.287  0.00  0.00    +0.000 S 
ATOM     17  O   UNL     1       6.246   4.062  15.623  0.00  0.00    +0.000 OA
ATOM     18  O   UNL     1       5.180   6.368  15.571  0.00  0.00    +0.000 OA
BRANCH  16  23
ATOM     19  C   UNL     1       0.685   3.173  19.256  0.00  0.00    +0.000 C 
ATOM     20  C   UNL     1       1.895   3.644  18.506  0.00  0.00    +0.000 A 
ATOM     21  C   UNL     1       2.508   2.844  17.533  0.00  0.00    +0.000 A 
ATOM     22  C   UNL     1       3.645   3.298  16.858  0.00  0.00    +0.000 A 
ATOM     23  C   UNL     1       4.177   4.557  17.165  0.00  0.00    +0.000 A 
ATOM     24  C   UNL     1       3.560   5.374  18.112  0.00  0.00    +0.000 A 
ATOM     25  C   UNL     1       2.433   4.905  18.777  0.00  0.00    +0.000 A 
ATOM     26  F   UNL     1       1.854   5.691  19.697  0.00  0.00    +0.000 F 
ENDBRANCH  16  23
ENDBRANCH   1  16
TORSDOF 4
ENDMDL
MODEL 4
REMARK VINA RESULT:      -8.4      4.855      7.345
REMARK  Name = 
REMARK  5 active torsions:
REMARK  status: ('A' for Active; 'I' for Inactive)
REMARK    1  A    between atoms: C_1  and  C_2
REMARK    2  A    between atoms: C_5  and  S_6
REMARK    3  A    between atoms: S_6  and  N_9
REMARK    4  A    between atoms: C_11  and  N_12
REMARK    5  A    between atoms: C_13  and  C_15
REMARK                            x       y       z     vdW  Elec       q    Type
REMARK                         _______ _______ _______ _____ _____    ______ ____
ROOT
ATOM      1  N   UNL     1       2.985   4.112  19.631  0.00  0.00    +0.000 N 
ATOM      2  C   UNL     1       2.893   5.448  19.931  0.00  0.00    +0.000 A 
ATOM      3  C   UNL     1       1.683   5.637  20.550  0.00  0.00    +0.000 A 
ATOM      4  C   UNL     1       1.095   4.349  20.556  0.00  0.00    +0.000 A 
ATOM      5  N   UNL     1       1.875   3.412  20.002  0.00  0.00    +0.000 NA
ENDROOT
BRANCH   3   6
ATOM      6  N   UNL     1       1.152   6.815  21.051  0.00  0.00    +0.000 N 
ATOM      7  C   UNL     1       1.300   8.060  20.463  0.00  0.00    +0.000 C 
ATOM      8  O   UNL     1       1.911   8.304  19.425  0.00  0.00    +0.000 OA
ATOM      9  H   UNL     1       0.617   6.790  21.915  0.00  0.00    +0.000 HD
BRANCH   7  10
ATOM     10  C   UNL     1       0.630   9.178  21.203  0.00  0.00    +0.000 A 
ATOM     11  C   UNL     1       0.035   8.923  22.436  0.00  0.00    +0.000 A 
ATOM     12  C   UNL     1      -0.557   9.981  23.116  0.00  0.00    +0.000 A 
ATOM     13  C   UNL     1      -0.537  11.250  22.547  0.00  0.00    +0.000 A 
ATOM     14  C   UNL     1       0.072  11.409  21.309  0.00  0.00    +0.000 A 
ATOM     15  N   UNL     1       0.658  10.408  20.614  0.00  0.00    +0.000 NA
ENDBRANCH   7  10
ENDBRANCH   3   6
BRANCH   1  16
ATOM     16  S   UNL     1       4.388   3.482  18.841  0.00  0.00    +0.000 S 
ATOM     17  O   UNL     1       3.891   2.877  17.617  0.00  0.00    +0.000 OA
ATOM     18  O   UNL     1       5.088   2.712  19.853  0.00  0.00    +0.000 OA
BRANCH  16  23
ATOM     19  C   UNL     1       7.941   8.178  17.377  0.00  0.00    +0.000 C 
ATOM     20  C   UNL     1       7.046   7.024  17.717  0.00  0.00    +0.000 A 
ATOM     21  C   UNL     1       5.822   6.833  17.063  0.00  0.00    +0.000 A 
ATOM     22  C   UNL     1       4.996   5.759  17.410  0.00  0.00    +0.000 A 
ATOM     23  C   UNL     1       5.394   4.877  18.422  0.00  0.00    +0.000 A 
ATOM     24  C   UNL     1       6.622   5.042  19.062  0.00  0.00    +0.000 A 
ATOM     25  C   UNL     1       7.429   6.117  18.709  0.00  0.00    +0.000 A 
ATOM     26  F   UNL     1       8.602   6.276  19.338  0.00  0.00    +0.000 F 
ENDBRANCH  16  23
ENDBRANCH   1  16
TORSDOF 4
ENDMDL
MODEL 5
REMARK VINA RESULT:      -8.4      1.556      2.004
REMARK  Name = 
REMARK  5 active torsions:
REMARK  status: ('A' for Active; 'I' for Inactive)
REMARK    1  A    between atoms: C_1  and  C_2
REMARK    2  A    between atoms: C_5  and  S_6
REMARK    3  A    between atoms: S_6  and  N_9
REMARK    4  A    between atoms: C_11  and  N_12
REMARK    5  A    between atoms: C_13  and  C_15
REMARK                            x       y       z     vdW  Elec       q    Type
REMARK                         _______ _______ _______ _____ _____    ______ ____
ROOT
ATOM      1  N   UNL     1       6.438   5.517  17.908  0.00  0.00    +0.000 N 
ATOM      2  C   UNL     1       6.772   6.847  17.943  0.00  0.00    +0.000 A 
ATOM      3  C   UNL     1       7.958   6.946  18.627  0.00  0.00    +0.000 A 
ATOM      4  C   UNL     1       8.253   5.610  18.994  0.00  0.00    +0.000 A 
ATOM      5  N   UNL     1       7.340   4.731  18.564  0.00  0.00    +0.000 NA
ENDROOT
BRANCH   3   6
ATOM      6  N   UNL     1       8.696   8.085  18.901  0.00  0.00    +0.000 N 
ATOM      7  C   UNL     1       8.469   9.328  18.334  0.00  0.00    +0.000 C 
ATOM      8  O   UNL     1       7.592   9.603  17.518  0.00  0.00    +0.000 OA
ATOM      9  H   UNL     1       9.470   8.029  19.559  0.00  0.00    +0.000 HD
BRANCH   7  10
ATOM     10  C   UNL     1       9.408  10.401  18.796  0.00  0.00    +0.000 A 
ATOM     11  C   UNL     1       9.479  10.711  20.152  0.00  0.00    +0.000 A 
ATOM     12  C   UNL     1      10.377  11.690  20.561  0.00  0.00    +0.000 A 
ATOM     13  C   UNL     1      11.168  12.324  19.609  0.00  0.00    +0.000 A 
ATOM     14  C   UNL     1      11.024  11.957  18.278  0.00  0.00    +0.000 A 
ATOM     15  N   UNL     1      10.163  11.010  17.838  0.00  0.00    +0.000 NA
ENDBRANCH   7  10
ENDBRANCH   3   6
BRANCH   1  16
ATOM     16  S   UNL     1       4.993   4.992  17.117  0.00  0.00    +0.000 S 
ATOM     17  O   UNL     1       5.415   3.913  16.241  0.00  0.00    +0.000 OA
ATOM     18  O   UNL     1       4.372   6.201  16.607  0.00  0.00    +0.000 OA
BRANCH  16  23
ATOM     19  C   UNL     1       1.288   2.762  21.373  0.00  0.00    +0.000 C 
ATOM     20  C   UNL     1       2.212   3.287  20.316  0.00  0.00    +0.000 A 
ATOM     21  C   UNL     1       3.137   2.452  19.675  0.00  0.00    +0.000 A 
ATOM     22  C   UNL     1       4.001   2.968  18.704  0.00  0.00    +0.000 A 
ATOM     23  C   UNL     1       3.945   4.329  18.379  0.00  0.00    +0.000 A 
ATOM     24  C   UNL     1       3.011   5.165  18.991  0.00  0.00    +0.000 A 
ATOM     25  C   UNL     1       2.162   4.637  19.958  0.00  0.00    +0.000 A 
ATOM     26  F   UNL     1       1.277   5.450  20.552  0.00  0.00    +0.000 F 
ENDBRANCH  16  23
ENDBRANCH   1  16
TORSDOF 4
ENDMDL
MODEL 6
REMARK VINA RESULT:      -8.3      4.749      7.262
REMARK  Name = 
REMARK  5 active torsions:
REMARK  status: ('A' for Active; 'I' for Inactive)
REMARK    1  A    between atoms: C_1  and  C_2
REMARK    2  A    between atoms: C_5  and  S_6
REMARK    3  A    between atoms: S_6  and  N_9
REMARK    4  A    between atoms: C_11  and  N_12
REMARK    5  A    between atoms: C_13  and  C_15
REMARK                            x       y       z     vdW  Elec       q    Type
REMARK                         _______ _______ _______ _____ _____    ______ ____
ROOT
ATOM      1  N   UNL     1       3.006   3.898  19.741  0.00  0.00    +0.000 N 
ATOM      2  C   UNL     1       2.957   5.240  20.025  0.00  0.00    +0.000 A 
ATOM      3  C   UNL     1       1.728   5.487  20.583  0.00  0.00    +0.000 A 
ATOM      4  C   UNL     1       1.086   4.225  20.572  0.00  0.00    +0.000 A 
ATOM      5  N   UNL     1       1.850   3.250  20.064  0.00  0.00    +0.000 NA
ENDROOT
BRANCH   3   6
ATOM      6  N   UNL     1       1.225   6.692  21.048  0.00  0.00    +0.000 N 
ATOM      7  C   UNL     1       1.403   7.915  20.424  0.00  0.00    +0.000 C 
ATOM      8  O   UNL     1       2.021   8.113  19.381  0.00  0.00    +0.000 OA
ATOM      9  H   UNL     1       0.688   6.705  21.912  0.00  0.00    +0.000 HD
BRANCH   7  10
ATOM     10  C   UNL     1       0.759   9.070  21.129  0.00  0.00    +0.000 A 
ATOM     11  C   UNL     1       0.215   8.881  22.397  0.00  0.00    +0.000 A 
ATOM     12  C   UNL     1      -0.353   9.973  23.043  0.00  0.00    +0.000 A 
ATOM     13  C   UNL     1      -0.361  11.209  22.405  0.00  0.00    +0.000 A 
ATOM     14  C   UNL     1       0.197  11.303  21.137  0.00  0.00    +0.000 A 
ATOM     15  N   UNL     1       0.759  10.266  20.474  0.00  0.00    +0.000 NA
ENDBRANCH   7  10
ENDBRANCH   3   6
BRANCH   1  16
ATOM     16  S   UNL     1       4.416   3.202  19.025  0.00  0.00    +0.000 S 
ATOM     17  O   UNL     1       3.935   2.510  17.841  0.00  0.00    +0.000 OA
ATOM     18  O   UNL     1       5.093   2.504  20.103  0.00  0.00    +0.000 OA
BRANCH  16  23
ATOM     19  C   UNL     1       7.817   7.921  17.300  0.00  0.00    +0.000 C 
ATOM     20  C   UNL     1       6.992   6.753  17.749  0.00  0.00    +0.000 A 
ATOM     21  C   UNL     1       7.325   6.025  18.899  0.00  0.00    +0.000 A 
ATOM     22  C   UNL     1       6.550   4.928  19.290  0.00  0.00    +0.000 A 
ATOM     23  C   UNL     1       5.441   4.554  18.520  0.00  0.00    +0.000 A 
ATOM     24  C   UNL     1       5.084   5.287  17.389  0.00  0.00    +0.000 A 
ATOM     25  C   UNL     1       5.868   6.372  17.012  0.00  0.00    +0.000 A 
ATOM     26  F   UNL     1       5.526   7.063  15.915  0.00  0.00    +0.000 F 
ENDBRANCH  16  23
ENDBRANCH   1  16
TORSDOF 4
ENDMDL
MODEL 7
REMARK VINA RESULT:      -8.1      4.793      6.646
REMARK  Name = 
REMARK  5 active torsions:
REMARK  status: ('A' for Active; 'I' for Inactive)
REMARK    1  A    between atoms: C_1  and  C_2
REMARK    2  A    between atoms: C_5  and  S_6
REMARK    3  A    between atoms: S_6  and  N_9
REMARK    4  A    between atoms: C_11  and  N_12
REMARK    5  A    between atoms: C_13  and  C_15
REMARK                            x       y       z     vdW  Elec       q    Type
REMARK                         _______ _______ _______ _____ _____    ______ ____
ROOT
ATOM      1  N   UNL     1       5.919   5.135  17.974  0.00  0.00    +0.000 N 
ATOM      2  C   UNL     1       5.140   6.247  18.173  0.00  0.00    +0.000 A 
ATOM      3  C   UNL     1       4.199   5.914  19.116  0.00  0.00    +0.000 A 
ATOM      4  C   UNL     1       4.476   4.557  19.411  0.00  0.00    +0.000 A 
ATOM      5  N   UNL     1       5.518   4.070  18.726  0.00  0.00    +0.000 NA
ENDROOT
BRANCH   3   6
ATOM      6  N   UNL     1       3.205   6.715  19.654  0.00  0.00    +0.000 N 
ATOM      7  C   UNL     1       2.491   7.668  18.947  0.00  0.00    +0.000 C 
ATOM      8  O   UNL     1       2.628   7.941  17.757  0.00  0.00    +0.000 OA
ATOM      9  H   UNL     1       2.969   6.618  20.638  0.00  0.00    +0.000 HD
BRANCH   7  10
ATOM     10  C   UNL     1       1.468   8.403  19.759  0.00  0.00    +0.000 A 
ATOM     11  C   UNL     1       1.198   7.986  21.060  0.00  0.00    +0.000 A 
ATOM     12  C   UNL     1       0.265   8.700  21.803  0.00  0.00    +0.000 A 
ATOM     13  C   UNL     1      -0.364   9.799  21.227  0.00  0.00    +0.000 A 
ATOM     14  C   UNL     1      -0.038  10.138  19.921  0.00  0.00    +0.000 A 
ATOM     15  N   UNL     1       0.863   9.471  19.163  0.00  0.00    +0.000 NA
ENDBRANCH   7  10
ENDBRANCH   3   6
BRANCH   1  16
ATOM     16  S   UNL     1       7.230   5.170  16.848  0.00  0.00    +0.000 S 
ATOM     17  O   UNL     1       8.175   4.181  17.339  0.00  0.00    +0.000 OA
ATOM     18  O   UNL     1       7.583   6.571  16.710  0.00  0.00    +0.000 OA
BRANCH  16  23
ATOM     19  C   UNL     1       5.097   3.192  11.523  0.00  0.00    +0.000 C 
ATOM     20  C   UNL     1       5.602   3.669  12.852  0.00  0.00    +0.000 A 
ATOM     21  C   UNL     1       4.858   3.484  14.024  0.00  0.00    +0.000 A 
ATOM     22  C   UNL     1       5.342   3.952  15.250  0.00  0.00    +0.000 A 
ATOM     23  C   UNL     1       6.574   4.616  15.300  0.00  0.00    +0.000 A 
ATOM     24  C   UNL     1       7.337   4.782  14.144  0.00  0.00    +0.000 A 
ATOM     25  C   UNL     1       6.839   4.315  12.933  0.00  0.00    +0.000 A 
ATOM     26  F   UNL     1       7.571   4.491  11.825  0.00  0.00    +0.000 F 
ENDBRANCH  16  23
ENDBRANCH   1  16
TORSDOF 4
ENDMDL
MODEL 8
REMARK VINA RESULT:      -8.1      2.141      2.620
REMARK  Name = 
REMARK  5 active torsions:
REMARK  status: ('A' for Active; 'I' for Inactive)
REMARK    1  A    between atoms: C_1  and  C_2
REMARK    2  A    between atoms: C_5  and  S_6
REMARK    3  A    between atoms: S_6  and  N_9
REMARK    4  A    between atoms: C_11  and  N_12
REMARK    5  A    between atoms: C_13  and  C_15
REMARK                            x       y       z     vdW  Elec       q    Type
REMARK                         _______ _______ _______ _____ _____    ______ ____
ROOT
ATOM      1  N   UNL     1       7.326   6.838  18.191  0.00  0.00    +0.000 N 
ATOM      2  C   UNL     1       8.387   7.628  18.557  0.00  0.00    +0.000 A 
ATOM      3  C   UNL     1       8.229   8.832  17.919  0.00  0.00    +0.000 A 
ATOM      4  C   UNL     1       7.045   8.666  17.160  0.00  0.00    +0.000 A 
ATOM      5  N   UNL     1       6.485   7.460  17.316  0.00  0.00    +0.000 NA
ENDROOT
BRANCH   3   6
ATOM      6  N   UNL     1       9.040   9.953  17.992  0.00  0.00    +0.000 N 
ATOM      7  C   UNL     1       9.396  10.594  19.167  0.00  0.00    +0.000 C 
ATOM      8  O   UNL     1       9.054  10.269  20.302  0.00  0.00    +0.000 OA
ATOM      9  H   UNL     1       9.408  10.357  17.134  0.00  0.00    +0.000 HD
BRANCH   7  10
ATOM     10  C   UNL     1      10.284  11.787  18.978  0.00  0.00    +0.000 A 
ATOM     11  C   UNL     1      10.222  12.504  17.786  0.00  0.00    +0.000 A 
ATOM     12  C   UNL     1      11.035  13.622  17.644  0.00  0.00    +0.000 A 
ATOM     13  C   UNL     1      11.878  13.985  18.689  0.00  0.00    +0.000 A 
ATOM     14  C   UNL     1      11.880  13.206  19.838  0.00  0.00    +0.000 A 
ATOM     15  N   UNL     1      11.106  12.111  20.017  0.00  0.00    +0.000 NA
ENDBRANCH   7  10
ENDBRANCH   3   6
BRANCH   1  16
ATOM     16  S   UNL     1       7.174   5.230  18.806  0.00  0.00    +0.000 S 
ATOM     17  O   UNL     1       7.456   5.342  20.227  0.00  0.00    +0.000 OA
ATOM     18  O   UNL     1       7.975   4.401  17.924  0.00  0.00    +0.000 OA
BRANCH  16  23
ATOM     19  C   UNL     1       1.322   3.797  18.086  0.00  0.00    +0.000 C 
ATOM     20  C   UNL     1       2.773   4.140  18.238  0.00  0.00    +0.000 A 
ATOM     21  C   UNL     1       3.723   3.728  17.295  0.00  0.00    +0.000 A 
ATOM     22  C   UNL     1       5.074   4.046  17.468  0.00  0.00    +0.000 A 
ATOM     23  C   UNL     1       5.477   4.773  18.595  0.00  0.00    +0.000 A 
ATOM     24  C   UNL     1       4.537   5.211  19.527  0.00  0.00    +0.000 A 
ATOM     25  C   UNL     1       3.199   4.883  19.343  0.00  0.00    +0.000 A 
ATOM     26  F   UNL     1       2.303   5.296  20.251  0.00  0.00    +0.000 F 
ENDBRANCH  16  23
ENDBRANCH   1  16
TORSDOF 4
ENDMDL
MODEL 9
REMARK VINA RESULT:      -8.1      5.200      6.961
REMARK  Name = 
REMARK  5 active torsions:
REMARK  status: ('A' for Active; 'I' for Inactive)
REMARK    1  A    between atoms: C_1  and  C_2
REMARK    2  A    between atoms: C_5  and  S_6
REMARK    3  A    between atoms: S_6  and  N_9
REMARK    4  A    between atoms: C_11  and  N_12
REMARK    5  A    between atoms: C_13  and  C_15
REMARK                            x       y       z     vdW  Elec       q    Type
REMARK                         _______ _______ _______ _____ _____    ______ ____
ROOT
ATOM      1  N   UNL     1       3.599   4.698  19.371  0.00  0.00    +0.000 N 
ATOM      2  C   UNL     1       3.613   4.625  18.001  0.00  0.00    +0.000 A 
ATOM      3  C   UNL     1       4.919   4.439  17.623  0.00  0.00    +0.000 A 
ATOM      4  C   UNL     1       5.634   4.438  18.845  0.00  0.00    +0.000 A 
ATOM      5  N   UNL     1       4.845   4.594  19.916  0.00  0.00    +0.000 NA
ENDROOT
BRANCH   3   6
ATOM      6  N   UNL     1       5.427   4.289  16.342  0.00  0.00    +0.000 N 
ATOM      7  C   UNL     1       6.158   5.251  15.666  0.00  0.00    +0.000 C 
ATOM      8  O   UNL     1       6.464   6.362  16.092  0.00  0.00    +0.000 OA
ATOM      9  H   UNL     1       5.258   3.421  15.840  0.00  0.00    +0.000 HD
BRANCH   7  10
ATOM     10  C   UNL     1       6.593   4.844  14.290  0.00  0.00    +0.000 A 
ATOM     11  C   UNL     1       5.897   3.842  13.620  0.00  0.00    +0.000 A 
ATOM     12  C   UNL     1       6.302   3.500  12.335  0.00  0.00    +0.000 A 
ATOM     13  C   UNL     1       7.382   4.166  11.765  0.00  0.00    +0.000 A 
ATOM     14  C   UNL     1       8.022   5.147  12.511  0.00  0.00    +0.000 A 
ATOM     15  N   UNL     1       7.661   5.510  13.763  0.00  0.00    +0.000 NA
ENDBRANCH   7  10
ENDBRANCH   3   6
BRANCH   1  16
ATOM     16  S   UNL     1       2.113   4.926  20.224  0.00  0.00    +0.000 S 
ATOM     17  O   UNL     1       2.410   4.565  21.600  0.00  0.00    +0.000 OA
ATOM     18  O   UNL     1       1.108   4.227  19.444  0.00  0.00    +0.000 OA
BRANCH  16  23
ATOM     19  C   UNL     1       0.818  10.842  19.857  0.00  0.00    +0.000 C 
ATOM     20  C   UNL     1       1.123   9.379  19.972  0.00  0.00    +0.000 A 
ATOM     21  C   UNL     1       0.751   8.643  21.104  0.00  0.00    +0.000 A 
ATOM     22  C   UNL     1       1.061   7.282  21.196  0.00  0.00    +0.000 A 
ATOM     23  C   UNL     1       1.755   6.658  20.152  0.00  0.00    +0.000 A 
ATOM     24  C   UNL     1       2.108   7.374  19.008  0.00  0.00    +0.000 A 
ATOM     25  C   UNL     1       1.796   8.727  18.935  0.00  0.00    +0.000 A 
ATOM     26  F   UNL     1       2.151   9.411  17.838  0.00  0.00    +0.000 F 
ENDBRANCH  16  23
ENDBRANCH   1  16
TORSDOF 4
ENDMDL
