MODEL 1
REMARK VINA RESULT:      -7.7      0.000      0.000
REMARK  Name = 
REMARK  8 active torsions:
REMARK  status: ('A' for Active; 'I' for Inactive)
REMARK    1  A    between atoms: C_1  and  O_2
REMARK    2  A    between atoms: O_2  and  C_3
REMARK    3  A    between atoms: C_9  and  C_10
REMARK    4  A    between atoms: C_10  and  C_11
REMARK    5  A    between atoms: C_10  and  N_12
REMARK    6  A    between atoms: N_12  and  C_13
REMARK    7  A    between atoms: C_16  and  C_17
REMARK    8  A    between atoms: N_19  and  C_20
REMARK                            x       y       z     vdW  Elec       q    Type
REMARK                         _______ _______ _______ _____ _____    ______ ____
ROOT
ATOM      1  C   UNL     1       4.370   4.715  18.577  0.00  0.00    +0.000 A 
ATOM      2  C   UNL     1       3.595   5.354  19.565  0.00  0.00    +0.000 A 
ATOM      3  C   UNL     1       3.006   6.595  19.310  0.00  0.00    +0.000 A 
ATOM      4  N   UNL     1       2.228   7.240  20.279  0.00  0.00    +0.000 N 
ATOM      5  C   UNL     1       1.585   8.434  20.063  0.00  0.00    +0.000 A 
ATOM      6  O   UNL     1       0.976   9.000  20.966  0.00  0.00    +0.000 OA
ATOM      7  C   UNL     1       1.631   8.999  18.676  0.00  0.00    +0.000 A 
ATOM      8  C   UNL     1       2.443   8.434  17.765  0.00  0.00    +0.000 A 
ATOM      9  C   UNL     1       3.173   7.209  18.068  0.00  0.00    +0.000 A 
ATOM     10  C   UNL     1       3.952   6.593  17.094  0.00  0.00    +0.000 A 
ATOM     11  C   UNL     1       4.540   5.346  17.333  0.00  0.00    +0.000 A 
ATOM     12 CL   UNL     1       5.358   4.668  15.970  0.00  0.00    +0.000 Cl
ATOM     13  H   UNL     1       2.132   6.848  21.207  0.00  0.00    +0.000 HD
ENDROOT
BRANCH   1  15
ATOM     14  C   UNL     1       3.874   2.623  19.619  0.00  0.00    +0.000 C 
ATOM     15  O   UNL     1       4.808   3.474  18.963  0.00  0.00    +0.000 OA
ENDBRANCH   1  15
BRANCH   7  16
ATOM     16  C   UNL     1       0.680  10.140  18.394  0.00  0.00    +0.000 C 
ATOM     17  C   UNL     1       1.334  11.444  18.864  0.00  0.00    +0.000 C 
BRANCH  16  18
ATOM     18  N   UNL     1      -0.605   9.952  19.088  0.00  0.00    +0.000 N 
ATOM     19  H   UNL     1      -0.550  10.075  20.106  0.00  0.00    +0.000 HD
BRANCH  18  20
ATOM     20  C   UNL     1      -1.816  10.478  18.629  0.00  0.00    +0.000 A 
ATOM     21  C   UNL     1      -2.448  10.127  17.498  0.00  0.00    +0.000 A 
ATOM     22  C   UNL     1      -3.706  10.702  17.104  0.00  0.00    +0.000 A 
ATOM     23  C   UNL     1      -4.318  11.618  17.879  0.00  0.00    +0.000 A 
ATOM     24  N   UNL     1      -3.720  12.048  19.057  0.00  0.00    +0.000 N 
ATOM     25  C   UNL     1      -4.335  13.056  19.910  0.00  0.00    +0.000 C 
ATOM     26  C   UNL     1      -2.473  11.565  19.477  0.00  0.00    +0.000 A 
ATOM     27  O   UNL     1      -1.877  11.979  20.473  0.00  0.00    +0.000 OA
BRANCH  23  28
ATOM     28  C   UNL     1      -5.586  12.141  17.441  0.00  0.00    +0.000 C 
ATOM     29  N   UNL     1      -6.612  12.557  17.095  0.00  0.00    +0.000 NA
ENDBRANCH  23  28
ENDBRANCH  18  20
ENDBRANCH  16  18
ENDBRANCH   7  16
TORSDOF 5
ENDMDL
MODEL 2
REMARK VINA RESULT:      -7.5      0.974      1.011
REMARK  Name = 
REMARK  8 active torsions:
REMARK  status: ('A' for Active; 'I' for Inactive)
REMARK    1  A    between atoms: C_1  and  O_2
REMARK    2  A    between atoms: O_2  and  C_3
REMARK    3  A    between atoms: C_9  and  C_10
REMARK    4  A    between atoms: C_10  and  C_11
REMARK    5  A    between atoms: C_10  and  N_12
REMARK    6  A    between atoms: N_12  and  C_13
REMARK    7  A    between atoms: C_16  and  C_17
REMARK    8  A    between atoms: N_19  and  C_20
REMARK                            x       y       z     vdW  Elec       q    Type
REMARK                         _______ _______ _______ _____ _____    ______ ____
ROOT
ATOM      1  C   UNL     1       3.102   4.443  19.434  0.00  0.00    +0.000 A 
ATOM      2  C   UNL     1       2.526   5.368  20.327  0.00  0.00    +0.000 A 
ATOM      3  C   UNL     1       2.249   6.673  19.914  0.00  0.00    +0.000 A 
ATOM      4  N   UNL     1       1.671   7.602  20.788  0.00  0.00    +0.000 N 
ATOM      5  C   UNL     1       1.332   8.881  20.419  0.00  0.00    +0.000 A 
ATOM      6  O   UNL     1       0.898   9.684  21.239  0.00  0.00    +0.000 OA
ATOM      7  C   UNL     1       1.484   9.242  18.973  0.00  0.00    +0.000 A 
ATOM      8  C   UNL     1       2.114   8.389  18.147  0.00  0.00    +0.000 A 
ATOM      9  C   UNL     1       2.533   7.070  18.607  0.00  0.00    +0.000 A 
ATOM     10  C   UNL     1       3.118   6.169  17.725  0.00  0.00    +0.000 A 
ATOM     11  C   UNL     1       3.393   4.855  18.122  0.00  0.00    +0.000 A 
ATOM     12 CL   UNL     1       3.992   3.837  16.862  0.00  0.00    +0.000 Cl
ATOM     13  H   UNL     1       1.504   7.362  21.757  0.00  0.00    +0.000 HD
ENDROOT
BRANCH   1  15
ATOM     14  C   UNL     1       2.190   2.255  19.731  0.00  0.00    +0.000 C 
ATOM     15  O   UNL     1       3.235   3.190  19.975  0.00  0.00    +0.000 OA
ENDBRANCH   1  15
BRANCH   7  16
ATOM     16  C   UNL     1       0.830  10.536  18.542  0.00  0.00    +0.000 C 
ATOM     17  C   UNL     1       1.897  11.636  18.529  0.00  0.00    +0.000 C 
BRANCH  16  18
ATOM     18  N   UNL     1      -0.261  10.916  19.455  0.00  0.00    +0.000 N 
ATOM     19  H   UNL     1      -0.012  11.660  20.116  0.00  0.00    +0.000 HD
BRANCH  18  20
ATOM     20  C   UNL     1      -1.585  11.096  19.042  0.00  0.00    +0.000 A 
ATOM     21  C   UNL     1      -2.177  10.480  18.007  0.00  0.00    +0.000 A 
ATOM     22  C   UNL     1      -3.555  10.704  17.659  0.00  0.00    +0.000 A 
ATOM     23  C   UNL     1      -4.322  11.541  18.383  0.00  0.00    +0.000 A 
ATOM     24  N   UNL     1      -3.778  12.231  19.459  0.00  0.00    +0.000 N 
ATOM     25  C   UNL     1      -4.565  13.167  20.252  0.00  0.00    +0.000 C 
ATOM     26  C   UNL     1      -2.431  12.097  19.825  0.00  0.00    +0.000 A 
ATOM     27  O   UNL     1      -1.896  12.750  20.723  0.00  0.00    +0.000 OA
BRANCH  23  28
ATOM     28  C   UNL     1      -5.699  11.708  17.997  0.00  0.00    +0.000 C 
ATOM     29  N   UNL     1      -6.805  11.844  17.677  0.00  0.00    +0.000 NA
ENDBRANCH  23  28
ENDBRANCH  18  20
ENDBRANCH  16  18
ENDBRANCH   7  16
TORSDOF 5
ENDMDL
MODEL 3
REMARK VINA RESULT:      -7.4      4.313      9.125
REMARK  Name = 
REMARK  8 active torsions:
REMARK  status: ('A' for Active; 'I' for Inactive)
REMARK    1  A    between atoms: C_1  and  O_2
REMARK    2  A    between atoms: O_2  and  C_3
REMARK    3  A    between atoms: C_9  and  C_10
REMARK    4  A    between atoms: C_10  and  C_11
REMARK    5  A    between atoms: C_10  and  N_12
REMARK    6  A    between atoms: N_12  and  C_13
REMARK    7  A    between atoms: C_16  and  C_17
REMARK    8  A    between atoms: N_19  and  C_20
REMARK                            x       y       z     vdW  Elec       q    Type
REMARK                         _______ _______ _______ _____ _____    ______ ____
ROOT
ATOM      1  C   UNL     1       0.400  10.675  20.863  0.00  0.00    +0.000 A 
ATOM      2  C   UNL     1       1.001  10.120  19.716  0.00  0.00    +0.000 A 
ATOM      3  C   UNL     1       1.411   8.785  19.707  0.00  0.00    +0.000 A 
ATOM      4  N   UNL     1       2.005   8.218  18.573  0.00  0.00    +0.000 N 
ATOM      5  C   UNL     1       2.379   6.899  18.492  0.00  0.00    +0.000 A 
ATOM      6  O   UNL     1       2.965   6.464  17.506  0.00  0.00    +0.000 OA
ATOM      7  C   UNL     1       2.015   6.010  19.642  0.00  0.00    +0.000 A 
ATOM      8  C   UNL     1       1.524   6.560  20.766  0.00  0.00    +0.000 A 
ATOM      9  C   UNL     1       1.220   7.985  20.833  0.00  0.00    +0.000 A 
ATOM     10  C   UNL     1       0.644   8.530  21.976  0.00  0.00    +0.000 A 
ATOM     11  C   UNL     1       0.220   9.863  21.996  0.00  0.00    +0.000 A 
ATOM     12 CL   UNL     1      -0.594  10.333  23.445  0.00  0.00    +0.000 Cl
ATOM     13  H   UNL     1       2.208   8.786  17.759  0.00  0.00    +0.000 HD
ENDROOT
BRANCH   1  15
ATOM     14  C   UNL     1       0.980  12.989  20.741  0.00  0.00    +0.000 C 
ATOM     15  O   UNL     1      -0.012  11.970  20.677  0.00  0.00    +0.000 OA
ENDBRANCH   1  15
BRANCH   7  16
ATOM     16  C   UNL     1       2.166   4.524  19.403  0.00  0.00    +0.000 C 
ATOM     17  C   UNL     1       1.400   3.778  20.501  0.00  0.00    +0.000 C 
BRANCH  16  18
ATOM     18  N   UNL     1       3.581   4.119  19.424  0.00  0.00    +0.000 N 
ATOM     19  H   UNL     1       3.745   3.199  19.848  0.00  0.00    +0.000 HD
BRANCH  18  20
ATOM     20  C   UNL     1       4.448   4.283  18.339  0.00  0.00    +0.000 A 
ATOM     21  C   UNL     1       4.307   3.721  17.128  0.00  0.00    +0.000 A 
ATOM     22  C   UNL     1       5.233   3.957  16.053  0.00  0.00    +0.000 A 
ATOM     23  C   UNL     1       6.285   4.781  16.218  0.00  0.00    +0.000 A 
ATOM     24  N   UNL     1       6.511   5.387  17.447  0.00  0.00    +0.000 N 
ATOM     25  C   UNL     1       7.652   6.264  17.677  0.00  0.00    +0.000 C 
ATOM     26  C   UNL     1       5.676   5.165  18.551  0.00  0.00    +0.000 A 
ATOM     27  O   UNL     1       5.888   5.623  19.676  0.00  0.00    +0.000 OA
BRANCH  23  28
ATOM     28  C   UNL     1       7.165   4.993  15.098  0.00  0.00    +0.000 C 
ATOM     29  N   UNL     1       7.879   5.157  14.200  0.00  0.00    +0.000 NA
ENDBRANCH  23  28
ENDBRANCH  18  20
ENDBRANCH  16  18
ENDBRANCH   7  16
TORSDOF 5
ENDMDL
MODEL 4
REMARK VINA RESULT:      -7.4      3.069      4.496
REMARK  Name = 
REMARK  8 active torsions:
REMARK  status: ('A' for Active; 'I' for Inactive)
REMARK    1  A    between atoms: C_1  and  O_2
REMARK    2  A    between atoms: O_2  and  C_3
REMARK    3  A    between atoms: C_9  and  C_10
REMARK    4  A    between atoms: C_10  and  C_11
REMARK    5  A    between atoms: C_10  and  N_12
REMARK    6  A    between atoms: N_12  and  C_13
REMARK    7  A    between atoms: C_16  and  C_17
REMARK    8  A    between atoms: N_19  and  C_20
REMARK                            x       y       z     vdW  Elec       q    Type
REMARK                         _______ _______ _______ _____ _____    ______ ____
ROOT
ATOM      1  C   UNL     1       3.764   5.552  18.844  0.00  0.00    +0.000 A 
ATOM      2  C   UNL     1       2.959   6.073  19.876  0.00  0.00    +0.000 A 
ATOM      3  C   UNL     1       2.314   7.302  19.720  0.00  0.00    +0.000 A 
ATOM      4  N   UNL     1       1.506   7.829  20.734  0.00  0.00    +0.000 N 
ATOM      5  C   UNL     1       0.808   9.007  20.613  0.00  0.00    +0.000 A 
ATOM      6  O   UNL     1       0.173   9.469  21.555  0.00  0.00    +0.000 OA
ATOM      7  C   UNL     1       0.830   9.683  19.276  0.00  0.00    +0.000 A 
ATOM      8  C   UNL     1       1.668   9.232  18.327  0.00  0.00    +0.000 A 
ATOM      9  C   UNL     1       2.454   8.021  18.533  0.00  0.00    +0.000 A 
ATOM     10  C   UNL     1       3.262   7.523  17.516  0.00  0.00    +0.000 A 
ATOM     11  C   UNL     1       3.907   6.289  17.656  0.00  0.00    +0.000 A 
ATOM     12 CL   UNL     1       4.756   5.763  16.247  0.00  0.00    +0.000 Cl
ATOM     13  H   UNL     1       1.427   7.359  21.627  0.00  0.00    +0.000 HD
ENDROOT
BRANCH   1  15
ATOM     14  C   UNL     1       3.391   3.390  19.789  0.00  0.00    +0.000 C 
ATOM     15  O   UNL     1       4.259   4.305  19.131  0.00  0.00    +0.000 OA
ENDBRANCH   1  15
BRANCH   7  16
ATOM     16  C   UNL     1      -0.173  10.799  19.083  0.00  0.00    +0.000 C 
ATOM     17  C   UNL     1      -1.497  10.183  18.617  0.00  0.00    +0.000 C 
BRANCH  16  18
ATOM     18  N   UNL     1       0.297  11.775  18.087  0.00  0.00    +0.000 N 
ATOM     19  H   UNL     1      -0.256  11.789  17.222  0.00  0.00    +0.000 HD
BRANCH  18  20
ATOM     20  C   UNL     1       0.675  13.083  18.406  0.00  0.00    +0.000 A 
ATOM     21  C   UNL     1      -0.158  14.089  18.717  0.00  0.00    +0.000 A 
ATOM     22  C   UNL     1       0.312  15.406  19.057  0.00  0.00    +0.000 A 
ATOM     23  C   UNL     1       1.630  15.679  19.095  0.00  0.00    +0.000 A 
ATOM     24  N   UNL     1       2.556  14.696  18.769  0.00  0.00    +0.000 N 
ATOM     25  C   UNL     1       3.990  14.956  18.771  0.00  0.00    +0.000 C 
ATOM     26  C   UNL     1       2.167  13.405  18.383  0.00  0.00    +0.000 A 
ATOM     27  O   UNL     1       2.955  12.533  18.013  0.00  0.00    +0.000 OA
BRANCH  23  28
ATOM     28  C   UNL     1       2.039  17.010  19.462  0.00  0.00    +0.000 C 
ATOM     29  N   UNL     1       2.376  18.078  19.761  0.00  0.00    +0.000 NA
ENDBRANCH  23  28
ENDBRANCH  18  20
ENDBRANCH  16  18
ENDBRANCH   7  16
TORSDOF 5
ENDMDL
MODEL 5
REMARK VINA RESULT:      -7.4      2.754      4.076
REMARK  Name = 
REMARK  8 active torsions:
REMARK  status: ('A' for Active; 'I' for Inactive)
REMARK    1  A    between atoms: C_1  and  O_2
REMARK    2  A    between atoms: O_2  and  C_3
REMARK    3  A    between atoms: C_9  and  C_10
REMARK    4  A    between atoms: C_10  and  C_11
REMARK    5  A    between atoms: C_10  and  N_12
REMARK    6  A    between atoms: N_12  and  C_13
REMARK    7  A    between atoms: C_16  and  C_17
REMARK    8  A    between atoms: N_19  and  C_20
REMARK                            x       y       z     vdW  Elec       q    Type
REMARK                         _______ _______ _______ _____ _____    ______ ____
ROOT
ATOM      1  C   UNL     1       3.982   5.587  18.606  0.00  0.00    +0.000 A 
ATOM      2  C   UNL     1       3.177   5.885  19.722  0.00  0.00    +0.000 A 
ATOM      3  C   UNL     1       2.425   7.061  19.760  0.00  0.00    +0.000 A 
ATOM      4  N   UNL     1       1.615   7.368  20.860  0.00  0.00    +0.000 N 
ATOM      5  C   UNL     1       0.817   8.484  20.927  0.00  0.00    +0.000 A 
ATOM      6  O   UNL     1       0.183   8.752  21.942  0.00  0.00    +0.000 OA
ATOM      7  C   UNL     1       0.731   9.341  19.701  0.00  0.00    +0.000 A 
ATOM      8  C   UNL     1       1.566   9.103  18.674  0.00  0.00    +0.000 A 
ATOM      9  C   UNL     1       2.458   7.949  18.685  0.00  0.00    +0.000 A 
ATOM     10  C   UNL     1       3.265   7.673  17.587  0.00  0.00    +0.000 A 
ATOM     11  C   UNL     1       4.016   6.493  17.531  0.00  0.00    +0.000 A 
ATOM     12 CL   UNL     1       4.852   6.246  16.040  0.00  0.00    +0.000 Cl
ATOM     13  H   UNL     1       1.612   6.773  21.679  0.00  0.00    +0.000 HD
ENDROOT
BRANCH   1  15
ATOM     14  C   UNL     1       3.936   3.256  18.086  0.00  0.00    +0.000 C 
ATOM     15  O   UNL     1       4.591   4.361  18.698  0.00  0.00    +0.000 OA
ENDBRANCH   1  15
BRANCH   7  16
ATOM     16  C   UNL     1      -0.369  10.379  19.695  0.00  0.00    +0.000 C 
ATOM     17  C   UNL     1      -0.643  10.786  18.243  0.00  0.00    +0.000 C 
BRANCH  16  18
ATOM     18  N   UNL     1       0.009  11.566  20.479  0.00  0.00    +0.000 N 
ATOM     19  H   UNL     1       0.406  11.348  21.400  0.00  0.00    +0.000 HD
BRANCH  18  20
ATOM     20  C   UNL     1       0.684  12.665  19.939  0.00  0.00    +0.000 A 
ATOM     21  C   UNL     1       2.002  12.736  19.695  0.00  0.00    +0.000 A 
ATOM     22  C   UNL     1       2.620  13.898  19.115  0.00  0.00    +0.000 A 
ATOM     23  C   UNL     1       1.884  14.972  18.773  0.00  0.00    +0.000 A 
ATOM     24  N   UNL     1       0.515  14.984  19.010  0.00  0.00    +0.000 N 
ATOM     25  C   UNL     1      -0.315  16.136  18.680  0.00  0.00    +0.000 C 
ATOM     26  C   UNL     1      -0.145  13.905  19.615  0.00  0.00    +0.000 A 
ATOM     27  O   UNL     1      -1.341  13.911  19.911  0.00  0.00    +0.000 OA
BRANCH  23  28
ATOM     28  C   UNL     1       2.557  16.097  18.178  0.00  0.00    +0.000 C 
ATOM     29  N   UNL     1       3.091  17.007  17.697  0.00  0.00    +0.000 NA
ENDBRANCH  23  28
ENDBRANCH  18  20
ENDBRANCH  16  18
ENDBRANCH   7  16
TORSDOF 5
ENDMDL
MODEL 6
REMARK VINA RESULT:      -7.3      2.895      3.980
REMARK  Name = 
REMARK  8 active torsions:
REMARK  status: ('A' for Active; 'I' for Inactive)
REMARK    1  A    between atoms: C_1  and  O_2
REMARK    2  A    between atoms: O_2  and  C_3
REMARK    3  A    between atoms: C_9  and  C_10
REMARK    4  A    between atoms: C_10  and  C_11
REMARK    5  A    between atoms: C_10  and  N_12
REMARK    6  A    between atoms: N_12  and  C_13
REMARK    7  A    between atoms: C_16  and  C_17
REMARK    8  A    between atoms: N_19  and  C_20
REMARK                            x       y       z     vdW  Elec       q    Type
REMARK                         _______ _______ _______ _____ _____    ______ ____
ROOT
ATOM      1  C   UNL     1       3.812   4.416  18.913  0.00  0.00    +0.000 A 
ATOM      2  C   UNL     1       3.096   5.092  19.920  0.00  0.00    +0.000 A 
ATOM      3  C   UNL     1       2.630   6.391  19.707  0.00  0.00    +0.000 A 
ATOM      4  N   UNL     1       1.911   7.073  20.696  0.00  0.00    +0.000 N 
ATOM      5  C   UNL     1       1.386   8.331  20.520  0.00  0.00    +0.000 A 
ATOM      6  O   UNL     1       0.829   8.921  21.441  0.00  0.00    +0.000 OA
ATOM      7  C   UNL     1       1.494   8.935  19.154  0.00  0.00    +0.000 A 
ATOM      8  C   UNL     1       2.253   8.327  18.226  0.00  0.00    +0.000 A 
ATOM      9  C   UNL     1       2.861   7.028  18.488  0.00  0.00    +0.000 A 
ATOM     10  C   UNL     1       3.584   6.375  17.495  0.00  0.00    +0.000 A 
ATOM     11  C   UNL     1       4.049   5.070  17.692  0.00  0.00    +0.000 A 
ATOM     12 CL   UNL     1       4.806   4.364  16.309  0.00  0.00    +0.000 Cl
ATOM     13  H   UNL     1       1.773   6.661  21.610  0.00  0.00    +0.000 HD
ENDROOT
BRANCH   1  15
ATOM     14  C   UNL     1       3.381   2.082  18.644  0.00  0.00    +0.000 C 
ATOM     15  O   UNL     1       4.128   3.126  19.257  0.00  0.00    +0.000 OA
ENDBRANCH   1  15
BRANCH   7  16
ATOM     16  C   UNL     1       0.656  10.171  18.909  0.00  0.00    +0.000 C 
ATOM     17  C   UNL     1      -0.433   9.823  17.889  0.00  0.00    +0.000 C 
BRANCH  16  18
ATOM     18  N   UNL     1       1.476  11.282  18.399  0.00  0.00    +0.000 N 
ATOM     19  H   UNL     1       1.820  11.142  17.442  0.00  0.00    +0.000 HD
BRANCH  18  20
ATOM     20  C   UNL     1       1.144  12.629  18.572  0.00  0.00    +0.000 A 
ATOM     21  C   UNL     1      -0.075  13.108  18.866  0.00  0.00    +0.000 A 
ATOM     22  C   UNL     1      -0.331  14.511  19.050  0.00  0.00    +0.000 A 
ATOM     23  C   UNL     1       0.664  15.413  18.951  0.00  0.00    +0.000 A 
ATOM     24  N   UNL     1       1.951  15.000  18.632  0.00  0.00    +0.000 N 
ATOM     25  C   UNL     1       3.051  15.944  18.488  0.00  0.00    +0.000 C 
ATOM     26  C   UNL     1       2.262  13.654  18.393  0.00  0.00    +0.000 A 
ATOM     27  O   UNL     1       3.373  13.260  18.032  0.00  0.00    +0.000 OA
BRANCH  23  28
ATOM     28  C   UNL     1       0.348  16.801  19.166  0.00  0.00    +0.000 C 
ATOM     29  N   UNL     1       0.103  17.921  19.338  0.00  0.00    +0.000 NA
ENDBRANCH  23  28
ENDBRANCH  18  20
ENDBRANCH  16  18
ENDBRANCH   7  16
TORSDOF 5
ENDMDL
MODEL 7
REMARK VINA RESULT:      -7.3      2.859      4.414
REMARK  Name = 
REMARK  8 active torsions:
REMARK  status: ('A' for Active; 'I' for Inactive)
REMARK    1  A    between atoms: C_1  and  O_2
REMARK    2  A    between atoms: O_2  and  C_3
REMARK    3  A    between atoms: C_9  and  C_10
REMARK    4  A    between atoms: C_10  and  C_11
REMARK    5  A    between atoms: C_10  and  N_12
REMARK    6  A    between atoms: N_12  and  C_13
REMARK    7  A    between atoms: C_16  and  C_17
REMARK    8  A    between atoms: N_19  and  C_20
REMARK                            x       y       z     vdW  Elec       q    Type
REMARK                         _______ _______ _______ _____ _____    ______ ____
ROOT
ATOM      1  C   UNL     1       3.988   5.184  18.443  0.00  0.00    +0.000 A 
ATOM      2  C   UNL     1       3.198   5.644  19.515  0.00  0.00    +0.000 A 
ATOM      3  C   UNL     1       2.609   6.909  19.470  0.00  0.00    +0.000 A 
ATOM      4  N   UNL     1       1.816   7.377  20.524  0.00  0.00    +0.000 N 
ATOM      5  C   UNL     1       1.173   8.590  20.509  0.00  0.00    +0.000 A 
ATOM      6  O   UNL     1       0.550   8.992  21.487  0.00  0.00    +0.000 OA
ATOM      7  C   UNL     1       1.236   9.385  19.241  0.00  0.00    +0.000 A 
ATOM      8  C   UNL     1       2.062   8.987  18.257  0.00  0.00    +0.000 A 
ATOM      9  C   UNL     1       2.791   7.728  18.355  0.00  0.00    +0.000 A 
ATOM     10  C   UNL     1       3.585   7.290  17.300  0.00  0.00    +0.000 A 
ATOM     11  C   UNL     1       4.174   6.020  17.328  0.00  0.00    +0.000 A 
ATOM     12 CL   UNL     1       5.012   5.588  15.881  0.00  0.00    +0.000 Cl
ATOM     13  H   UNL     1       1.709   6.831  21.370  0.00  0.00    +0.000 HD
ENDROOT
BRANCH   1  15
ATOM     14  C   UNL     1       3.964   3.195  19.765  0.00  0.00    +0.000 C 
ATOM     15  O   UNL     1       4.425   3.896  18.615  0.00  0.00    +0.000 OA
ENDBRANCH   1  15
BRANCH   7  16
ATOM     16  C   UNL     1       0.285  10.558  19.147  0.00  0.00    +0.000 C 
ATOM     17  C   UNL     1      -1.112  10.021  18.812  0.00  0.00    +0.000 C 
BRANCH  16  18
ATOM     18  N   UNL     1       0.711  11.512  18.110  0.00  0.00    +0.000 N 
ATOM     19  H   UNL     1       0.000  11.693  17.392  0.00  0.00    +0.000 HD
BRANCH  18  20
ATOM     20  C   UNL     1       1.391  12.701  18.388  0.00  0.00    +0.000 A 
ATOM     21  C   UNL     1       2.723  12.864  18.388  0.00  0.00    +0.000 A 
ATOM     22  C   UNL     1       3.349  14.130  18.664  0.00  0.00    +0.000 A 
ATOM     23  C   UNL     1       2.607  15.224  18.918  0.00  0.00    +0.000 A 
ATOM     24  N   UNL     1       1.221  15.135  18.954  0.00  0.00    +0.000 N 
ATOM     25  C   UNL     1       0.381  16.288  19.252  0.00  0.00    +0.000 C 
ATOM     26  C   UNL     1       0.547  13.924  18.741  0.00  0.00    +0.000 A 
ATOM     27  O   UNL     1      -0.674  13.791  18.841  0.00  0.00    +0.000 OA
BRANCH  23  28
ATOM     28  C   UNL     1       3.290  16.467  19.166  0.00  0.00    +0.000 C 
ATOM     29  N   UNL     1       3.848  17.464  19.363  0.00  0.00    +0.000 NA
ENDBRANCH  23  28
ENDBRANCH  18  20
ENDBRANCH  16  18
ENDBRANCH   7  16
TORSDOF 5
ENDMDL
MODEL 8
REMARK VINA RESULT:      -7.3      3.748      6.477
REMARK  Name = 
REMARK  8 active torsions:
REMARK  status: ('A' for Active; 'I' for Inactive)
REMARK    1  A    between atoms: C_1  and  O_2
REMARK    2  A    between atoms: O_2  and  C_3
REMARK    3  A    between atoms: C_9  and  C_10
REMARK    4  A    between atoms: C_10  and  C_11
REMARK    5  A    between atoms: C_10  and  N_12
REMARK    6  A    between atoms: N_12  and  C_13
REMARK    7  A    between atoms: C_16  and  C_17
REMARK    8  A    between atoms: N_19  and  C_20
REMARK                            x       y       z     vdW  Elec       q    Type
REMARK                         _______ _______ _______ _____ _____    ______ ____
ROOT
ATOM      1  C   UNL     1       6.695   3.793  12.374  0.00  0.00    +0.000 A 
ATOM      2  C   UNL     1       7.429   4.398  13.413  0.00  0.00    +0.000 A 
ATOM      3  C   UNL     1       6.785   4.841  14.570  0.00  0.00    +0.000 A 
ATOM      4  N   UNL     1       7.503   5.438  15.614  0.00  0.00    +0.000 N 
ATOM      5  C   UNL     1       6.928   5.845  16.794  0.00  0.00    +0.000 A 
ATOM      6  O   UNL     1       7.582   6.432  17.650  0.00  0.00    +0.000 OA
ATOM      7  C   UNL     1       5.482   5.515  17.003  0.00  0.00    +0.000 A 
ATOM      8  C   UNL     1       4.767   5.021  15.977  0.00  0.00    +0.000 A 
ATOM      9  C   UNL     1       5.407   4.681  14.711  0.00  0.00    +0.000 A 
ATOM     10  C   UNL     1       4.671   4.102  13.683  0.00  0.00    +0.000 A 
ATOM     11  C   UNL     1       5.305   3.644  12.521  0.00  0.00    +0.000 A 
ATOM     12 CL   UNL     1       4.261   2.833  11.410  0.00  0.00    +0.000 Cl
ATOM     13  H   UNL     1       8.494   5.618  15.520  0.00  0.00    +0.000 HD
ENDROOT
BRANCH   1  15
ATOM     14  C   UNL     1       7.506   1.947  11.093  0.00  0.00    +0.000 C 
ATOM     15  O   UNL     1       7.489   3.347  11.348  0.00  0.00    +0.000 OA
ENDBRANCH   1  15
BRANCH   7  16
ATOM     16  C   UNL     1       4.957   5.701  18.409  0.00  0.00    +0.000 C 
ATOM     17  C   UNL     1       5.374   4.486  19.246  0.00  0.00    +0.000 C 
BRANCH  16  18
ATOM     18  N   UNL     1       3.491   5.831  18.421  0.00  0.00    +0.000 N 
ATOM     19  H   UNL     1       3.014   5.124  18.991  0.00  0.00    +0.000 HD
BRANCH  18  20
ATOM     20  C   UNL     1       2.826   7.053  18.561  0.00  0.00    +0.000 A 
ATOM     21  C   UNL     1       2.814   8.050  17.662  0.00  0.00    +0.000 A 
ATOM     22  C   UNL     1       2.085   9.272  17.871  0.00  0.00    +0.000 A 
ATOM     23  C   UNL     1       1.357   9.459  18.989  0.00  0.00    +0.000 A 
ATOM     24  N   UNL     1       1.332   8.482  19.976  0.00  0.00    +0.000 N 
ATOM     25  C   UNL     1       0.580   8.654  21.212  0.00  0.00    +0.000 C 
ATOM     26  C   UNL     1       2.057   7.287  19.859  0.00  0.00    +0.000 A 
ATOM     27  O   UNL     1       2.120   6.433  20.746  0.00  0.00    +0.000 OA
BRANCH  23  28
ATOM     28  C   UNL     1       0.633  10.695  19.131  0.00  0.00    +0.000 C 
ATOM     29  N   UNL     1       0.043  11.687  19.238  0.00  0.00    +0.000 NA
ENDBRANCH  23  28
ENDBRANCH  18  20
ENDBRANCH  16  18
ENDBRANCH   7  16
TORSDOF 5
ENDMDL
MODEL 9
REMARK VINA RESULT:      -7.3      1.907      2.208
REMARK  Name = 
REMARK  8 active torsions:
REMARK  status: ('A' for Active; 'I' for Inactive)
REMARK    1  A    between atoms: C_1  and  O_2
REMARK    2  A    between atoms: O_2  and  C_3
REMARK    3  A    between atoms: C_9  and  C_10
REMARK    4  A    between atoms: C_10  and  C_11
REMARK    5  A    between atoms: C_10  and  N_12
REMARK    6  A    between atoms: N_12  and  C_13
REMARK    7  A    between atoms: C_16  and  C_17
REMARK    8  A    between atoms: N_19  and  C_20
REMARK                            x       y       z     vdW  Elec       q    Type
REMARK                         _______ _______ _______ _____ _____    ______ ____
ROOT
ATOM      1  C   UNL     1       4.068   3.924  18.714  0.00  0.00    +0.000 A 
ATOM      2  C   UNL     1       3.330   4.559  19.732  0.00  0.00    +0.000 A 
ATOM      3  C   UNL     1       2.896   5.877  19.577  0.00  0.00    +0.000 A 
ATOM      4  N   UNL     1       2.156   6.518  20.578  0.00  0.00    +0.000 N 
ATOM      5  C   UNL     1       1.661   7.794  20.455  0.00  0.00    +0.000 A 
ATOM      6  O   UNL     1       1.084   8.344  21.388  0.00  0.00    +0.000 OA
ATOM      7  C   UNL     1       1.828   8.471  19.129  0.00  0.00    +0.000 A 
ATOM      8  C   UNL     1       2.607   7.900  18.194  0.00  0.00    +0.000 A 
ATOM      9  C   UNL     1       3.182   6.576  18.404  0.00  0.00    +0.000 A 
ATOM     10  C   UNL     1       3.925   5.963  17.400  0.00  0.00    +0.000 A 
ATOM     11  C   UNL     1       4.359   4.640  17.539  0.00  0.00    +0.000 A 
ATOM     12 CL   UNL     1       5.150   3.996  16.145  0.00  0.00    +0.000 Cl
ATOM     13  H   UNL     1       1.980   6.059  21.462  0.00  0.00    +0.000 HD
ENDROOT
BRANCH   1  15
ATOM     14  C   UNL     1       3.428   1.630  18.528  0.00  0.00    +0.000 C 
ATOM     15  O   UNL     1       4.347   2.611  18.995  0.00  0.00    +0.000 OA
ENDBRANCH   1  15
BRANCH   7  16
ATOM     16  C   UNL     1       1.023   9.735  18.926  0.00  0.00    +0.000 C 
ATOM     17  C   UNL     1       1.883  10.736  18.145  0.00  0.00    +0.000 C 
BRANCH  16  18
ATOM     18  N   UNL     1       0.619  10.327  20.212  0.00  0.00    +0.000 N 
ATOM     19  H   UNL     1       1.389  10.768  20.728  0.00  0.00    +0.000 HD
BRANCH  18  20
ATOM     20  C   UNL     1      -0.540  11.090  20.381  0.00  0.00    +0.000 A 
ATOM     21  C   UNL     1      -1.338  11.537  19.398  0.00  0.00    +0.000 A 
ATOM     22  C   UNL     1      -2.529  12.301  19.656  0.00  0.00    +0.000 A 
ATOM     23  C   UNL     1      -2.907  12.586  20.916  0.00  0.00    +0.000 A 
ATOM     24  N   UNL     1      -2.125  12.174  21.989  0.00  0.00    +0.000 N 
ATOM     25  C   UNL     1      -2.482  12.484  23.367  0.00  0.00    +0.000 C 
ATOM     26  C   UNL     1      -0.927  11.467  21.809  0.00  0.00    +0.000 A 
ATOM     27  O   UNL     1      -0.170  11.154  22.729  0.00  0.00    +0.000 OA
BRANCH  23  28
ATOM     28  C   UNL     1      -4.120  13.336  21.111  0.00  0.00    +0.000 C 
ATOM     29  N   UNL     1      -5.093  13.948  21.263  0.00  0.00    +0.000 NA
ENDBRANCH  23  28
ENDBRANCH  18  20
ENDBRANCH  16  18
ENDBRANCH   7  16
TORSDOF 5
ENDMDL
