MODEL 1
REMARK VINA RESULT:      -6.4      0.000      0.000
REMARK  Name = 
REMARK  8 active torsions:
REMARK  status: ('A' for Active; 'I' for Inactive)
REMARK    1  A    between atoms: C_1  and  C_2
REMARK    2  A    between atoms: C_5  and  C_6
REMARK    3  A    between atoms: C_6  and  C_7
REMARK    4  A    between atoms: C_6  and  C_8
REMARK    5  A    between atoms: C_6  and  C_9
REMARK    6  A    between atoms: C_12  and  O_13
REMARK    7  A    between atoms: C_14  and  C_15
REMARK    8  A    between atoms: C_15  and  N_16
REMARK                            x       y       z     vdW  Elec       q    Type
REMARK                         _______ _______ _______ _____ _____    ______ ____
ROOT
ATOM      1  C   UNL     1       4.322   7.448  17.268  0.00  0.00    +0.000 C 
ATOM      2  C   UNL     1       4.128   5.961  17.532  0.00  0.00    +0.000 A 
ATOM      3  C   UNL     1       3.199   5.487  18.504  0.00  0.00    +0.000 A 
ATOM      4 CL   UNL     1       2.290   6.735  19.383  0.00  0.00    +0.000 Cl
ATOM      5  C   UNL     1       3.015   4.072  18.756  0.00  0.00    +0.000 A 
ATOM      6  C   UNL     1       3.815   3.175  17.952  0.00  0.00    +0.000 A 
ATOM      7 CL   UNL     1       3.768   1.403  18.034  0.00  0.00    +0.000 Cl
ATOM      8  C   UNL     1       4.727   3.672  16.991  0.00  0.00    +0.000 A 
ATOM      9  C   UNL     1       4.894   5.042  16.784  0.00  0.00    +0.000 A 
ENDROOT
BRANCH   5  10
ATOM     10  C   UNL     1       1.973   3.589  19.861  0.00  0.00    +0.000 C 
ATOM     11  C   UNL     1       2.691   2.804  20.991  0.00  0.00    +0.000 C 
ATOM     12  C   UNL     1       1.200   4.707  20.604  0.00  0.00    +0.000 C 
ATOM     13  C   UNL     1       0.854   2.722  19.219  0.00  0.00    +0.000 C 
ENDBRANCH   5  10
BRANCH   8  14
ATOM     14  O   UNL     1       5.478   2.835  16.227  0.00  0.00    +0.000 OA
ATOM     15  H   UNL     1       5.208   2.408  15.407  0.00  0.00    +0.000 HD
ENDBRANCH   8  14
BRANCH   9  16
ATOM     16  C   UNL     1       5.907   5.477  15.727  0.00  0.00    +0.000 C 
BRANCH  16  17
ATOM     17  N   UNL     1       7.267   5.187  16.178  0.00  0.00    +0.000 NA
ATOM     18  H   UNL     1       7.498   4.192  15.949  0.00  0.00    +0.000 HD
ATOM     19  H   UNL     1       7.313   5.304  17.216  0.00  0.00    +0.000 HD
ENDBRANCH  16  17
ENDBRANCH   9  16
TORSDOF 4
ENDMDL
MODEL 2
REMARK VINA RESULT:      -6.2      1.591      3.001
REMARK  Name = 
REMARK  8 active torsions:
REMARK  status: ('A' for Active; 'I' for Inactive)
REMARK    1  A    between atoms: C_1  and  C_2
REMARK    2  A    between atoms: C_5  and  C_6
REMARK    3  A    between atoms: C_6  and  C_7
REMARK    4  A    between atoms: C_6  and  C_8
REMARK    5  A    between atoms: C_6  and  C_9
REMARK    6  A    between atoms: C_12  and  O_13
REMARK    7  A    between atoms: C_14  and  C_15
REMARK    8  A    between atoms: C_15  and  N_16
REMARK                            x       y       z     vdW  Elec       q    Type
REMARK                         _______ _______ _______ _____ _____    ______ ____
ROOT
ATOM      1  C   UNL     1       5.392   3.605  15.884  0.00  0.00    +0.000 C 
ATOM      2  C   UNL     1       4.504   4.324  16.890  0.00  0.00    +0.000 A 
ATOM      3  C   UNL     1       3.683   3.610  17.811  0.00  0.00    +0.000 A 
ATOM      4 CL   UNL     1       3.760   1.838  17.707  0.00  0.00    +0.000 Cl
ATOM      5  C   UNL     1       2.837   4.295  18.768  0.00  0.00    +0.000 A 
ATOM      6  C   UNL     1       2.891   5.740  18.743  0.00  0.00    +0.000 A 
ATOM      7 CL   UNL     1       1.985   6.820  19.820  0.00  0.00    +0.000 Cl
ATOM      8  C   UNL     1       3.719   6.424  17.821  0.00  0.00    +0.000 A 
ATOM      9  C   UNL     1       4.509   5.735  16.900  0.00  0.00    +0.000 A 
ENDROOT
BRANCH   5  10
ATOM     10  C   UNL     1       1.927   3.454  19.770  0.00  0.00    +0.000 C 
ATOM     11  C   UNL     1       2.798   2.726  20.829  0.00  0.00    +0.000 C 
ATOM     12  C   UNL     1       0.905   4.264  20.607  0.00  0.00    +0.000 C 
ATOM     13  C   UNL     1       1.049   2.435  18.990  0.00  0.00    +0.000 C 
ENDBRANCH   5  10
BRANCH   8  14
ATOM     14  O   UNL     1       3.781   7.782  17.796  0.00  0.00    +0.000 OA
ATOM     15  H   UNL     1       4.469   8.333  18.182  0.00  0.00    +0.000 HD
ENDBRANCH   8  14
BRANCH   9  16
ATOM     16  C   UNL     1       5.364   6.566  15.944  0.00  0.00    +0.000 C 
BRANCH  16  17
ATOM     17  N   UNL     1       6.555   7.061  16.629  0.00  0.00    +0.000 NA
ATOM     18  H   UNL     1       7.393   6.887  16.027  0.00  0.00    +0.000 HD
ATOM     19  H   UNL     1       6.678   6.532  17.523  0.00  0.00    +0.000 HD
ENDBRANCH  16  17
ENDBRANCH   9  16
TORSDOF 4
ENDMDL
MODEL 3
REMARK VINA RESULT:      -6.2      0.145      1.104
REMARK  Name = 
REMARK  8 active torsions:
REMARK  status: ('A' for Active; 'I' for Inactive)
REMARK    1  A    between atoms: C_1  and  C_2
REMARK    2  A    between atoms: C_5  and  C_6
REMARK    3  A    between atoms: C_6  and  C_7
REMARK    4  A    between atoms: C_6  and  C_8
REMARK    5  A    between atoms: C_6  and  C_9
REMARK    6  A    between atoms: C_12  and  O_13
REMARK    7  A    between atoms: C_14  and  C_15
REMARK    8  A    between atoms: C_15  and  N_16
REMARK                            x       y       z     vdW  Elec       q    Type
REMARK                         _______ _______ _______ _____ _____    ______ ____
ROOT
ATOM      1  C   UNL     1       4.260   7.498  17.209  0.00  0.00    +0.000 C 
ATOM      2  C   UNL     1       4.080   6.019  17.523  0.00  0.00    +0.000 A 
ATOM      3  C   UNL     1       3.167   5.572  18.523  0.00  0.00    +0.000 A 
ATOM      4 CL   UNL     1       2.263   6.842  19.374  0.00  0.00    +0.000 Cl
ATOM      5  C   UNL     1       2.996   4.164  18.822  0.00  0.00    +0.000 A 
ATOM      6  C   UNL     1       3.791   3.246  18.037  0.00  0.00    +0.000 A 
ATOM      7 CL   UNL     1       3.755   1.478  18.176  0.00  0.00    +0.000 Cl
ATOM      8  C   UNL     1       4.686   3.717  17.048  0.00  0.00    +0.000 A 
ATOM      9  C   UNL     1       4.841   5.081  16.795  0.00  0.00    +0.000 A 
ENDROOT
BRANCH   5  10
ATOM     10  C   UNL     1       1.972   3.711  19.957  0.00  0.00    +0.000 C 
ATOM     11  C   UNL     1       0.814   2.873  19.353  0.00  0.00    +0.000 C 
ATOM     12  C   UNL     1       2.550   2.812  21.078  0.00  0.00    +0.000 C 
ATOM     13  C   UNL     1       1.414   4.947  20.717  0.00  0.00    +0.000 C 
ENDBRANCH   5  10
BRANCH   8  14
ATOM     14  O   UNL     1       5.432   2.861  16.300  0.00  0.00    +0.000 OA
ATOM     15  H   UNL     1       5.190   2.482  15.449  0.00  0.00    +0.000 HD
ENDBRANCH   8  14
BRANCH   9  16
ATOM     16  C   UNL     1       5.837   5.488  15.710  0.00  0.00    +0.000 C 
BRANCH  16  17
ATOM     17  N   UNL     1       7.207   5.273  16.173  0.00  0.00    +0.000 NA
ATOM     18  H   UNL     1       7.824   5.099  15.347  0.00  0.00    +0.000 HD
ATOM     19  H   UNL     1       7.230   4.426  16.785  0.00  0.00    +0.000 HD
ENDBRANCH  16  17
ENDBRANCH   9  16
TORSDOF 4
ENDMDL
MODEL 4
REMARK VINA RESULT:      -6.1      0.113      1.076
REMARK  Name = 
REMARK  8 active torsions:
REMARK  status: ('A' for Active; 'I' for Inactive)
REMARK    1  A    between atoms: C_1  and  C_2
REMARK    2  A    between atoms: C_5  and  C_6
REMARK    3  A    between atoms: C_6  and  C_7
REMARK    4  A    between atoms: C_6  and  C_8
REMARK    5  A    between atoms: C_6  and  C_9
REMARK    6  A    between atoms: C_12  and  O_13
REMARK    7  A    between atoms: C_14  and  C_15
REMARK    8  A    between atoms: C_15  and  N_16
REMARK                            x       y       z     vdW  Elec       q    Type
REMARK                         _______ _______ _______ _____ _____    ______ ____
ROOT
ATOM      1  C   UNL     1       4.303   7.490  17.311  0.00  0.00    +0.000 C 
ATOM      2  C   UNL     1       4.109   6.006  17.588  0.00  0.00    +0.000 A 
ATOM      3  C   UNL     1       3.187   5.541  18.571  0.00  0.00    +0.000 A 
ATOM      4 CL   UNL     1       2.288   6.798  19.448  0.00  0.00    +0.000 Cl
ATOM      5  C   UNL     1       3.003   4.128  18.835  0.00  0.00    +0.000 A 
ATOM      6  C   UNL     1       3.795   3.223  18.032  0.00  0.00    +0.000 A 
ATOM      7 CL   UNL     1       3.745   1.453  18.128  0.00  0.00    +0.000 Cl
ATOM      8  C   UNL     1       4.700   3.712  17.059  0.00  0.00    +0.000 A 
ATOM      9  C   UNL     1       4.867   5.080  16.841  0.00  0.00    +0.000 A 
ENDROOT
BRANCH   5  10
ATOM     10  C   UNL     1       1.969   3.656  19.953  0.00  0.00    +0.000 C 
ATOM     11  C   UNL     1       1.262   4.876  20.601  0.00  0.00    +0.000 C 
ATOM     12  C   UNL     1       0.807   2.752  19.470  0.00  0.00    +0.000 C 
ATOM     13  C   UNL     1       2.685   2.800  21.035  0.00  0.00    +0.000 C 
ENDBRANCH   5  10
BRANCH   8  14
ATOM     14  O   UNL     1       5.443   2.868  16.295  0.00  0.00    +0.000 OA
ATOM     15  H   UNL     1       5.943   3.098  15.506  0.00  0.00    +0.000 HD
ENDBRANCH   8  14
BRANCH   9  16
ATOM     16  C   UNL     1       5.872   5.506  15.772  0.00  0.00    +0.000 C 
BRANCH  16  17
ATOM     17  N   UNL     1       7.237   5.278  16.241  0.00  0.00    +0.000 NA
ATOM     18  H   UNL     1       7.283   4.351  16.724  0.00  0.00    +0.000 HD
ATOM     19  H   UNL     1       7.488   6.022  16.933  0.00  0.00    +0.000 HD
ENDBRANCH  16  17
ENDBRANCH   9  16
TORSDOF 4
ENDMDL
MODEL 5
REMARK VINA RESULT:      -6.1      1.596      3.203
REMARK  Name = 
REMARK  8 active torsions:
REMARK  status: ('A' for Active; 'I' for Inactive)
REMARK    1  A    between atoms: C_1  and  C_2
REMARK    2  A    between atoms: C_5  and  C_6
REMARK    3  A    between atoms: C_6  and  C_7
REMARK    4  A    between atoms: C_6  and  C_8
REMARK    5  A    between atoms: C_6  and  C_9
REMARK    6  A    between atoms: C_12  and  O_13
REMARK    7  A    between atoms: C_14  and  C_15
REMARK    8  A    between atoms: C_15  and  N_16
REMARK                            x       y       z     vdW  Elec       q    Type
REMARK                         _______ _______ _______ _____ _____    ______ ____
ROOT
ATOM      1  C   UNL     1       5.362   3.591  15.909  0.00  0.00    +0.000 C 
ATOM      2  C   UNL     1       4.488   4.311  16.926  0.00  0.00    +0.000 A 
ATOM      3  C   UNL     1       3.674   3.597  17.854  0.00  0.00    +0.000 A 
ATOM      4 CL   UNL     1       3.743   1.825  17.745  0.00  0.00    +0.000 Cl
ATOM      5  C   UNL     1       2.841   4.282  18.822  0.00  0.00    +0.000 A 
ATOM      6  C   UNL     1       2.899   5.727  18.800  0.00  0.00    +0.000 A 
ATOM      7 CL   UNL     1       2.009   6.808  19.888  0.00  0.00    +0.000 Cl
ATOM      8  C   UNL     1       3.719   6.411  17.871  0.00  0.00    +0.000 A 
ATOM      9  C   UNL     1       4.497   5.721  16.939  0.00  0.00    +0.000 A 
ENDROOT
BRANCH   5  10
ATOM     10  C   UNL     1       1.938   3.442  19.831  0.00  0.00    +0.000 C 
ATOM     11  C   UNL     1       0.866   4.346  20.497  0.00  0.00    +0.000 C 
ATOM     12  C   UNL     1       1.125   2.277  19.213  0.00  0.00    +0.000 C 
ATOM     13  C   UNL     1       2.819   2.753  20.911  0.00  0.00    +0.000 C 
ENDBRANCH   5  10
BRANCH   8  14
ATOM     14  O   UNL     1       3.785   7.769  17.848  0.00  0.00    +0.000 OA
ATOM     15  H   UNL     1       4.215   8.334  18.498  0.00  0.00    +0.000 HD
ENDBRANCH   8  14
BRANCH   9  16
ATOM     16  C   UNL     1       5.344   6.552  15.976  0.00  0.00    +0.000 C 
BRANCH  16  17
ATOM     17  N   UNL     1       6.532   7.063  16.657  0.00  0.00    +0.000 NA
ATOM     18  H   UNL     1       6.310   7.994  17.080  0.00  0.00    +0.000 HD
ATOM     19  H   UNL     1       7.297   7.194  15.956  0.00  0.00    +0.000 HD
ENDBRANCH  16  17
ENDBRANCH   9  16
TORSDOF 4
ENDMDL
MODEL 6
REMARK VINA RESULT:      -6.0      1.591      3.171
REMARK  Name = 
REMARK  8 active torsions:
REMARK  status: ('A' for Active; 'I' for Inactive)
REMARK    1  A    between atoms: C_1  and  C_2
REMARK    2  A    between atoms: C_5  and  C_6
REMARK    3  A    between atoms: C_6  and  C_7
REMARK    4  A    between atoms: C_6  and  C_8
REMARK    5  A    between atoms: C_6  and  C_9
REMARK    6  A    between atoms: C_12  and  O_13
REMARK    7  A    between atoms: C_14  and  C_15
REMARK    8  A    between atoms: C_15  and  N_16
REMARK                            x       y       z     vdW  Elec       q    Type
REMARK                         _______ _______ _______ _____ _____    ______ ____
ROOT
ATOM      1  C   UNL     1       5.387   3.596  15.906  0.00  0.00    +0.000 C 
ATOM      2  C   UNL     1       4.502   4.318  16.912  0.00  0.00    +0.000 A 
ATOM      3  C   UNL     1       3.687   3.607  17.841  0.00  0.00    +0.000 A 
ATOM      4 CL   UNL     1       3.768   1.834  17.746  0.00  0.00    +0.000 Cl
ATOM      5  C   UNL     1       2.844   4.295  18.799  0.00  0.00    +0.000 A 
ATOM      6  C   UNL     1       2.894   5.740  18.766  0.00  0.00    +0.000 A 
ATOM      7 CL   UNL     1       1.991   6.823  19.841  0.00  0.00    +0.000 Cl
ATOM      8  C   UNL     1       3.715   6.421  17.836  0.00  0.00    +0.000 A 
ATOM      9  C   UNL     1       4.503   5.729  16.915  0.00  0.00    +0.000 A 
ENDROOT
BRANCH   5  10
ATOM     10  C   UNL     1       1.941   3.457  19.809  0.00  0.00    +0.000 C 
ATOM     11  C   UNL     1       1.167   2.339  19.061  0.00  0.00    +0.000 C 
ATOM     12  C   UNL     1       2.693   2.710  20.939  0.00  0.00    +0.000 C 
ATOM     13  C   UNL     1       0.956   4.390  20.568  0.00  0.00    +0.000 C 
ENDBRANCH   5  10
BRANCH   8  14
ATOM     14  O   UNL     1       3.773   7.779  17.803  0.00  0.00    +0.000 OA
ATOM     15  H   UNL     1       3.715   8.338  17.022  0.00  0.00    +0.000 HD
ENDBRANCH   8  14
BRANCH   9  16
ATOM     16  C   UNL     1       5.351   6.557  15.950  0.00  0.00    +0.000 C 
BRANCH  16  17
ATOM     17  N   UNL     1       6.545   7.059  16.627  0.00  0.00    +0.000 NA
ATOM     18  H   UNL     1       7.385   6.563  16.251  0.00  0.00    +0.000 HD
ATOM     19  H   UNL     1       6.470   6.849  17.649  0.00  0.00    +0.000 HD
ENDBRANCH  16  17
ENDBRANCH   9  16
TORSDOF 4
ENDMDL
MODEL 7
REMARK VINA RESULT:      -5.7      2.843      3.897
REMARK  Name = 
REMARK  8 active torsions:
REMARK  status: ('A' for Active; 'I' for Inactive)
REMARK    1  A    between atoms: C_1  and  C_2
REMARK    2  A    between atoms: C_5  and  C_6
REMARK    3  A    between atoms: C_6  and  C_7
REMARK    4  A    between atoms: C_6  and  C_8
REMARK    5  A    between atoms: C_6  and  C_9
REMARK    6  A    between atoms: C_12  and  O_13
REMARK    7  A    between atoms: C_14  and  C_15
REMARK    8  A    between atoms: C_15  and  N_16
REMARK                            x       y       z     vdW  Elec       q    Type
REMARK                         _______ _______ _______ _____ _____    ______ ____
ROOT
ATOM      1  C   UNL     1       4.848   6.634  16.128  0.00  0.00    +0.000 C 
ATOM      2  C   UNL     1       4.025   6.113  17.297  0.00  0.00    +0.000 A 
ATOM      3  C   UNL     1       3.998   4.728  17.637  0.00  0.00    +0.000 A 
ATOM      4 CL   UNL     1       4.977   3.657  16.612  0.00  0.00    +0.000 Cl
ATOM      5  C   UNL     1       3.213   4.232  18.750  0.00  0.00    +0.000 A 
ATOM      6  C   UNL     1       2.478   5.226  19.501  0.00  0.00    +0.000 A 
ATOM      7 CL   UNL     1       1.466   4.898  20.921  0.00  0.00    +0.000 Cl
ATOM      8  C   UNL     1       2.526   6.594  19.145  0.00  0.00    +0.000 A 
ATOM      9  C   UNL     1       3.278   7.038  18.056  0.00  0.00    +0.000 A 
ENDROOT
BRANCH   5  10
ATOM     10  C   UNL     1       3.204   2.674  19.085  0.00  0.00    +0.000 C 
ATOM     11  C   UNL     1       1.820   2.236  19.634  0.00  0.00    +0.000 C 
ATOM     12  C   UNL     1       3.463   1.718  17.894  0.00  0.00    +0.000 C 
ATOM     13  C   UNL     1       4.329   2.324  20.098  0.00  0.00    +0.000 C 
ENDBRANCH   5  10
BRANCH   8  14
ATOM     14  O   UNL     1       1.844   7.535  19.850  0.00  0.00    +0.000 OA
ATOM     15  H   UNL     1       1.200   8.160  19.500  0.00  0.00    +0.000 HD
ENDBRANCH   8  14
BRANCH   9  16
ATOM     16  C   UNL     1       3.260   8.535  17.750  0.00  0.00    +0.000 C 
BRANCH  16  17
ATOM     17  N   UNL     1       1.904   8.970  17.423  0.00  0.00    +0.000 NA
ATOM     18  H   UNL     1       1.448   8.245  16.821  0.00  0.00    +0.000 HD
ATOM     19  H   UNL     1       1.953   9.863  16.882  0.00  0.00    +0.000 HD
ENDBRANCH  16  17
ENDBRANCH   9  16
TORSDOF 4
ENDMDL
MODEL 8
REMARK VINA RESULT:      -5.7      1.374      1.761
REMARK  Name = 
REMARK  8 active torsions:
REMARK  status: ('A' for Active; 'I' for Inactive)
REMARK    1  A    between atoms: C_1  and  C_2
REMARK    2  A    between atoms: C_5  and  C_6
REMARK    3  A    between atoms: C_6  and  C_7
REMARK    4  A    between atoms: C_6  and  C_8
REMARK    5  A    between atoms: C_6  and  C_9
REMARK    6  A    between atoms: C_12  and  O_13
REMARK    7  A    between atoms: C_14  and  C_15
REMARK    8  A    between atoms: C_15  and  N_16
REMARK                            x       y       z     vdW  Elec       q    Type
REMARK                         _______ _______ _______ _____ _____    ______ ____
ROOT
ATOM      1  C   UNL     1       4.170   7.740  16.990  0.00  0.00    +0.000 C 
ATOM      2  C   UNL     1       4.283   6.406  17.714  0.00  0.00    +0.000 A 
ATOM      3  C   UNL     1       3.148   5.775  18.303  0.00  0.00    +0.000 A 
ATOM      4 CL   UNL     1       1.606   6.641  18.141  0.00  0.00    +0.000 Cl
ATOM      5  C   UNL     1       3.256   4.504  18.992  0.00  0.00    +0.000 A 
ATOM      6  C   UNL     1       4.575   3.912  19.031  0.00  0.00    +0.000 A 
ATOM      7 CL   UNL     1       4.980   2.357  19.781  0.00  0.00    +0.000 Cl
ATOM      8  C   UNL     1       5.683   4.559  18.434  0.00  0.00    +0.000 A 
ATOM      9  C   UNL     1       5.550   5.790  17.792  0.00  0.00    +0.000 A 
ENDROOT
BRANCH   5  10
ATOM     10  C   UNL     1       1.962   3.842  19.646  0.00  0.00    +0.000 C 
ATOM     11  C   UNL     1       1.030   3.254  18.552  0.00  0.00    +0.000 C 
ATOM     12  C   UNL     1       2.215   2.656  20.611  0.00  0.00    +0.000 C 
ATOM     13  C   UNL     1       1.196   4.877  20.517  0.00  0.00    +0.000 C 
ENDBRANCH   5  10
BRANCH   8  14
ATOM     14  O   UNL     1       6.925   4.005  18.460  0.00  0.00    +0.000 OA
ATOM     15  H   UNL     1       7.563   3.994  17.740  0.00  0.00    +0.000 HD
ENDBRANCH   8  14
BRANCH   9  16
ATOM     16  C   UNL     1       6.808   6.408  17.184  0.00  0.00    +0.000 C 
BRANCH  16  17
ATOM     17  N   UNL     1       7.210   5.667  15.990  0.00  0.00    +0.000 NA
ATOM     18  H   UNL     1       6.658   6.012  15.171  0.00  0.00    +0.000 HD
ATOM     19  H   UNL     1       6.993   4.654  16.129  0.00  0.00    +0.000 HD
ENDBRANCH  16  17
ENDBRANCH   9  16
TORSDOF 4
ENDMDL
MODEL 9
REMARK VINA RESULT:      -5.7      2.864      3.762
REMARK  Name = 
REMARK  8 active torsions:
REMARK  status: ('A' for Active; 'I' for Inactive)
REMARK    1  A    between atoms: C_1  and  C_2
REMARK    2  A    between atoms: C_5  and  C_6
REMARK    3  A    between atoms: C_6  and  C_7
REMARK    4  A    between atoms: C_6  and  C_8
REMARK    5  A    between atoms: C_6  and  C_9
REMARK    6  A    between atoms: C_12  and  O_13
REMARK    7  A    between atoms: C_14  and  C_15
REMARK    8  A    between atoms: C_15  and  N_16
REMARK                            x       y       z     vdW  Elec       q    Type
REMARK                         _______ _______ _______ _____ _____    ______ ____
ROOT
ATOM      1  C   UNL     1       4.878   6.666  16.152  0.00  0.00    +0.000 C 
ATOM      2  C   UNL     1       4.016   6.173  17.307  0.00  0.00    +0.000 A 
ATOM      3  C   UNL     1       3.950   4.793  17.657  0.00  0.00    +0.000 A 
ATOM      4 CL   UNL     1       4.929   3.692  16.664  0.00  0.00    +0.000 Cl
ATOM      5  C   UNL     1       3.129   4.324  18.756  0.00  0.00    +0.000 A 
ATOM      6  C   UNL     1       2.399   5.340  19.481  0.00  0.00    +0.000 A 
ATOM      7 CL   UNL     1       1.348   5.047  20.880  0.00  0.00    +0.000 Cl
ATOM      8  C   UNL     1       2.486   6.704  19.115  0.00  0.00    +0.000 A 
ATOM      9  C   UNL     1       3.272   7.121  18.040  0.00  0.00    +0.000 A 
ENDROOT
BRANCH   5  10
ATOM     10  C   UNL     1       3.078   2.770  19.103  0.00  0.00    +0.000 C 
ATOM     11  C   UNL     1       4.363   2.329  19.854  0.00  0.00    +0.000 C 
ATOM     12  C   UNL     1       1.920   2.314  20.027  0.00  0.00    +0.000 C 
ATOM     13  C   UNL     1       2.882   1.925  17.813  0.00  0.00    +0.000 C 
ENDBRANCH   5  10
BRANCH   8  14
ATOM     14  O   UNL     1       1.808   7.666  19.796  0.00  0.00    +0.000 OA
ATOM     15  H   UNL     1       1.818   8.612  19.617  0.00  0.00    +0.000 HD
ENDBRANCH   8  14
BRANCH   9  16
ATOM     16  C   UNL     1       3.295   8.616  17.722  0.00  0.00    +0.000 C 
BRANCH  16  17
ATOM     17  N   UNL     1       1.952   9.082  17.384  0.00  0.00    +0.000 NA
ATOM     18  H   UNL     1       2.027   9.955  16.811  0.00  0.00    +0.000 HD
ATOM     19  H   UNL     1       1.439   9.311  18.266  0.00  0.00    +0.000 HD
ENDBRANCH  16  17
ENDBRANCH   9  16
TORSDOF 4
ENDMDL
