MODEL 1
REMARK VINA RESULT:      -8.6      0.000      0.000
REMARK  Name = 
REMARK  8 active torsions:
REMARK  status: ('A' for Active; 'I' for Inactive)
REMARK    1  A    between atoms: C_1  and  N_2
REMARK    2  A    between atoms: N_2  and  C_3
REMARK    3  A    between atoms: C_15  and  C_16
REMARK    4  A    between atoms: C_22  and  C_23
REMARK    5  A    between atoms: C_23  and  O_25
REMARK    6  A    between atoms: C_30  and  N_31
REMARK    7  A    between atoms: N_31  and  C_32
REMARK    8  A    between atoms: N_31  and  C_33
REMARK                            x       y       z     vdW  Elec       q    Type
REMARK                         _______ _______ _______ _____ _____    ______ ____
ROOT
ATOM      1  C   UNL     1      -3.522  13.872  23.471  0.00  0.00    +0.000 A 
ATOM      2  C   UNL     1      -4.332  14.623  22.612  0.00  0.00    +0.000 A 
ATOM      3  C   UNL     1      -4.426  14.285  21.280  0.00  0.00    +0.000 A 
ATOM      4  F   UNL     1      -5.306  14.967  20.531  0.00  0.00    +0.000 F 
ATOM      5  C   UNL     1      -3.664  13.243  20.731  0.00  0.00    +0.000 A 
ATOM      6 CL   UNL     1      -4.155  12.651  19.212  0.00  0.00    +0.000 Cl
ATOM      7  C   UNL     1      -2.641  12.581  21.469  0.00  0.00    +0.000 A 
ATOM      8  C   UNL     1      -2.658  12.925  22.848  0.00  0.00    +0.000 A 
ATOM      9  N   UNL     1      -1.710  12.145  23.445  0.00  0.00    +0.000 N 
ATOM     10  C   UNL     1      -1.044  11.375  22.554  0.00  0.00    +0.000 A 
ATOM     11  N   UNL     1      -0.080  10.561  22.994  0.00  0.00    +0.000 NA
ATOM     12  C   UNL     1       0.537   9.893  22.017  0.00  0.00    +0.000 A 
ATOM     13  C   UNL     1       0.272   9.990  20.648  0.00  0.00    +0.000 A 
ATOM     14  C   UNL     1      -0.798  10.862  20.185  0.00  0.00    +0.000 A 
ATOM     15  C   UNL     1      -1.514  11.600  21.255  0.00  0.00    +0.000 A 
ATOM     16  H   UNL     1      -1.489  12.147  24.428  0.00  0.00    +0.000 HD
ENDROOT
BRANCH  13  17
ATOM     17  C   UNL     1       1.193   9.116  19.847  0.00  0.00    +0.000 A 
ATOM     18  C   UNL     1       1.577   9.477  18.488  0.00  0.00    +0.000 A 
ATOM     19  C   UNL     1       2.340   8.676  17.736  0.00  0.00    +0.000 A 
ATOM     20  C   UNL     1       2.812   7.380  18.277  0.00  0.00    +0.000 A 
ATOM     21  N   UNL     1       3.603   6.661  17.545  0.00  0.00    +0.000 NA
ATOM     22  C   UNL     1       4.005   5.456  18.047  0.00  0.00    +0.000 A 
ATOM     23  C   UNL     1       3.591   4.928  19.205  0.00  0.00    +0.000 A 
ATOM     24  C   UNL     1       2.661   5.745  20.021  0.00  0.00    +0.000 A 
ATOM     25  O   UNL     1       2.211   5.251  21.059  0.00  0.00    +0.000 OA
ATOM     26  N   UNL     1       2.352   7.015  19.536  0.00  0.00    +0.000 N 
ATOM     27  C   UNL     1       1.558   7.892  20.293  0.00  0.00    +0.000 A 
BRANCH  23  28
ATOM     28  C   UNL     1       4.072   3.580  19.563  0.00  0.00    +0.000 C 
ATOM     29  O   UNL     1       5.146   3.133  19.208  0.00  0.00    +0.000 OA
BRANCH  28  30
ATOM     30  O   UNL     1       3.211   2.850  20.304  0.00  0.00    +0.000 OA
ATOM     31  H   UNL     1       2.286   2.832  19.963  0.00  0.00    +0.000 HD
ENDBRANCH  28  30
ENDBRANCH  23  28
ENDBRANCH  13  17
BRANCH   1  33
ATOM     32  C   UNL     1      -3.070  15.389  25.358  0.00  0.00    +0.000 C 
ATOM     33  N   UNL     1      -3.514  14.092  24.855  0.00  0.00    +0.000 N 
ATOM     34  H   UNL     1      -4.318  13.728  25.353  0.00  0.00    +0.000 HD
ENDBRANCH   1  33
BRANCH  14  35
ATOM     35  N   UNL     1      -1.113  10.960  18.819  0.00  0.00    +0.000 N 
ATOM     36  C   UNL     1      -2.078  10.032  18.240  0.00  0.00    +0.000 C 
ATOM     37  C   UNL     1      -0.996  12.189  18.031  0.00  0.00    +0.000 C 
ENDBRANCH  14  35
TORSDOF 5
ENDMDL
MODEL 2
REMARK VINA RESULT:      -8.5      4.774      9.657
REMARK  Name = 
REMARK  8 active torsions:
REMARK  status: ('A' for Active; 'I' for Inactive)
REMARK    1  A    between atoms: C_1  and  N_2
REMARK    2  A    between atoms: N_2  and  C_3
REMARK    3  A    between atoms: C_15  and  C_16
REMARK    4  A    between atoms: C_22  and  C_23
REMARK    5  A    between atoms: C_23  and  O_25
REMARK    6  A    between atoms: C_30  and  N_31
REMARK    7  A    between atoms: N_31  and  C_32
REMARK    8  A    between atoms: N_31  and  C_33
REMARK                            x       y       z     vdW  Elec       q    Type
REMARK                         _______ _______ _______ _____ _____    ______ ____
ROOT
ATOM      1  C   UNL     1       2.343   6.571  19.990  0.00  0.00    +0.000 A 
ATOM      2  C   UNL     1       2.676   6.664  18.635  0.00  0.00    +0.000 A 
ATOM      3  C   UNL     1       2.546   7.863  17.970  0.00  0.00    +0.000 A 
ATOM      4  F   UNL     1       2.991   7.919  16.706  0.00  0.00    +0.000 F 
ATOM      5  C   UNL     1       2.009   8.996  18.599  0.00  0.00    +0.000 A 
ATOM      6 CL   UNL     1       2.277  10.496  17.839  0.00  0.00    +0.000 Cl
ATOM      7  C   UNL     1       1.424   8.937  19.897  0.00  0.00    +0.000 A 
ATOM      8  C   UNL     1       1.666   7.696  20.546  0.00  0.00    +0.000 A 
ATOM      9  N   UNL     1       1.151   7.819  21.804  0.00  0.00    +0.000 N 
ATOM     10  C   UNL     1       0.544   9.013  21.995  0.00  0.00    +0.000 A 
ATOM     11  N   UNL     1      -0.014   9.275  23.180  0.00  0.00    +0.000 NA
ATOM     12  C   UNL     1      -0.625  10.460  23.230  0.00  0.00    +0.000 A 
ATOM     13  C   UNL     1      -0.730  11.384  22.187  0.00  0.00    +0.000 A 
ATOM     14  C   UNL     1      -0.096  11.098  20.908  0.00  0.00    +0.000 A 
ATOM     15  C   UNL     1       0.608   9.794  20.835  0.00  0.00    +0.000 A 
ATOM     16  H   UNL     1       1.177   7.107  22.516  0.00  0.00    +0.000 HD
ENDROOT
BRANCH  13  17
ATOM     17  C   UNL     1      -1.523  12.591  22.600  0.00  0.00    +0.000 A 
ATOM     18  C   UNL     1      -0.858  13.813  23.034  0.00  0.00    +0.000 A 
ATOM     19  C   UNL     1      -1.548  14.872  23.472  0.00  0.00    +0.000 A 
ATOM     20  C   UNL     1      -3.027  14.820  23.530  0.00  0.00    +0.000 A 
ATOM     21  N   UNL     1      -3.665  15.887  23.895  0.00  0.00    +0.000 NA
ATOM     22  C   UNL     1      -5.027  15.813  23.974  0.00  0.00    +0.000 A 
ATOM     23  C   UNL     1      -5.749  14.705  23.768  0.00  0.00    +0.000 A 
ATOM     24  C   UNL     1      -5.008  13.482  23.381  0.00  0.00    +0.000 A 
ATOM     25  O   UNL     1      -5.644  12.432  23.255  0.00  0.00    +0.000 OA
ATOM     26  N   UNL     1      -3.631  13.613  23.205  0.00  0.00    +0.000 N 
ATOM     27  C   UNL     1      -2.866  12.528  22.743  0.00  0.00    +0.000 A 
BRANCH  23  28
ATOM     28  C   UNL     1      -7.210  14.785  23.963  0.00  0.00    +0.000 C 
ATOM     29  O   UNL     1      -7.904  15.665  23.489  0.00  0.00    +0.000 OA
BRANCH  28  30
ATOM     30  O   UNL     1      -7.731  13.812  24.740  0.00  0.00    +0.000 OA
ATOM     31  H   UNL     1      -8.437  13.274  24.311  0.00  0.00    +0.000 HD
ENDBRANCH  28  30
ENDBRANCH  23  28
ENDBRANCH  13  17
BRANCH   1  33
ATOM     32  C   UNL     1       1.810   4.213  20.462  0.00  0.00    +0.000 C 
ATOM     33  N   UNL     1       2.599   5.412  20.735  0.00  0.00    +0.000 N 
ATOM     34  H   UNL     1       3.578   5.213  20.898  0.00  0.00    +0.000 HD
ENDBRANCH   1  33
BRANCH  14  35
ATOM     35  N   UNL     1      -0.154  12.018  19.848  0.00  0.00    +0.000 N 
ATOM     36  C   UNL     1      -1.397  12.170  19.101  0.00  0.00    +0.000 C 
ATOM     37  C   UNL     1       0.697  13.205  19.738  0.00  0.00    +0.000 C 
ENDBRANCH  14  35
TORSDOF 5
ENDMDL
MODEL 3
REMARK VINA RESULT:      -8.0      4.795      9.916
REMARK  Name = 
REMARK  8 active torsions:
REMARK  status: ('A' for Active; 'I' for Inactive)
REMARK    1  A    between atoms: C_1  and  N_2
REMARK    2  A    between atoms: N_2  and  C_3
REMARK    3  A    between atoms: C_15  and  C_16
REMARK    4  A    between atoms: C_22  and  C_23
REMARK    5  A    between atoms: C_23  and  O_25
REMARK    6  A    between atoms: C_30  and  N_31
REMARK    7  A    between atoms: N_31  and  C_32
REMARK    8  A    between atoms: N_31  and  C_33
REMARK                            x       y       z     vdW  Elec       q    Type
REMARK                         _______ _______ _______ _____ _____    ______ ____
ROOT
ATOM      1  C   UNL     1       4.276   5.467  17.537  0.00  0.00    +0.000 A 
ATOM      2  C   UNL     1       4.392   4.426  18.465  0.00  0.00    +0.000 A 
ATOM      3  C   UNL     1       3.588   4.404  19.583  0.00  0.00    +0.000 A 
ATOM      4  F   UNL     1       3.662   3.323  20.375  0.00  0.00    +0.000 F 
ATOM      5  C   UNL     1       2.695   5.447  19.866  0.00  0.00    +0.000 A 
ATOM      6 CL   UNL     1       1.480   5.128  21.016  0.00  0.00    +0.000 Cl
ATOM      7  C   UNL     1       2.676   6.656  19.112  0.00  0.00    +0.000 A 
ATOM      8  C   UNL     1       3.470   6.574  17.936  0.00  0.00    +0.000 A 
ATOM      9  N   UNL     1       3.274   7.746  17.263  0.00  0.00    +0.000 N 
ATOM     10  C   UNL     1       2.471   8.597  17.941  0.00  0.00    +0.000 A 
ATOM     11  N   UNL     1       2.194   9.790  17.407  0.00  0.00    +0.000 NA
ATOM     12  C   UNL     1       1.435  10.560  18.190  0.00  0.00    +0.000 A 
ATOM     13  C   UNL     1       0.952  10.231  19.460  0.00  0.00    +0.000 A 
ATOM     14  C   UNL     1       1.241   8.918  20.020  0.00  0.00    +0.000 A 
ATOM     15  C   UNL     1       2.066   8.036  19.157  0.00  0.00    +0.000 A 
ATOM     16  H   UNL     1       3.695   7.987  16.380  0.00  0.00    +0.000 HD
ENDROOT
BRANCH  13  17
ATOM     17  C   UNL     1       0.164  11.361  20.057  0.00  0.00    +0.000 A 
ATOM     18  C   UNL     1       0.718  12.178  21.130  0.00  0.00    +0.000 A 
ATOM     19  C   UNL     1       0.004  13.142  21.720  0.00  0.00    +0.000 A 
ATOM     20  C   UNL     1      -1.391  13.399  21.292  0.00  0.00    +0.000 A 
ATOM     21  N   UNL     1      -2.029  14.385  21.840  0.00  0.00    +0.000 NA
ATOM     22  C   UNL     1      -3.324  14.589  21.456  0.00  0.00    +0.000 A 
ATOM     23  C   UNL     1      -4.006  13.810  20.609  0.00  0.00    +0.000 A 
ATOM     24  C   UNL     1      -3.277  12.667  20.011  0.00  0.00    +0.000 A 
ATOM     25  O   UNL     1      -3.905  11.894  19.281  0.00  0.00    +0.000 OA
ATOM     26  N   UNL     1      -1.927  12.545  20.338  0.00  0.00    +0.000 N 
ATOM     27  C   UNL     1      -1.137  11.549  19.739  0.00  0.00    +0.000 A 
BRANCH  23  28
ATOM     28  C   UNL     1      -5.424  14.137  20.356  0.00  0.00    +0.000 C 
ATOM     29  O   UNL     1      -6.247  14.285  21.239  0.00  0.00    +0.000 OA
BRANCH  28  30
ATOM     30  O   UNL     1      -5.757  14.235  19.051  0.00  0.00    +0.000 OA
ATOM     31  H   UNL     1      -6.025  13.385  18.629  0.00  0.00    +0.000 HD
ENDBRANCH  28  30
ENDBRANCH  23  28
ENDBRANCH  13  17
BRANCH   1  33
ATOM     32  C   UNL     1       5.585   4.200  15.880  0.00  0.00    +0.000 C 
ATOM     33  N   UNL     1       4.968   5.450  16.319  0.00  0.00    +0.000 N 
ATOM     34  H   UNL     1       4.524   5.959  15.565  0.00  0.00    +0.000 HD
ENDBRANCH   1  33
BRANCH  14  35
ATOM     35  N   UNL     1       0.744   8.542  21.279  0.00  0.00    +0.000 N 
ATOM     36  C   UNL     1       1.466   8.946  22.481  0.00  0.00    +0.000 C 
ATOM     37  C   UNL     1      -0.664   8.253  21.559  0.00  0.00    +0.000 C 
ENDBRANCH  14  35
TORSDOF 5
ENDMDL
MODEL 4
REMARK VINA RESULT:      -7.9      2.293      2.983
REMARK  Name = 
REMARK  8 active torsions:
REMARK  status: ('A' for Active; 'I' for Inactive)
REMARK    1  A    between atoms: C_1  and  N_2
REMARK    2  A    between atoms: N_2  and  C_3
REMARK    3  A    between atoms: C_15  and  C_16
REMARK    4  A    between atoms: C_22  and  C_23
REMARK    5  A    between atoms: C_23  and  O_25
REMARK    6  A    between atoms: C_30  and  N_31
REMARK    7  A    between atoms: N_31  and  C_32
REMARK    8  A    between atoms: N_31  and  C_33
REMARK                            x       y       z     vdW  Elec       q    Type
REMARK                         _______ _______ _______ _____ _____    ______ ____
ROOT
ATOM      1  C   UNL     1      -1.466  13.769  22.520  0.00  0.00    +0.000 A 
ATOM      2  C   UNL     1      -1.419  14.786  21.561  0.00  0.00    +0.000 A 
ATOM      3  C   UNL     1      -1.094  14.492  20.255  0.00  0.00    +0.000 A 
ATOM      4  F   UNL     1      -1.179  15.486  19.359  0.00  0.00    +0.000 F 
ATOM      5  C   UNL     1      -0.727  13.196  19.864  0.00  0.00    +0.000 A 
ATOM      6 CL   UNL     1      -0.754  12.860  18.195  0.00  0.00    +0.000 Cl
ATOM      7  C   UNL     1      -0.515  12.149  20.809  0.00  0.00    +0.000 A 
ATOM      8  C   UNL     1      -0.945  12.504  22.116  0.00  0.00    +0.000 A 
ATOM      9  N   UNL     1      -0.787  11.386  22.884  0.00  0.00    +0.000 N 
ATOM     10  C   UNL     1      -0.234  10.364  22.192  0.00  0.00    +0.000 A 
ATOM     11  N   UNL     1      -0.013   9.203  22.816  0.00  0.00    +0.000 NA
ATOM     12  C   UNL     1       0.582   8.291  22.046  0.00  0.00    +0.000 A 
ATOM     13  C   UNL     1       0.981   8.458  20.717  0.00  0.00    +0.000 A 
ATOM     14  C   UNL     1       0.711   9.720  20.040  0.00  0.00    +0.000 A 
ATOM     15  C   UNL     1       0.031  10.744  20.871  0.00  0.00    +0.000 A 
ATOM     16  H   UNL     1      -1.017  11.315  23.862  0.00  0.00    +0.000 HD
ENDROOT
BRANCH  13  17
ATOM     17  C   UNL     1       1.653   7.225  20.185  0.00  0.00    +0.000 A 
ATOM     18  C   UNL     1       1.459   5.930  20.824  0.00  0.00    +0.000 A 
ATOM     19  C   UNL     1       2.105   4.835  20.407  0.00  0.00    +0.000 A 
ATOM     20  C   UNL     1       3.050   4.922  19.269  0.00  0.00    +0.000 A 
ATOM     21  N   UNL     1       3.606   3.829  18.850  0.00  0.00    +0.000 NA
ATOM     22  C   UNL     1       4.499   3.931  17.820  0.00  0.00    +0.000 A 
ATOM     23  C   UNL     1       4.894   5.078  17.256  0.00  0.00    +0.000 A 
ATOM     24  C   UNL     1       4.276   6.325  17.764  0.00  0.00    +0.000 A 
ATOM     25  O   UNL     1       4.676   7.400  17.309  0.00  0.00    +0.000 OA
ATOM     26  N   UNL     1       3.291   6.183  18.741  0.00  0.00    +0.000 N 
ATOM     27  C   UNL     1       2.584   7.304  19.207  0.00  0.00    +0.000 A 
BRANCH  23  28
ATOM     28  C   UNL     1       5.922   5.011  16.198  0.00  0.00    +0.000 C 
ATOM     29  O   UNL     1       6.947   4.366  16.296  0.00  0.00    +0.000 OA
BRANCH  28  30
ATOM     30  O   UNL     1       5.652   5.753  15.102  0.00  0.00    +0.000 OA
ATOM     31  H   UNL     1       4.693   5.888  14.921  0.00  0.00    +0.000 HD
ENDBRANCH  28  30
ENDBRANCH  23  28
ENDBRANCH  13  17
BRANCH   1  33
ATOM     32  C   UNL     1      -3.326  13.690  24.132  0.00  0.00    +0.000 C 
ATOM     33  N   UNL     1      -1.933  14.002  23.820  0.00  0.00    +0.000 N 
ATOM     34  H   UNL     1      -1.294  13.739  24.561  0.00  0.00    +0.000 HD
ENDBRANCH   1  33
BRANCH  14  35
ATOM     35  N   UNL     1       1.069   9.912  18.695  0.00  0.00    +0.000 N 
ATOM     36  C   UNL     1       0.098   9.617  17.649  0.00  0.00    +0.000 C 
ATOM     37  C   UNL     1       2.093  10.855  18.240  0.00  0.00    +0.000 C 
ENDBRANCH  14  35
TORSDOF 5
ENDMDL
MODEL 5
REMARK VINA RESULT:      -7.8      4.942      9.879
REMARK  Name = 
REMARK  8 active torsions:
REMARK  status: ('A' for Active; 'I' for Inactive)
REMARK    1  A    between atoms: C_1  and  N_2
REMARK    2  A    between atoms: N_2  and  C_3
REMARK    3  A    between atoms: C_15  and  C_16
REMARK    4  A    between atoms: C_22  and  C_23
REMARK    5  A    between atoms: C_23  and  O_25
REMARK    6  A    between atoms: C_30  and  N_31
REMARK    7  A    between atoms: N_31  and  C_32
REMARK    8  A    between atoms: N_31  and  C_33
REMARK                            x       y       z     vdW  Elec       q    Type
REMARK                         _______ _______ _______ _____ _____    ______ ____
ROOT
ATOM      1  C   UNL     1       4.314   5.504  17.494  0.00  0.00    +0.000 A 
ATOM      2  C   UNL     1       4.450   4.463  18.419  0.00  0.00    +0.000 A 
ATOM      3  C   UNL     1       3.659   4.431  19.546  0.00  0.00    +0.000 A 
ATOM      4  F   UNL     1       3.753   3.350  20.335  0.00  0.00    +0.000 F 
ATOM      5  C   UNL     1       2.758   5.465  19.840  0.00  0.00    +0.000 A 
ATOM      6 CL   UNL     1       1.559   5.132  21.002  0.00  0.00    +0.000 Cl
ATOM      7  C   UNL     1       2.719   6.674  19.088  0.00  0.00    +0.000 A 
ATOM      8  C   UNL     1       3.501   6.602  17.903  0.00  0.00    +0.000 A 
ATOM      9  N   UNL     1       3.286   7.772  17.234  0.00  0.00    +0.000 N 
ATOM     10  C   UNL     1       2.481   8.615  17.921  0.00  0.00    +0.000 A 
ATOM     11  N   UNL     1       2.187   9.805  17.392  0.00  0.00    +0.000 NA
ATOM     12  C   UNL     1       1.429  10.566  18.184  0.00  0.00    +0.000 A 
ATOM     13  C   UNL     1       0.963  10.231  19.459  0.00  0.00    +0.000 A 
ATOM     14  C   UNL     1       1.271   8.920  20.013  0.00  0.00    +0.000 A 
ATOM     15  C   UNL     1       2.095   8.048  19.141  0.00  0.00    +0.000 A 
ATOM     16  H   UNL     1       3.694   8.018  16.347  0.00  0.00    +0.000 HD
ENDROOT
BRANCH  13  17
ATOM     17  C   UNL     1       0.170  11.352  20.066  0.00  0.00    +0.000 A 
ATOM     18  C   UNL     1      -1.246  11.520  19.762  0.00  0.00    +0.000 A 
ATOM     19  C   UNL     1      -1.950  12.553  20.238  0.00  0.00    +0.000 A 
ATOM     20  C   UNL     1      -1.291  13.567  21.095  0.00  0.00    +0.000 A 
ATOM     21  N   UNL     1      -2.019  14.516  21.593  0.00  0.00    +0.000 NA
ATOM     22  C   UNL     1      -1.390  15.459  22.355  0.00  0.00    +0.000 A 
ATOM     23  C   UNL     1      -0.071  15.518  22.572  0.00  0.00    +0.000 A 
ATOM     24  C   UNL     1       0.757  14.445  21.972  0.00  0.00    +0.000 A 
ATOM     25  O   UNL     1       1.983  14.517  22.100  0.00  0.00    +0.000 OA
ATOM     26  N   UNL     1       0.078  13.437  21.289  0.00  0.00    +0.000 N 
ATOM     27  C   UNL     1       0.776  12.332  20.775  0.00  0.00    +0.000 A 
BRANCH  23  28
ATOM     28  C   UNL     1       0.450  16.648  23.366  0.00  0.00    +0.000 C 
ATOM     29  O   UNL     1      -0.092  17.735  23.425  0.00  0.00    +0.000 OA
BRANCH  28  30
ATOM     30  O   UNL     1       1.609  16.397  24.013  0.00  0.00    +0.000 OA
ATOM     31  H   UNL     1       2.287  17.109  23.937  0.00  0.00    +0.000 HD
ENDBRANCH  28  30
ENDBRANCH  23  28
ENDBRANCH  13  17
BRANCH   1  33
ATOM     32  C   UNL     1       6.423   5.194  16.261  0.00  0.00    +0.000 C 
ATOM     33  N   UNL     1       4.993   5.495  16.269  0.00  0.00    +0.000 N 
ATOM     34  H   UNL     1       4.493   5.060  15.503  0.00  0.00    +0.000 HD
ENDBRANCH   1  33
BRANCH  14  35
ATOM     35  N   UNL     1       0.792   8.538  21.278  0.00  0.00    +0.000 N 
ATOM     36  C   UNL     1       1.485   9.001  22.474  0.00  0.00    +0.000 C 
ATOM     37  C   UNL     1      -0.599   8.175  21.559  0.00  0.00    +0.000 C 
ENDBRANCH  14  35
TORSDOF 5
ENDMDL
MODEL 6
REMARK VINA RESULT:      -7.8      3.048      4.201
REMARK  Name = 
REMARK  8 active torsions:
REMARK  status: ('A' for Active; 'I' for Inactive)
REMARK    1  A    between atoms: C_1  and  N_2
REMARK    2  A    between atoms: N_2  and  C_3
REMARK    3  A    between atoms: C_15  and  C_16
REMARK    4  A    between atoms: C_22  and  C_23
REMARK    5  A    between atoms: C_23  and  O_25
REMARK    6  A    between atoms: C_30  and  N_31
REMARK    7  A    between atoms: N_31  and  C_32
REMARK    8  A    between atoms: N_31  and  C_33
REMARK                            x       y       z     vdW  Elec       q    Type
REMARK                         _______ _______ _______ _____ _____    ______ ____
ROOT
ATOM      1  C   UNL     1      -1.104  14.422  20.081  0.00  0.00    +0.000 A 
ATOM      2  C   UNL     1      -1.969  14.371  21.180  0.00  0.00    +0.000 A 
ATOM      3  C   UNL     1      -1.922  13.303  22.048  0.00  0.00    +0.000 A 
ATOM      4  F   UNL     1      -2.692  13.366  23.145  0.00  0.00    +0.000 F 
ATOM      5  C   UNL     1      -1.074  12.209  21.821  0.00  0.00    +0.000 A 
ATOM      6 CL   UNL     1      -0.794  11.168  23.139  0.00  0.00    +0.000 Cl
ATOM      7  C   UNL     1      -0.335  12.060  20.612  0.00  0.00    +0.000 A 
ATOM      8  C   UNL     1      -0.371  13.230  19.806  0.00  0.00    +0.000 A 
ATOM      9  N   UNL     1       0.457  12.989  18.748  0.00  0.00    +0.000 N 
ATOM     10  C   UNL     1       0.972  11.738  18.777  0.00  0.00    +0.000 A 
ATOM     11  N   UNL     1       1.798  11.355  17.799  0.00  0.00    +0.000 NA
ATOM     12  C   UNL     1       2.198  10.087  17.907  0.00  0.00    +0.000 A 
ATOM     13  C   UNL     1       1.825   9.181  18.904  0.00  0.00    +0.000 A 
ATOM     14  C   UNL     1       0.943   9.618  19.978  0.00  0.00    +0.000 A 
ATOM     15  C   UNL     1       0.502  11.032  19.890  0.00  0.00    +0.000 A 
ATOM     16  H   UNL     1       0.652  13.637  18.003  0.00  0.00    +0.000 HD
ENDROOT
BRANCH  13  17
ATOM     17  C   UNL     1       2.444   7.832  18.680  0.00  0.00    +0.000 A 
ATOM     18  C   UNL     1       2.303   6.768  19.667  0.00  0.00    +0.000 A 
ATOM     19  C   UNL     1       2.906   5.584  19.516  0.00  0.00    +0.000 A 
ATOM     20  C   UNL     1       3.750   5.328  18.325  0.00  0.00    +0.000 A 
ATOM     21  N   UNL     1       4.264   4.148  18.179  0.00  0.00    +0.000 NA
ATOM     22  C   UNL     1       5.064   3.938  17.092  0.00  0.00    +0.000 A 
ATOM     23  C   UNL     1       5.413   4.875  16.202  0.00  0.00    +0.000 A 
ATOM     24  C   UNL     1       4.844   6.230  16.395  0.00  0.00    +0.000 A 
ATOM     25  O   UNL     1       5.207   7.127  15.629  0.00  0.00    +0.000 OA
ATOM     26  N   UNL     1       3.948   6.389  17.451  0.00  0.00    +0.000 N 
ATOM     27  C   UNL     1       3.287   7.613  17.645  0.00  0.00    +0.000 A 
BRANCH  23  28
ATOM     28  C   UNL     1       6.344   4.492  15.122  0.00  0.00    +0.000 C 
ATOM     29  O   UNL     1       6.098   3.636  14.295  0.00  0.00    +0.000 OA
BRANCH  28  30
ATOM     30  O   UNL     1       7.523   5.150  15.133  0.00  0.00    +0.000 OA
ATOM     31  H   UNL     1       8.008   5.115  15.990  0.00  0.00    +0.000 HD
ENDBRANCH  28  30
ENDBRANCH  23  28
ENDBRANCH  13  17
BRANCH   1  33
ATOM     32  C   UNL     1      -1.549  16.823  19.759  0.00  0.00    +0.000 C 
ATOM     33  N   UNL     1      -1.020  15.555  19.262  0.00  0.00    +0.000 N 
ATOM     34  H   UNL     1      -0.144  15.660  18.762  0.00  0.00    +0.000 HD
ENDBRANCH   1  33
BRANCH  14  35
ATOM     35  N   UNL     1       0.573   8.744  21.013  0.00  0.00    +0.000 N 
ATOM     36  C   UNL     1       1.307   8.778  22.273  0.00  0.00    +0.000 C 
ATOM     37  C   UNL     1      -0.768   8.179  21.178  0.00  0.00    +0.000 C 
ENDBRANCH  14  35
TORSDOF 5
ENDMDL
MODEL 7
REMARK VINA RESULT:      -7.7      1.068      1.165
REMARK  Name = 
REMARK  8 active torsions:
REMARK  status: ('A' for Active; 'I' for Inactive)
REMARK    1  A    between atoms: C_1  and  N_2
REMARK    2  A    between atoms: N_2  and  C_3
REMARK    3  A    between atoms: C_15  and  C_16
REMARK    4  A    between atoms: C_22  and  C_23
REMARK    5  A    between atoms: C_23  and  O_25
REMARK    6  A    between atoms: C_30  and  N_31
REMARK    7  A    between atoms: N_31  and  C_32
REMARK    8  A    between atoms: N_31  and  C_33
REMARK                            x       y       z     vdW  Elec       q    Type
REMARK                         _______ _______ _______ _____ _____    ______ ____
ROOT
ATOM      1  C   UNL     1      -3.088  13.149  23.396  0.00  0.00    +0.000 A 
ATOM      2  C   UNL     1      -3.647  14.120  22.558  0.00  0.00    +0.000 A 
ATOM      3  C   UNL     1      -3.548  13.994  21.191  0.00  0.00    +0.000 A 
ATOM      4  F   UNL     1      -4.203  14.892  20.439  0.00  0.00    +0.000 F 
ATOM      5  C   UNL     1      -2.826  12.946  20.600  0.00  0.00    +0.000 A 
ATOM      6 CL   UNL     1      -3.112  12.652  18.948  0.00  0.00    +0.000 Cl
ATOM      7  C   UNL     1      -2.027  12.049  21.366  0.00  0.00    +0.000 A 
ATOM      8  C   UNL     1      -2.242  12.190  22.765  0.00  0.00    +0.000 A 
ATOM      9  N   UNL     1      -1.506  11.208  23.363  0.00  0.00    +0.000 N 
ATOM     10  C   UNL     1      -0.788  10.489  22.469  0.00  0.00    +0.000 A 
ATOM     11  N   UNL     1      -0.013   9.495  22.910  0.00  0.00    +0.000 NA
ATOM     12  C   UNL     1       0.683   8.895  21.943  0.00  0.00    +0.000 A 
ATOM     13  C   UNL     1       0.671   9.224  20.585  0.00  0.00    +0.000 A 
ATOM     14  C   UNL     1      -0.198  10.294  20.113  0.00  0.00    +0.000 A 
ATOM     15  C   UNL     1      -0.998  10.962  21.169  0.00  0.00    +0.000 A 
ATOM     16  H   UNL     1      -1.459  11.039  24.354  0.00  0.00    +0.000 HD
ENDROOT
BRANCH  13  17
ATOM     17  C   UNL     1       1.611   8.355  19.800  0.00  0.00    +0.000 A 
ATOM     18  C   UNL     1       2.176   8.810  18.536  0.00  0.00    +0.000 A 
ATOM     19  C   UNL     1       2.959   8.022  17.790  0.00  0.00    +0.000 A 
ATOM     20  C   UNL     1       3.267   6.645  18.241  0.00  0.00    +0.000 A 
ATOM     21  N   UNL     1       4.083   5.934  17.528  0.00  0.00    +0.000 NA
ATOM     22  C   UNL     1       4.333   4.656  17.941  0.00  0.00    +0.000 A 
ATOM     23  C   UNL     1       3.750   4.058  18.986  0.00  0.00    +0.000 A 
ATOM     24  C   UNL     1       2.795   4.870  19.778  0.00  0.00    +0.000 A 
ATOM     25  O   UNL     1       2.193   4.319  20.704  0.00  0.00    +0.000 OA
ATOM     26  N   UNL     1       2.640   6.202  19.398  0.00  0.00    +0.000 N 
ATOM     27  C   UNL     1       1.830   7.067  20.153  0.00  0.00    +0.000 A 
BRANCH  23  28
ATOM     28  C   UNL     1       4.085   2.645  19.252  0.00  0.00    +0.000 C 
ATOM     29  O   UNL     1       3.404   1.711  18.875  0.00  0.00    +0.000 OA
BRANCH  28  30
ATOM     30  O   UNL     1       5.207   2.458  19.979  0.00  0.00    +0.000 OA
ATOM     31  H   UNL     1       5.789   3.251  20.052  0.00  0.00    +0.000 HD
ENDBRANCH  28  30
ENDBRANCH  23  28
ENDBRANCH  13  17
BRANCH   1  33
ATOM     32  C   UNL     1      -4.540  12.617  25.313  0.00  0.00    +0.000 C 
ATOM     33  N   UNL     1      -3.293  13.163  24.782  0.00  0.00    +0.000 N 
ATOM     34  H   UNL     1      -2.484  12.917  25.339  0.00  0.00    +0.000 HD
ENDBRANCH   1  33
BRANCH  14  35
ATOM     35  N   UNL     1      -0.259  10.630  18.750  0.00  0.00    +0.000 N 
ATOM     36  C   UNL     1      -1.267  10.001  17.905  0.00  0.00    +0.000 C 
ATOM     37  C   UNL     1       0.207  11.901  18.191  0.00  0.00    +0.000 C 
ENDBRANCH  14  35
TORSDOF 5
ENDMDL
MODEL 8
REMARK VINA RESULT:      -7.6      4.820      9.685
REMARK  Name = 
REMARK  8 active torsions:
REMARK  status: ('A' for Active; 'I' for Inactive)
REMARK    1  A    between atoms: C_1  and  N_2
REMARK    2  A    between atoms: N_2  and  C_3
REMARK    3  A    between atoms: C_15  and  C_16
REMARK    4  A    between atoms: C_22  and  C_23
REMARK    5  A    between atoms: C_23  and  O_25
REMARK    6  A    between atoms: C_30  and  N_31
REMARK    7  A    between atoms: N_31  and  C_32
REMARK    8  A    between atoms: N_31  and  C_33
REMARK                            x       y       z     vdW  Elec       q    Type
REMARK                         _______ _______ _______ _____ _____    ______ ____
ROOT
ATOM      1  C   UNL     1       2.222   6.487  20.028  0.00  0.00    +0.000 A 
ATOM      2  C   UNL     1       2.600   6.558  18.682  0.00  0.00    +0.000 A 
ATOM      3  C   UNL     1       2.504   7.749  17.999  0.00  0.00    +0.000 A 
ATOM      4  F   UNL     1       2.990   7.783  16.749  0.00  0.00    +0.000 F 
ATOM      5  C   UNL     1       1.960   8.896  18.594  0.00  0.00    +0.000 A 
ATOM      6 CL   UNL     1       2.267  10.382  17.823  0.00  0.00    +0.000 Cl
ATOM      7  C   UNL     1       1.332   8.861  19.873  0.00  0.00    +0.000 A 
ATOM      8  C   UNL     1       1.539   7.626  20.546  0.00  0.00    +0.000 A 
ATOM      9  N   UNL     1       0.986   7.772  21.786  0.00  0.00    +0.000 N 
ATOM     10  C   UNL     1       0.386   8.974  21.940  0.00  0.00    +0.000 A 
ATOM     11  N   UNL     1      -0.207   9.257  23.104  0.00  0.00    +0.000 NA
ATOM     12  C   UNL     1      -0.807  10.449  23.118  0.00  0.00    +0.000 A 
ATOM     13  C   UNL     1      -0.868  11.361  22.060  0.00  0.00    +0.000 A 
ATOM     14  C   UNL     1      -0.197  11.050  20.806  0.00  0.00    +0.000 A 
ATOM     15  C   UNL     1       0.496   9.738  20.773  0.00  0.00    +0.000 A 
ATOM     16  H   UNL     1       0.981   7.069  22.507  0.00  0.00    +0.000 HD
ENDROOT
BRANCH  13  17
ATOM     17  C   UNL     1      -1.661  12.581  22.431  0.00  0.00    +0.000 A 
ATOM     18  C   UNL     1      -1.207  13.478  23.486  0.00  0.00    +0.000 A 
ATOM     19  C   UNL     1      -1.936  14.530  23.877  0.00  0.00    +0.000 A 
ATOM     20  C   UNL     1      -3.244  14.804  23.238  0.00  0.00    +0.000 A 
ATOM     21  N   UNL     1      -3.890  15.869  23.595  0.00  0.00    +0.000 NA
ATOM     22  C   UNL     1      -5.109  16.090  23.018  0.00  0.00    +0.000 A 
ATOM     23  C   UNL     1      -5.717  15.259  22.164  0.00  0.00    +0.000 A 
ATOM     24  C   UNL     1      -4.983  14.028  21.786  0.00  0.00    +0.000 A 
ATOM     25  O   UNL     1      -5.553  13.213  21.054  0.00  0.00    +0.000 OA
ATOM     26  N   UNL     1      -3.698  13.880  22.306  0.00  0.00    +0.000 N 
ATOM     27  C   UNL     1      -2.896  12.793  21.921  0.00  0.00    +0.000 A 
BRANCH  23  28
ATOM     28  C   UNL     1      -7.067  15.621  21.688  0.00  0.00    +0.000 C 
ATOM     29  O   UNL     1      -7.916  16.126  22.397  0.00  0.00    +0.000 OA
BRANCH  28  30
ATOM     30  O   UNL     1      -7.309  15.322  20.394  0.00  0.00    +0.000 OA
ATOM     31  H   UNL     1      -6.857  15.908  19.743  0.00  0.00    +0.000 HD
ENDBRANCH  28  30
ENDBRANCH  23  28
ENDBRANCH  13  17
BRANCH   1  33
ATOM     32  C   UNL     1       1.513   4.215  20.663  0.00  0.00    +0.000 C 
ATOM     33  N   UNL     1       2.441   5.336  20.796  0.00  0.00    +0.000 N 
ATOM     34  H   UNL     1       3.409   5.043  20.865  0.00  0.00    +0.000 HD
ENDBRANCH   1  33
BRANCH  14  35
ATOM     35  N   UNL     1      -0.211  11.957  19.733  0.00  0.00    +0.000 N 
ATOM     36  C   UNL     1       0.896  12.893  19.574  0.00  0.00    +0.000 C 
ATOM     37  C   UNL     1      -0.922  11.734  18.472  0.00  0.00    +0.000 C 
ENDBRANCH  14  35
TORSDOF 5
ENDMDL
MODEL 9
REMARK VINA RESULT:      -7.5      1.003      1.058
REMARK  Name = 
REMARK  8 active torsions:
REMARK  status: ('A' for Active; 'I' for Inactive)
REMARK    1  A    between atoms: C_1  and  N_2
REMARK    2  A    between atoms: N_2  and  C_3
REMARK    3  A    between atoms: C_15  and  C_16
REMARK    4  A    between atoms: C_22  and  C_23
REMARK    5  A    between atoms: C_23  and  O_25
REMARK    6  A    between atoms: C_30  and  N_31
REMARK    7  A    between atoms: N_31  and  C_32
REMARK    8  A    between atoms: N_31  and  C_33
REMARK                            x       y       z     vdW  Elec       q    Type
REMARK                         _______ _______ _______ _____ _____    ______ ____
ROOT
ATOM      1  C   UNL     1      -4.106  14.579  22.339  0.00  0.00    +0.000 A 
ATOM      2  C   UNL     1      -5.119  14.922  21.436  0.00  0.00    +0.000 A 
ATOM      3  C   UNL     1      -5.289  14.197  20.278  0.00  0.00    +0.000 A 
ATOM      4  F   UNL     1      -6.347  14.499  19.511  0.00  0.00    +0.000 F 
ATOM      5  C   UNL     1      -4.417  13.154  19.931  0.00  0.00    +0.000 A 
ATOM      6 CL   UNL     1      -4.951  12.077  18.725  0.00  0.00    +0.000 Cl
ATOM      7  C   UNL     1      -3.223  12.888  20.662  0.00  0.00    +0.000 A 
ATOM      8  C   UNL     1      -3.158  13.618  21.879  0.00  0.00    +0.000 A 
ATOM      9  N   UNL     1      -2.032  13.188  22.520  0.00  0.00    +0.000 N 
ATOM     10  C   UNL     1      -1.337  12.288  21.786  0.00  0.00    +0.000 A 
ATOM     11  N   UNL     1      -0.206  11.782  22.284  0.00  0.00    +0.000 NA
ATOM     12  C   UNL     1       0.415  10.947  21.449  0.00  0.00    +0.000 A 
ATOM     13  C   UNL     1      -0.002  10.597  20.162  0.00  0.00    +0.000 A 
ATOM     14  C   UNL     1      -1.251  11.137  19.641  0.00  0.00    +0.000 A 
ATOM     15  C   UNL     1      -1.970  12.053  20.561  0.00  0.00    +0.000 A 
ATOM     16  H   UNL     1      -1.715  13.512  23.419  0.00  0.00    +0.000 HD
ENDROOT
BRANCH  13  17
ATOM     17  C   UNL     1       0.970   9.661  19.504  0.00  0.00    +0.000 A 
ATOM     18  C   UNL     1       1.546   9.970  18.201  0.00  0.00    +0.000 A 
ATOM     19  C   UNL     1       2.358   9.115  17.570  0.00  0.00    +0.000 A 
ATOM     20  C   UNL     1       2.690   7.812  18.192  0.00  0.00    +0.000 A 
ATOM     21  N   UNL     1       3.533   7.038  17.583  0.00  0.00    +0.000 NA
ATOM     22  C   UNL     1       3.803   5.827  18.155  0.00  0.00    +0.000 A 
ATOM     23  C   UNL     1       3.216   5.349  19.257  0.00  0.00    +0.000 A 
ATOM     24  C   UNL     1       2.230   6.229  19.929  0.00  0.00    +0.000 A 
ATOM     25  O   UNL     1       1.624   5.782  20.908  0.00  0.00    +0.000 OA
ATOM     26  N   UNL     1       2.052   7.500  19.385  0.00  0.00    +0.000 N 
ATOM     27  C   UNL     1       1.211   8.432  20.016  0.00  0.00    +0.000 A 
BRANCH  23  28
ATOM     28  C   UNL     1       3.577   3.988  19.700  0.00  0.00    +0.000 C 
ATOM     29  O   UNL     1       4.676   3.496  19.530  0.00  0.00    +0.000 OA
BRANCH  28  30
ATOM     30  O   UNL     1       2.577   3.302  20.294  0.00  0.00    +0.000 OA
ATOM     31  H   UNL     1       1.690   3.726  20.228  0.00  0.00    +0.000 HD
ENDBRANCH  28  30
ENDBRANCH  23  28
ENDBRANCH  13  17
BRANCH   1  33
ATOM     32  C   UNL     1      -3.485  16.565  23.657  0.00  0.00    +0.000 C 
ATOM     33  N   UNL     1      -3.994  15.197  23.591  0.00  0.00    +0.000 N 
ATOM     34  H   UNL     1      -4.768  15.032  24.223  0.00  0.00    +0.000 HD
ENDBRANCH   1  33
BRANCH  14  35
ATOM     35  N   UNL     1      -1.717  10.782  18.364  0.00  0.00    +0.000 N 
ATOM     36  C   UNL     1      -2.609   9.637  18.222  0.00  0.00    +0.000 C 
ATOM     37  C   UNL     1      -1.843  11.715  17.242  0.00  0.00    +0.000 C 
ENDBRANCH  14  35
TORSDOF 5
ENDMDL
