MODEL 1
REMARK VINA RESULT:      -7.2      0.000      0.000
REMARK  Name = 
REMARK  9 active torsions:
REMARK  status: ('A' for Active; 'I' for Inactive)
REMARK    1  A    between atoms: N_1  and  C_2
REMARK    2  A    between atoms: C_5  and  C_6
REMARK    3  A    between atoms: C_6  and  N_7
REMARK    4  A    between atoms: C_8  and  C_10
REMARK    5  A    between atoms: C_15  and  C_17
REMARK    6  A    between atoms: C_17  and  N_18
REMARK    7  A    between atoms: C_17  and  C_19
REMARK    8  A    between atoms: C_19  and  C_20
REMARK    9  A    between atoms: C_19  and  C_26
REMARK                            x       y       z     vdW  Elec       q    Type
REMARK                         _______ _______ _______ _____ _____    ______ ____
ROOT
ATOM      1  C   UNL     1      -2.678  10.767  18.163  0.00  0.00    +0.000 C 
ATOM      2  C   UNL     1      -2.365  10.749  16.647  0.00  0.00    +0.000 C 
ATOM      3  C   UNL     1      -3.731  10.773  15.984  0.00  0.00    +0.000 C 
ATOM      4  C   UNL     1      -4.614  11.499  16.986  0.00  0.00    +0.000 C 
ATOM      5  N   UNL     1      -3.811  11.702  18.189  0.00  0.00    +0.000 N 
ATOM      6  C   UNL     1      -4.481  12.261  19.275  0.00  0.00    +0.000 C 
ATOM      7  O   UNL     1      -5.636  12.664  19.119  0.00  0.00    +0.000 OA
ENDROOT
BRANCH   1   9
ATOM      8  N   UNL     1      -0.891   9.850  19.635  0.00  0.00    +0.000 N 
ATOM      9  C   UNL     1      -1.375  10.962  18.974  0.00  0.00    +0.000 C 
ATOM     10  O   UNL     1      -0.811  12.039  18.994  0.00  0.00    +0.000 OA
ATOM     11  H   UNL     1      -1.395   8.978  19.602  0.00  0.00    +0.000 HD
BRANCH   8  12
ATOM     12  C   UNL     1       0.234   9.916  20.537  0.00  0.00    +0.000 C 
BRANCH  12  16
ATOM     13  C   UNL     1       2.408   6.808  18.406  0.00  0.00    +0.000 C 
ATOM     14  C   UNL     1       2.476   6.753  19.934  0.00  0.00    +0.000 C 
ATOM     15  C   UNL     1       1.406   7.645  20.569  0.00  0.00    +0.000 C 
ATOM     16  C   UNL     1       1.449   9.097  20.052  0.00  0.00    +0.000 C 
ATOM     17  C   UNL     1       1.499   9.151  18.516  0.00  0.00    +0.000 C 
ATOM     18  C   UNL     1       2.580   8.250  17.926  0.00  0.00    +0.000 C 
BRANCH  13  19
ATOM     19  N   UNL     1       3.436   5.961  17.806  0.00  0.00    +0.000 NA
ATOM     20  H   UNL     1       4.322   6.093  18.292  0.00  0.00    +0.000 HD
ATOM     21  H   UNL     1       3.598   6.237  16.839  0.00  0.00    +0.000 HD
ENDBRANCH  13  19
ENDBRANCH  12  16
ENDBRANCH   8  12
ENDBRANCH   1   9
BRANCH   6  22
ATOM     22  C   UNL     1      -3.646  12.752  20.501  0.00  0.00    +0.000 C 
BRANCH  22  23
ATOM     23  N   UNL     1      -2.865  13.838  19.866  0.00  0.00    +0.000 NA
ATOM     24  H   UNL     1      -2.648  14.518  20.602  0.00  0.00    +0.000 HD
ATOM     25  H   UNL     1      -3.416  14.322  19.166  0.00  0.00    +0.000 HD
ENDBRANCH  22  23
BRANCH  22  26
ATOM     26  C   UNL     1      -4.431  13.314  21.801  0.00  0.00    +0.000 C 
BRANCH  26  27
ATOM     27  C   UNL     1      -6.028  13.184  21.601  0.00  0.00    +0.000 C 
ATOM     28  C   UNL     1      -6.818  12.262  22.568  0.00  0.00    +0.000 C 
ATOM     29  C   UNL     1      -6.951  12.775  24.005  0.00  0.00    +0.000 C 
ATOM     30  C   UNL     1      -7.462  14.197  24.117  0.00  0.00    +0.000 C 
ATOM     31  C   UNL     1      -6.770  15.111  23.121  0.00  0.00    +0.000 C 
ATOM     32  C   UNL     1      -6.818  14.521  21.706  0.00  0.00    +0.000 C 
ENDBRANCH  26  27
BRANCH  26  33
ATOM     33  C   UNL     1      -3.798  12.585  23.129  0.00  0.00    +0.000 C 
ATOM     34  C   UNL     1      -2.283  12.203  23.010  0.00  0.00    +0.000 C 
ATOM     35  C   UNL     1      -1.394  13.438  22.913  0.00  0.00    +0.000 C 
ATOM     36  C   UNL     1      -1.473  14.222  24.216  0.00  0.00    +0.000 C 
ATOM     37  C   UNL     1      -2.920  14.505  24.611  0.00  0.00    +0.000 C 
ATOM     38  C   UNL     1      -3.826  13.275  24.516  0.00  0.00    +0.000 C 
ENDBRANCH  26  33
ENDBRANCH  22  26
ENDBRANCH   6  22
TORSDOF 9
ENDMDL
MODEL 2
REMARK VINA RESULT:      -7.2      2.122      3.579
REMARK  Name = 
REMARK  9 active torsions:
REMARK  status: ('A' for Active; 'I' for Inactive)
REMARK    1  A    between atoms: N_1  and  C_2
REMARK    2  A    between atoms: C_5  and  C_6
REMARK    3  A    between atoms: C_6  and  N_7
REMARK    4  A    between atoms: C_8  and  C_10
REMARK    5  A    between atoms: C_15  and  C_17
REMARK    6  A    between atoms: C_17  and  N_18
REMARK    7  A    between atoms: C_17  and  C_19
REMARK    8  A    between atoms: C_19  and  C_20
REMARK    9  A    between atoms: C_19  and  C_26
REMARK                            x       y       z     vdW  Elec       q    Type
REMARK                         _______ _______ _______ _____ _____    ______ ____
ROOT
ATOM      1  C   UNL     1      -1.655  10.252  18.559  0.00  0.00    +0.000 C 
ATOM      2  C   UNL     1      -1.948   9.813  17.104  0.00  0.00    +0.000 C 
ATOM      3  C   UNL     1      -3.391  10.228  16.873  0.00  0.00    +0.000 C 
ATOM      4  C   UNL     1      -3.583  11.421  17.796  0.00  0.00    +0.000 C 
ATOM      5  N   UNL     1      -2.369  11.535  18.600  0.00  0.00    +0.000 N 
ATOM      6  C   UNL     1      -2.391  12.512  19.592  0.00  0.00    +0.000 C 
ATOM      7  O   UNL     1      -3.349  13.288  19.643  0.00  0.00    +0.000 OA
ENDROOT
BRANCH   1   9
ATOM      8  N   UNL     1       0.658   9.701  17.821  0.00  0.00    +0.000 N 
ATOM      9  C   UNL     1      -0.148  10.088  18.872  0.00  0.00    +0.000 C 
ATOM     10  O   UNL     1       0.284  10.319  19.985  0.00  0.00    +0.000 OA
ATOM     11  H   UNL     1       0.259   9.509  16.916  0.00  0.00    +0.000 HD
BRANCH   8  12
ATOM     12  C   UNL     1       2.055   9.378  17.995  0.00  0.00    +0.000 C 
BRANCH  12  16
ATOM     13  C   UNL     1       4.032   5.679  19.151  0.00  0.00    +0.000 C 
ATOM     14  C   UNL     1       4.071   6.029  17.661  0.00  0.00    +0.000 C 
ATOM     15  C   UNL     1       3.679   7.490  17.424  0.00  0.00    +0.000 C 
ATOM     16  C   UNL     1       2.322   7.859  18.058  0.00  0.00    +0.000 C 
ATOM     17  C   UNL     1       2.239   7.404  19.524  0.00  0.00    +0.000 C 
ATOM     18  C   UNL     1       2.636   5.942  19.715  0.00  0.00    +0.000 C 
BRANCH  13  19
ATOM     19  N   UNL     1       4.399   4.282  19.370  0.00  0.00    +0.000 NA
ATOM     20  H   UNL     1       5.385   4.144  19.150  0.00  0.00    +0.000 HD
ATOM     21  H   UNL     1       3.879   3.678  18.736  0.00  0.00    +0.000 HD
ENDBRANCH  13  19
ENDBRANCH  12  16
ENDBRANCH   8  12
ENDBRANCH   1   9
BRANCH   6  22
ATOM     22  C   UNL     1      -1.056  12.879  20.316  0.00  0.00    +0.000 C 
BRANCH  22  23
ATOM     23  N   UNL     1      -0.223  13.253  19.151  0.00  0.00    +0.000 NA
ATOM     24  H   UNL     1      -0.493  14.207  18.886  0.00  0.00    +0.000 HD
ATOM     25  H   UNL     1      -0.419  12.657  18.355  0.00  0.00    +0.000 HD
ENDBRANCH  22  23
BRANCH  22  26
ATOM     26  C   UNL     1      -1.066  14.077  21.405  0.00  0.00    +0.000 C 
BRANCH  26  27
ATOM     27  C   UNL     1      -0.877  13.491  22.897  0.00  0.00    +0.000 C 
ATOM     28  C   UNL     1      -1.383  14.343  24.091  0.00  0.00    +0.000 C 
ATOM     29  C   UNL     1      -2.905  14.446  24.229  0.00  0.00    +0.000 C 
ATOM     30  C   UNL     1      -3.627  13.114  24.205  0.00  0.00    +0.000 C 
ATOM     31  C   UNL     1      -3.094  12.219  23.099  0.00  0.00    +0.000 C 
ATOM     32  C   UNL     1      -1.565  12.119  23.160  0.00  0.00    +0.000 C 
ENDBRANCH  26  27
BRANCH  26  33
ATOM     33  C   UNL     1       0.020  15.210  20.921  0.00  0.00    +0.000 C 
ATOM     34  C   UNL     1      -0.605  16.586  20.509  0.00  0.00    +0.000 C 
ATOM     35  C   UNL     1      -1.244  17.296  21.698  0.00  0.00    +0.000 C 
ATOM     36  C   UNL     1      -0.163  17.669  22.704  0.00  0.00    +0.000 C 
ATOM     37  C   UNL     1       0.703  16.467  23.067  0.00  0.00    +0.000 C 
ATOM     38  C   UNL     1       1.173  15.668  21.848  0.00  0.00    +0.000 C 
ENDBRANCH  26  33
ENDBRANCH  22  26
ENDBRANCH   6  22
TORSDOF 9
ENDMDL
MODEL 3
REMARK VINA RESULT:      -7.2      4.055      6.438
REMARK  Name = 
REMARK  9 active torsions:
REMARK  status: ('A' for Active; 'I' for Inactive)
REMARK    1  A    between atoms: N_1  and  C_2
REMARK    2  A    between atoms: C_5  and  C_6
REMARK    3  A    between atoms: C_6  and  N_7
REMARK    4  A    between atoms: C_8  and  C_10
REMARK    5  A    between atoms: C_15  and  C_17
REMARK    6  A    between atoms: C_17  and  N_18
REMARK    7  A    between atoms: C_17  and  C_19
REMARK    8  A    between atoms: C_19  and  C_20
REMARK    9  A    between atoms: C_19  and  C_26
REMARK                            x       y       z     vdW  Elec       q    Type
REMARK                         _______ _______ _______ _____ _____    ______ ____
ROOT
ATOM      1  C   UNL     1       0.623  10.444  21.135  0.00  0.00    +0.000 C 
ATOM      2  C   UNL     1      -0.142   9.221  21.696  0.00  0.00    +0.000 C 
ATOM      3  C   UNL     1      -0.669   9.695  23.039  0.00  0.00    +0.000 C 
ATOM      4  C   UNL     1      -0.834  11.197  22.861  0.00  0.00    +0.000 C 
ATOM      5  N   UNL     1      -0.269  11.533  21.557  0.00  0.00    +0.000 N 
ATOM      6  C   UNL     1      -0.226  12.891  21.250  0.00  0.00    +0.000 C 
ATOM      7  O   UNL     1      -0.773  13.692  22.012  0.00  0.00    +0.000 OA
ENDROOT
BRANCH   1   9
ATOM      8  N   UNL     1       1.536   8.930  19.382  0.00  0.00    +0.000 N 
ATOM      9  C   UNL     1       1.040  10.186  19.667  0.00  0.00    +0.000 C 
ATOM     10  O   UNL     1       0.905  11.049  18.822  0.00  0.00    +0.000 OA
ATOM     11  H   UNL     1       1.643   8.245  20.114  0.00  0.00    +0.000 HD
BRANCH   8  12
ATOM     12  C   UNL     1       2.090   8.591  18.093  0.00  0.00    +0.000 C 
BRANCH  12  16
ATOM     13  C   UNL     1       4.807   5.306  18.964  0.00  0.00    +0.000 C 
ATOM     14  C   UNL     1       4.754   5.771  17.506  0.00  0.00    +0.000 C 
ATOM     15  C   UNL     1       4.064   7.132  17.382  0.00  0.00    +0.000 C 
ATOM     16  C   UNL     1       2.668   7.161  18.037  0.00  0.00    +0.000 C 
ATOM     17  C   UNL     1       2.699   6.586  19.463  0.00  0.00    +0.000 C 
ATOM     18  C   UNL     1       3.393   5.228  19.540  0.00  0.00    +0.000 C 
BRANCH  13  19
ATOM     19  N   UNL     1       5.459   4.004  19.074  0.00  0.00    +0.000 NA
ATOM     20  H   UNL     1       5.935   3.929  19.972  0.00  0.00    +0.000 HD
ATOM     21  H   UNL     1       6.180   3.910  18.361  0.00  0.00    +0.000 HD
ENDBRANCH  13  19
ENDBRANCH  12  16
ENDBRANCH   8  12
ENDBRANCH   1   9
BRANCH   6  22
ATOM     22  C   UNL     1       0.115  13.320  19.787  0.00  0.00    +0.000 C 
BRANCH  22  23
ATOM     23  N   UNL     1      -1.200  13.106  19.140  0.00  0.00    +0.000 NA
ATOM     24  H   UNL     1      -1.362  13.907  18.521  0.00  0.00    +0.000 HD
ATOM     25  H   UNL     1      -1.948  13.103  19.825  0.00  0.00    +0.000 HD
ENDBRANCH  22  23
BRANCH  22  26
ATOM     26  C   UNL     1       0.629  14.832  19.520  0.00  0.00    +0.000 C 
BRANCH  26  27
ATOM     27  C   UNL     1       1.948  14.828  18.590  0.00  0.00    +0.000 C 
ATOM     28  C   UNL     1       2.754  16.147  18.450  0.00  0.00    +0.000 C 
ATOM     29  C   UNL     1       3.528  16.581  19.698  0.00  0.00    +0.000 C 
ATOM     30  C   UNL     1       4.407  15.502  20.297  0.00  0.00    +0.000 C 
ATOM     31  C   UNL     1       3.676  14.172  20.367  0.00  0.00    +0.000 C 
ATOM     32  C   UNL     1       3.052  13.815  19.012  0.00  0.00    +0.000 C 
ENDBRANCH  26  27
BRANCH  26  33
ATOM     33  C   UNL     1      -0.647  15.712  18.977  0.00  0.00    +0.000 C 
ATOM     34  C   UNL     1      -1.534  16.347  20.102  0.00  0.00    +0.000 C 
ATOM     35  C   UNL     1      -0.773  17.407  20.893  0.00  0.00    +0.000 C 
ATOM     36  C   UNL     1      -0.445  18.580  19.978  0.00  0.00    +0.000 C 
ATOM     37  C   UNL     1       0.247  18.116  18.700  0.00  0.00    +0.000 C 
ATOM     38  C   UNL     1      -0.445  16.924  18.034  0.00  0.00    +0.000 C 
ENDBRANCH  26  33
ENDBRANCH  22  26
ENDBRANCH   6  22
TORSDOF 9
ENDMDL
MODEL 4
REMARK VINA RESULT:      -7.1      3.596      5.072
REMARK  Name = 
REMARK  9 active torsions:
REMARK  status: ('A' for Active; 'I' for Inactive)
REMARK    1  A    between atoms: N_1  and  C_2
REMARK    2  A    between atoms: C_5  and  C_6
REMARK    3  A    between atoms: C_6  and  N_7
REMARK    4  A    between atoms: C_8  and  C_10
REMARK    5  A    between atoms: C_15  and  C_17
REMARK    6  A    between atoms: C_17  and  N_18
REMARK    7  A    between atoms: C_17  and  C_19
REMARK    8  A    between atoms: C_19  and  C_20
REMARK    9  A    between atoms: C_19  and  C_26
REMARK                            x       y       z     vdW  Elec       q    Type
REMARK                         _______ _______ _______ _____ _____    ______ ____
ROOT
ATOM      1  C   UNL     1      -1.058  10.776  18.910  0.00  0.00    +0.000 C 
ATOM      2  C   UNL     1      -1.191  10.123  17.513  0.00  0.00    +0.000 C 
ATOM      3  C   UNL     1      -2.681   9.877  17.357  0.00  0.00    +0.000 C 
ATOM      4  C   UNL     1      -3.325  10.962  18.207  0.00  0.00    +0.000 C 
ATOM      5  N   UNL     1      -2.243  11.645  18.913  0.00  0.00    +0.000 N 
ATOM      6  C   UNL     1      -2.639  12.611  19.834  0.00  0.00    +0.000 C 
ATOM      7  O   UNL     1      -3.832  12.919  19.899  0.00  0.00    +0.000 OA
ENDROOT
BRANCH   1   9
ATOM      8  N   UNL     1       0.857  12.209  18.213  0.00  0.00    +0.000 N 
ATOM      9  C   UNL     1       0.388  11.285  19.125  0.00  0.00    +0.000 C 
ATOM     10  O   UNL     1       1.049  10.896  20.069  0.00  0.00    +0.000 OA
ATOM     11  H   UNL     1       0.281  12.497  17.438  0.00  0.00    +0.000 HD
BRANCH   8  12
ATOM     12  C   UNL     1       2.226  12.666  18.208  0.00  0.00    +0.000 C 
BRANCH  12  16
ATOM     13  C   UNL     1       4.016  16.349  19.678  0.00  0.00    +0.000 C 
ATOM     14  C   UNL     1       2.681  15.946  20.312  0.00  0.00    +0.000 C 
ATOM     15  C   UNL     1       2.334  14.489  19.995  0.00  0.00    +0.000 C 
ATOM     16  C   UNL     1       2.362  14.178  18.485  0.00  0.00    +0.000 C 
ATOM     17  C   UNL     1       3.654  14.686  17.825  0.00  0.00    +0.000 C 
ATOM     18  C   UNL     1       3.961  16.143  18.164  0.00  0.00    +0.000 C 
BRANCH  13  19
ATOM     19  N   UNL     1       4.337  17.742  19.976  0.00  0.00    +0.000 NA
ATOM     20  H   UNL     1       3.617  18.144  20.575  0.00  0.00    +0.000 HD
ATOM     21  H   UNL     1       4.337  18.294  19.120  0.00  0.00    +0.000 HD
ENDBRANCH  13  19
ENDBRANCH  12  16
ENDBRANCH   8  12
ENDBRANCH   1   9
BRANCH   6  22
ATOM     22  C   UNL     1      -1.556  13.565  20.435  0.00  0.00    +0.000 C 
BRANCH  22  23
ATOM     23  N   UNL     1      -1.166  14.313  19.219  0.00  0.00    +0.000 NA
ATOM     24  H   UNL     1      -0.531  13.708  18.687  0.00  0.00    +0.000 HD
ATOM     25  H   UNL     1      -0.648  15.152  19.456  0.00  0.00    +0.000 HD
ENDBRANCH  22  23
BRANCH  22  26
ATOM     26  C   UNL     1      -1.991  14.592  21.609  0.00  0.00    +0.000 C 
BRANCH  26  27
ATOM     27  C   UNL     1      -1.484  14.060  23.046  0.00  0.00    +0.000 C 
ATOM     28  C   UNL     1      -2.175  14.613  24.320  0.00  0.00    +0.000 C 
ATOM     29  C   UNL     1      -3.611  14.134  24.551  0.00  0.00    +0.000 C 
ATOM     30  C   UNL     1      -3.788  12.630  24.481  0.00  0.00    +0.000 C 
ATOM     31  C   UNL     1      -3.049  12.044  23.290  0.00  0.00    +0.000 C 
ATOM     32  C   UNL     1      -1.591  12.522  23.257  0.00  0.00    +0.000 C 
ENDBRANCH  26  27
BRANCH  26  33
ATOM     33  C   UNL     1      -1.502  16.097  21.170  0.00  0.00    +0.000 C 
ATOM     34  C   UNL     1      -2.661  17.128  20.952  0.00  0.00    +0.000 C 
ATOM     35  C   UNL     1      -3.397  17.436  22.253  0.00  0.00    +0.000 C 
ATOM     36  C   UNL     1      -2.450  18.145  23.212  0.00  0.00    +0.000 C 
ATOM     37  C   UNL     1      -1.145  17.374  23.383  0.00  0.00    +0.000 C 
ATOM     38  C   UNL     1      -0.532  16.918  22.056  0.00  0.00    +0.000 C 
ENDBRANCH  26  33
ENDBRANCH  22  26
ENDBRANCH   6  22
TORSDOF 9
ENDMDL
MODEL 5
REMARK VINA RESULT:      -7.1      1.933      3.526
REMARK  Name = 
REMARK  9 active torsions:
REMARK  status: ('A' for Active; 'I' for Inactive)
REMARK    1  A    between atoms: N_1  and  C_2
REMARK    2  A    between atoms: C_5  and  C_6
REMARK    3  A    between atoms: C_6  and  N_7
REMARK    4  A    between atoms: C_8  and  C_10
REMARK    5  A    between atoms: C_15  and  C_17
REMARK    6  A    between atoms: C_17  and  N_18
REMARK    7  A    between atoms: C_17  and  C_19
REMARK    8  A    between atoms: C_19  and  C_20
REMARK    9  A    between atoms: C_19  and  C_26
REMARK                            x       y       z     vdW  Elec       q    Type
REMARK                         _______ _______ _______ _____ _____    ______ ____
ROOT
ATOM      1  C   UNL     1      -0.943  13.293  19.157  0.00  0.00    +0.000 C 
ATOM      2  C   UNL     1       0.552  13.693  19.192  0.00  0.00    +0.000 C 
ATOM      3  C   UNL     1       0.529  15.210  19.265  0.00  0.00    +0.000 C 
ATOM      4  C   UNL     1      -0.784  15.526  19.966  0.00  0.00    +0.000 C 
ATOM      5  N   UNL     1      -1.502  14.263  20.109  0.00  0.00    +0.000 N 
ATOM      6  C   UNL     1      -2.788  14.356  20.636  0.00  0.00    +0.000 C 
ATOM      7  O   UNL     1      -3.179  15.445  21.063  0.00  0.00    +0.000 OA
ENDROOT
BRANCH   1   9
ATOM      8  N   UNL     1      -0.271  11.148  20.229  0.00  0.00    +0.000 N 
ATOM      9  C   UNL     1      -1.088  11.758  19.298  0.00  0.00    +0.000 C 
ATOM     10  O   UNL     1      -1.901  11.147  18.632  0.00  0.00    +0.000 OA
ATOM     11  H   UNL     1       0.398  11.689  20.753  0.00  0.00    +0.000 HD
BRANCH   8  12
ATOM     12  C   UNL     1      -0.199   9.714  20.372  0.00  0.00    +0.000 C 
BRANCH  12  16
ATOM     13  C   UNL     1       2.549   7.054  18.298  0.00  0.00    +0.000 C 
ATOM     14  C   UNL     1       2.583   7.001  19.828  0.00  0.00    +0.000 C 
ATOM     15  C   UNL     1       1.355   7.686  20.434  0.00  0.00    +0.000 C 
ATOM     16  C   UNL     1       1.155   9.127  19.920  0.00  0.00    +0.000 C 
ATOM     17  C   UNL     1       1.236   9.198  18.387  0.00  0.00    +0.000 C 
ATOM     18  C   UNL     1       2.476   8.506  17.825  0.00  0.00    +0.000 C 
BRANCH  13  19
ATOM     19  N   UNL     1       3.727   6.406  17.726  0.00  0.00    +0.000 NA
ATOM     20  H   UNL     1       4.307   6.020  18.470  0.00  0.00    +0.000 HD
ATOM     21  H   UNL     1       4.304   7.091  17.241  0.00  0.00    +0.000 HD
ENDBRANCH  13  19
ENDBRANCH  12  16
ENDBRANCH   8  12
ENDBRANCH   1   9
BRANCH   6  22
ATOM     22  C   UNL     1      -3.521  13.044  21.065  0.00  0.00    +0.000 C 
BRANCH  22  23
ATOM     23  N   UNL     1      -2.668  12.630  22.202  0.00  0.00    +0.000 NA
ATOM     24  H   UNL     1      -3.203  12.814  23.058  0.00  0.00    +0.000 HD
ATOM     25  H   UNL     1      -1.826  13.192  22.251  0.00  0.00    +0.000 HD
ENDBRANCH  22  23
BRANCH  22  26
ATOM     26  C   UNL     1      -5.069  13.136  21.531  0.00  0.00    +0.000 C 
BRANCH  26  27
ATOM     27  C   UNL     1      -5.944  11.975  20.828  0.00  0.00    +0.000 C 
ATOM     28  C   UNL     1      -7.461  12.224  20.616  0.00  0.00    +0.000 C 
ATOM     29  C   UNL     1      -7.815  13.260  19.546  0.00  0.00    +0.000 C 
ATOM     30  C   UNL     1      -7.138  13.035  18.208  0.00  0.00    +0.000 C 
ATOM     31  C   UNL     1      -5.667  12.702  18.385  0.00  0.00    +0.000 C 
ATOM     32  C   UNL     1      -5.477  11.568  19.400  0.00  0.00    +0.000 C 
ENDBRANCH  26  27
BRANCH  26  33
ATOM     33  C   UNL     1      -5.102  13.186  23.172  0.00  0.00    +0.000 C 
ATOM     34  C   UNL     1      -5.411  14.596  23.781  0.00  0.00    +0.000 C 
ATOM     35  C   UNL     1      -6.829  15.054  23.454  0.00  0.00    +0.000 C 
ATOM     36  C   UNL     1      -7.828  14.131  24.139  0.00  0.00    +0.000 C 
ATOM     37  C   UNL     1      -7.542  12.666  23.825  0.00  0.00    +0.000 C 
ATOM     38  C   UNL     1      -6.067  12.288  23.985  0.00  0.00    +0.000 C 
ENDBRANCH  26  33
ENDBRANCH  22  26
ENDBRANCH   6  22
TORSDOF 9
ENDMDL
MODEL 6
REMARK VINA RESULT:      -7.1      4.071      6.110
REMARK  Name = 
REMARK  9 active torsions:
REMARK  status: ('A' for Active; 'I' for Inactive)
REMARK    1  A    between atoms: N_1  and  C_2
REMARK    2  A    between atoms: C_5  and  C_6
REMARK    3  A    between atoms: C_6  and  N_7
REMARK    4  A    between atoms: C_8  and  C_10
REMARK    5  A    between atoms: C_15  and  C_17
REMARK    6  A    between atoms: C_17  and  N_18
REMARK    7  A    between atoms: C_17  and  C_19
REMARK    8  A    between atoms: C_19  and  C_20
REMARK    9  A    between atoms: C_19  and  C_26
REMARK                            x       y       z     vdW  Elec       q    Type
REMARK                         _______ _______ _______ _____ _____    ______ ____
ROOT
ATOM      1  C   UNL     1       0.612  10.506  20.989  0.00  0.00    +0.000 C 
ATOM      2  C   UNL     1      -0.090   9.293  21.648  0.00  0.00    +0.000 C 
ATOM      3  C   UNL     1      -0.599   9.833  22.973  0.00  0.00    +0.000 C 
ATOM      4  C   UNL     1      -0.826  11.313  22.705  0.00  0.00    +0.000 C 
ATOM      5  N   UNL     1      -0.310  11.586  21.367  0.00  0.00    +0.000 N 
ATOM      6  C   UNL     1      -0.327  12.921  20.973  0.00  0.00    +0.000 C 
ATOM      7  O   UNL     1      -0.885  13.749  21.699  0.00  0.00    +0.000 OA
ENDROOT
BRANCH   1   9
ATOM      8  N   UNL     1       1.671   8.978  19.331  0.00  0.00    +0.000 N 
ATOM      9  C   UNL     1       0.999  10.168  19.529  0.00  0.00    +0.000 C 
ATOM     10  O   UNL     1       0.696  10.914  18.618  0.00  0.00    +0.000 OA
ATOM     11  H   UNL     1       1.913   8.393  20.114  0.00  0.00    +0.000 HD
BRANCH   8  12
ATOM     12  C   UNL     1       2.213   8.600  18.047  0.00  0.00    +0.000 C 
BRANCH  12  16
ATOM     13  C   UNL     1       4.718   5.181  19.027  0.00  0.00    +0.000 C 
ATOM     14  C   UNL     1       4.763   5.657  17.573  0.00  0.00    +0.000 C 
ATOM     15  C   UNL     1       4.147   7.051  17.426  0.00  0.00    +0.000 C 
ATOM     16  C   UNL     1       2.723   7.144  18.009  0.00  0.00    +0.000 C 
ATOM     17  C   UNL     1       2.652   6.560  19.429  0.00  0.00    +0.000 C 
ATOM     18  C   UNL     1       3.274   5.169  19.530  0.00  0.00    +0.000 C 
BRANCH  13  19
ATOM     19  N   UNL     1       5.299   3.848  19.160  0.00  0.00    +0.000 NA
ATOM     20  H   UNL     1       4.840   3.342  19.916  0.00  0.00    +0.000 HD
ATOM     21  H   UNL     1       6.282   3.917  19.419  0.00  0.00    +0.000 HD
ENDBRANCH  13  19
ENDBRANCH  12  16
ENDBRANCH   8  12
ENDBRANCH   1   9
BRANCH   6  22
ATOM     22  C   UNL     1      -0.043  13.268  19.476  0.00  0.00    +0.000 C 
BRANCH  22  23
ATOM     23  N   UNL     1      -1.406  13.130  18.914  0.00  0.00    +0.000 NA
ATOM     24  H   UNL     1      -1.362  12.390  18.205  0.00  0.00    +0.000 HD
ATOM     25  H   UNL     1      -1.693  13.979  18.441  0.00  0.00    +0.000 HD
ENDBRANCH  22  23
BRANCH  22  26
ATOM     26  C   UNL     1       0.566  14.725  19.118  0.00  0.00    +0.000 C 
BRANCH  26  27
ATOM     27  C   UNL     1      -0.517  15.883  19.420  0.00  0.00    +0.000 C 
ATOM     28  C   UNL     1      -0.211  16.899  20.553  0.00  0.00    +0.000 C 
ATOM     29  C   UNL     1       0.908  17.900  20.254  0.00  0.00    +0.000 C 
ATOM     30  C   UNL     1       0.759  18.631  18.935  0.00  0.00    +0.000 C 
ATOM     31  C   UNL     1       0.373  17.676  17.818  0.00  0.00    +0.000 C 
ATOM     32  C   UNL     1      -0.836  16.820  18.219  0.00  0.00    +0.000 C 
ENDBRANCH  26  27
BRANCH  26  33
ATOM     33  C   UNL     1       2.018  14.866  19.871  0.00  0.00    +0.000 C 
ATOM     34  C   UNL     1       2.953  13.616  19.735  0.00  0.00    +0.000 C 
ATOM     35  C   UNL     1       3.401  13.398  18.293  0.00  0.00    +0.000 C 
ATOM     36  C   UNL     1       4.279  14.563  17.855  0.00  0.00    +0.000 C 
ATOM     37  C   UNL     1       3.601  15.904  18.119  0.00  0.00    +0.000 C 
ATOM     38  C   UNL     1       2.998  16.013  19.522  0.00  0.00    +0.000 C 
ENDBRANCH  26  33
ENDBRANCH  22  26
ENDBRANCH   6  22
TORSDOF 9
ENDMDL
MODEL 7
REMARK VINA RESULT:      -7.0      8.614     11.477
REMARK  Name = 
REMARK  9 active torsions:
REMARK  status: ('A' for Active; 'I' for Inactive)
REMARK    1  A    between atoms: N_1  and  C_2
REMARK    2  A    between atoms: C_5  and  C_6
REMARK    3  A    between atoms: C_6  and  N_7
REMARK    4  A    between atoms: C_8  and  C_10
REMARK    5  A    between atoms: C_15  and  C_17
REMARK    6  A    between atoms: C_17  and  N_18
REMARK    7  A    between atoms: C_17  and  C_19
REMARK    8  A    between atoms: C_19  and  C_20
REMARK    9  A    between atoms: C_19  and  C_26
REMARK                            x       y       z     vdW  Elec       q    Type
REMARK                         _______ _______ _______ _____ _____    ______ ____
ROOT
ATOM      1  C   UNL     1       7.982  13.625  24.207  0.00  0.00    +0.000 C 
ATOM      2  C   UNL     1       8.212  12.948  25.580  0.00  0.00    +0.000 C 
ATOM      3  C   UNL     1       7.807  14.008  26.590  0.00  0.00    +0.000 C 
ATOM      4  C   UNL     1       6.767  14.840  25.855  0.00  0.00    +0.000 C 
ATOM      5  N   UNL     1       6.738  14.359  24.476  0.00  0.00    +0.000 N 
ATOM      6  C   UNL     1       5.917  15.072  23.606  0.00  0.00    +0.000 C 
ATOM      7  O   UNL     1       5.184  15.951  24.065  0.00  0.00    +0.000 OA
ENDROOT
BRANCH   1   9
ATOM      8  N   UNL     1       9.311  12.670  22.330  0.00  0.00    +0.000 N 
ATOM      9  C   UNL     1       8.147  12.590  23.069  0.00  0.00    +0.000 C 
ATOM     10  O   UNL     1       7.296  11.744  22.869  0.00  0.00    +0.000 OA
ATOM     11  H   UNL     1       9.987  13.393  22.520  0.00  0.00    +0.000 HD
BRANCH   8  12
ATOM     12  C   UNL     1       9.539  11.862  21.156  0.00  0.00    +0.000 C 
BRANCH  12  16
ATOM     13  C   UNL     1      11.733  12.540  17.461  0.00  0.00    +0.000 C 
ATOM     14  C   UNL     1      12.327  13.169  18.724  0.00  0.00    +0.000 C 
ATOM     15  C   UNL     1      11.696  12.576  19.987  0.00  0.00    +0.000 C 
ATOM     16  C   UNL     1      10.156  12.655  19.984  0.00  0.00    +0.000 C 
ATOM     17  C   UNL     1       9.564  12.130  18.667  0.00  0.00    +0.000 C 
ATOM     18  C   UNL     1      10.219  12.747  17.434  0.00  0.00    +0.000 C 
BRANCH  13  19
ATOM     19  N   UNL     1      12.333  13.114  16.259  0.00  0.00    +0.000 NA
ATOM     20  H   UNL     1      12.040  12.586  15.438  0.00  0.00    +0.000 HD
ATOM     21  H   UNL     1      13.347  13.036  16.301  0.00  0.00    +0.000 HD
ENDBRANCH  13  19
ENDBRANCH  12  16
ENDBRANCH   8  12
ENDBRANCH   1   9
BRANCH   6  22
ATOM     22  C   UNL     1       5.624  14.476  22.192  0.00  0.00    +0.000 C 
BRANCH  22  23
ATOM     23  N   UNL     1       4.613  13.453  22.546  0.00  0.00    +0.000 NA
ATOM     24  H   UNL     1       4.224  13.721  23.456  0.00  0.00    +0.000 HD
ATOM     25  H   UNL     1       5.042  12.541  22.663  0.00  0.00    +0.000 HD
ENDBRANCH  22  23
BRANCH  22  26
ATOM     26  C   UNL     1       5.047  15.456  21.039  0.00  0.00    +0.000 C 
BRANCH  26  27
ATOM     27  C   UNL     1       5.939  15.344  19.699  0.00  0.00    +0.000 C 
ATOM     28  C   UNL     1       6.182  16.631  18.867  0.00  0.00    +0.000 C 
ATOM     29  C   UNL     1       7.116  17.663  19.507  0.00  0.00    +0.000 C 
ATOM     30  C   UNL     1       8.440  17.099  19.982  0.00  0.00    +0.000 C 
ATOM     31  C   UNL     1       8.246  15.789  20.727  0.00  0.00    +0.000 C 
ATOM     32  C   UNL     1       7.388  14.814  19.911  0.00  0.00    +0.000 C 
ENDBRANCH  26  27
BRANCH  26  33
ATOM     33  C   UNL     1       3.441  15.157  20.877  0.00  0.00    +0.000 C 
ATOM     34  C   UNL     1       2.511  16.389  21.145  0.00  0.00    +0.000 C 
ATOM     35  C   UNL     1       2.704  17.482  20.097  0.00  0.00    +0.000 C 
ATOM     36  C   UNL     1       2.247  16.965  18.739  0.00  0.00    +0.000 C 
ATOM     37  C   UNL     1       2.902  15.630  18.400  0.00  0.00    +0.000 C 
ATOM     38  C   UNL     1       2.853  14.620  19.549  0.00  0.00    +0.000 C 
ENDBRANCH  26  33
ENDBRANCH  22  26
ENDBRANCH   6  22
TORSDOF 9
ENDMDL
MODEL 8
REMARK VINA RESULT:      -7.0      1.866      3.573
REMARK  Name = 
REMARK  9 active torsions:
REMARK  status: ('A' for Active; 'I' for Inactive)
REMARK    1  A    between atoms: N_1  and  C_2
REMARK    2  A    between atoms: C_5  and  C_6
REMARK    3  A    between atoms: C_6  and  N_7
REMARK    4  A    between atoms: C_8  and  C_10
REMARK    5  A    between atoms: C_15  and  C_17
REMARK    6  A    between atoms: C_17  and  N_18
REMARK    7  A    between atoms: C_17  and  C_19
REMARK    8  A    between atoms: C_19  and  C_20
REMARK    9  A    between atoms: C_19  and  C_26
REMARK                            x       y       z     vdW  Elec       q    Type
REMARK                         _______ _______ _______ _____ _____    ______ ____
ROOT
ATOM      1  C   UNL     1      -0.567  12.605  19.017  0.00  0.00    +0.000 C 
ATOM      2  C   UNL     1       0.922  13.024  18.958  0.00  0.00    +0.000 C 
ATOM      3  C   UNL     1       0.878  14.539  18.858  0.00  0.00    +0.000 C 
ATOM      4  C   UNL     1      -0.417  14.918  19.561  0.00  0.00    +0.000 C 
ATOM      5  N   UNL     1      -1.111  13.671  19.870  0.00  0.00    +0.000 N 
ATOM      6  C   UNL     1      -2.380  13.808  20.425  0.00  0.00    +0.000 C 
ATOM      7  O   UNL     1      -2.775  14.934  20.738  0.00  0.00    +0.000 OA
ENDROOT
BRANCH   1   9
ATOM      8  N   UNL     1       0.190  10.600  20.285  0.00  0.00    +0.000 N 
ATOM      9  C   UNL     1      -0.683  11.095  19.338  0.00  0.00    +0.000 C 
ATOM     10  O   UNL     1      -1.522  10.406  18.790  0.00  0.00    +0.000 OA
ATOM     11  H   UNL     1       0.879  11.202  20.708  0.00  0.00    +0.000 HD
BRANCH   8  12
ATOM     12  C   UNL     1       0.290   9.191  20.585  0.00  0.00    +0.000 C 
BRANCH  12  16
ATOM     13  C   UNL     1       2.777   6.559  18.173  0.00  0.00    +0.000 C 
ATOM     14  C   UNL     1       2.821   6.331  19.687  0.00  0.00    +0.000 C 
ATOM     15  C   UNL     1       1.663   7.045  20.389  0.00  0.00    +0.000 C 
ATOM     16  C   UNL     1       1.583   8.546  20.043  0.00  0.00    +0.000 C 
ATOM     17  C   UNL     1       1.655   8.783  18.526  0.00  0.00    +0.000 C 
ATOM     18  C   UNL     1       2.824   8.056  17.867  0.00  0.00    +0.000 C 
BRANCH  13  19
ATOM     19  N   UNL     1       3.888   5.882  17.510  0.00  0.00    +0.000 NA
ATOM     20  H   UNL     1       4.770   6.165  17.934  0.00  0.00    +0.000 HD
ATOM     21  H   UNL     1       3.938   6.164  16.532  0.00  0.00    +0.000 HD
ENDBRANCH  13  19
ENDBRANCH  12  16
ENDBRANCH   8  12
ENDBRANCH   1   9
BRANCH   6  22
ATOM     22  C   UNL     1      -3.079  12.546  21.025  0.00  0.00    +0.000 C 
BRANCH  22  23
ATOM     23  N   UNL     1      -2.148  12.235  22.133  0.00  0.00    +0.000 NA
ATOM     24  H   UNL     1      -2.344  11.272  22.427  0.00  0.00    +0.000 HD
ATOM     25  H   UNL     1      -2.323  12.831  22.935  0.00  0.00    +0.000 HD
ENDBRANCH  22  23
BRANCH  22  26
ATOM     26  C   UNL     1      -4.591  12.688  21.588  0.00  0.00    +0.000 C 
BRANCH  26  27
ATOM     27  C   UNL     1      -4.619  13.600  22.919  0.00  0.00    +0.000 C 
ATOM     28  C   UNL     1      -5.486  14.887  22.911  0.00  0.00    +0.000 C 
ATOM     29  C   UNL     1      -7.001  14.660  22.929  0.00  0.00    +0.000 C 
ATOM     30  C   UNL     1      -7.481  13.723  24.019  0.00  0.00    +0.000 C 
ATOM     31  C   UNL     1      -6.598  12.490  24.112  0.00  0.00    +0.000 C 
ATOM     32  C   UNL     1      -5.117  12.878  24.205  0.00  0.00    +0.000 C 
ENDBRANCH  26  27
BRANCH  26  33
ATOM     33  C   UNL     1      -5.549  13.175  20.346  0.00  0.00    +0.000 C 
ATOM     34  C   UNL     1      -5.146  12.608  18.943  0.00  0.00    +0.000 C 
ATOM     35  C   UNL     1      -5.332  11.096  18.868  0.00  0.00    +0.000 C 
ATOM     36  C   UNL     1      -6.813  10.763  18.987  0.00  0.00    +0.000 C 
ATOM     37  C   UNL     1      -7.439  11.425  20.211  0.00  0.00    +0.000 C 
ATOM     38  C   UNL     1      -7.074  12.905  20.353  0.00  0.00    +0.000 C 
ENDBRANCH  26  33
ENDBRANCH  22  26
ENDBRANCH   6  22
TORSDOF 9
ENDMDL
MODEL 9
REMARK VINA RESULT:      -7.0      1.652      3.700
REMARK  Name = 
REMARK  9 active torsions:
REMARK  status: ('A' for Active; 'I' for Inactive)
REMARK    1  A    between atoms: N_1  and  C_2
REMARK    2  A    between atoms: C_5  and  C_6
REMARK    3  A    between atoms: C_6  and  N_7
REMARK    4  A    between atoms: C_8  and  C_10
REMARK    5  A    between atoms: C_15  and  C_17
REMARK    6  A    between atoms: C_17  and  N_18
REMARK    7  A    between atoms: C_17  and  C_19
REMARK    8  A    between atoms: C_19  and  C_20
REMARK    9  A    between atoms: C_19  and  C_26
REMARK                            x       y       z     vdW  Elec       q    Type
REMARK                         _______ _______ _______ _____ _____    ______ ____
ROOT
ATOM      1  C   UNL     1      -2.086  10.314  17.273  0.00  0.00    +0.000 C 
ATOM      2  C   UNL     1      -2.300  10.365  15.740  0.00  0.00    +0.000 C 
ATOM      3  C   UNL     1      -3.808  10.453  15.578  0.00  0.00    +0.000 C 
ATOM      4  C   UNL     1      -4.275  11.147  16.848  0.00  0.00    +0.000 C 
ATOM      5  N   UNL     1      -3.108  11.272  17.716  0.00  0.00    +0.000 N 
ATOM      6  C   UNL     1      -3.353  11.791  18.985  0.00  0.00    +0.000 C 
ATOM      7  O   UNL     1      -4.477  12.226  19.244  0.00  0.00    +0.000 OA
ENDROOT
BRANCH   1   9
ATOM      8  N   UNL     1       0.169   9.284  17.505  0.00  0.00    +0.000 N 
ATOM      9  C   UNL     1      -0.579  10.439  17.604  0.00  0.00    +0.000 C 
ATOM     10  O   UNL     1      -0.098  11.513  17.910  0.00  0.00    +0.000 OA
ATOM     11  H   UNL     1      -0.270   8.411  17.260  0.00  0.00    +0.000 HD
BRANCH   8  12
ATOM     12  C   UNL     1       1.552   9.220  17.915  0.00  0.00    +0.000 C 
BRANCH  12  16
ATOM     13  C   UNL     1       4.187   5.971  19.108  0.00  0.00    +0.000 C 
ATOM     14  C   UNL     1       4.138   6.286  17.610  0.00  0.00    +0.000 C 
ATOM     15  C   UNL     1       3.483   7.645  17.351  0.00  0.00    +0.000 C 
ATOM     16  C   UNL     1       2.093   7.777  18.004  0.00  0.00    +0.000 C 
ATOM     17  C   UNL     1       2.116   7.350  19.481  0.00  0.00    +0.000 C 
ATOM     18  C   UNL     1       2.775   5.990  19.694  0.00  0.00    +0.000 C 
BRANCH  13  19
ATOM     19  N   UNL     1       4.806   4.669  19.349  0.00  0.00    +0.000 NA
ATOM     20  H   UNL     1       4.724   4.423  20.335  0.00  0.00    +0.000 HD
ATOM     21  H   UNL     1       5.803   4.712  19.148  0.00  0.00    +0.000 HD
ENDBRANCH  13  19
ENDBRANCH  12  16
ENDBRANCH   8  12
ENDBRANCH   1   9
BRANCH   6  22
ATOM     22  C   UNL     1      -2.137  12.201  19.877  0.00  0.00    +0.000 C 
BRANCH  22  23
ATOM     23  N   UNL     1      -1.885  13.565  19.360  0.00  0.00    +0.000 NA
ATOM     24  H   UNL     1      -2.564  14.186  19.814  0.00  0.00    +0.000 HD
ATOM     25  H   UNL     1      -2.056  13.616  18.362  0.00  0.00    +0.000 HD
ENDBRANCH  22  23
BRANCH  22  26
ATOM     26  C   UNL     1      -2.329  12.238  21.485  0.00  0.00    +0.000 C 
BRANCH  26  27
ATOM     27  C   UNL     1      -0.909  12.060  22.231  0.00  0.00    +0.000 C 
ATOM     28  C   UNL     1      -0.846  11.145  23.483  0.00  0.00    +0.000 C 
ATOM     29  C   UNL     1      -0.990   9.645  23.209  0.00  0.00    +0.000 C 
ATOM     30  C   UNL     1      -0.063   9.112  22.135  0.00  0.00    +0.000 C 
ATOM     31  C   UNL     1      -0.034  10.033  20.927  0.00  0.00    +0.000 C 
ATOM     32  C   UNL     1       0.235  11.484  21.347  0.00  0.00    +0.000 C 
ENDBRANCH  26  27
BRANCH  26  33
ATOM     33  C   UNL     1      -3.190  13.586  21.860  0.00  0.00    +0.000 C 
ATOM     34  C   UNL     1      -4.501  13.322  22.677  0.00  0.00    +0.000 C 
ATOM     35  C   UNL     1      -4.199  12.779  24.071  0.00  0.00    +0.000 C 
ATOM     36  C   UNL     1      -3.470  13.844  24.880  0.00  0.00    +0.000 C 
ATOM     37  C   UNL     1      -2.258  14.385  24.128  0.00  0.00    +0.000 C 
ATOM     38  C   UNL     1      -2.558  14.744  22.670  0.00  0.00    +0.000 C 
ENDBRANCH  26  33
ENDBRANCH  22  26
ENDBRANCH   6  22
TORSDOF 9
ENDMDL
