MODEL 1
REMARK VINA RESULT:      -6.8      0.000      0.000
REMARK  Name = 
REMARK  11 active torsions:
REMARK  status: ('A' for Active; 'I' for Inactive)
REMARK    1  A    between atoms: C_1  and  C_2
REMARK    2  A    between atoms: C_2  and  C_3
REMARK    3  A    between atoms: C_2  and  C_4
REMARK    4  A    between atoms: C_4  and  N_5
REMARK    5  A    between atoms: C_7  and  C_8
REMARK    6  A    between atoms: C_8  and  N_9
REMARK    7  A    between atoms: N_9  and  C_10
REMARK    8  A    between atoms: C_10  and  C_11
REMARK    9  A    between atoms: C_10  and  C_16
REMARK   10  A    between atoms: C_16  and  C_17
REMARK   11  A    between atoms: C_17  and  O_18
REMARK                            x       y       z     vdW  Elec       q    Type
REMARK                         _______ _______ _______ _____ _____    ______ ____
ROOT
ATOM      1  C   UNL     1       2.857   5.761  18.021  0.00  0.00    +0.000 C 
ENDROOT
BRANCH   1   2
ATOM      2  C   UNL     1       2.105   4.701  18.810  0.00  0.00    +0.000 A 
ATOM      3  C   UNL     1       1.477   3.556  18.354  0.00  0.00    +0.000 A 
ATOM      4  C   UNL     1       0.868   2.811  19.404  0.00  0.00    +0.000 A 
ATOM      5  C   UNL     1       1.066   3.397  20.632  0.00  0.00    +0.000 A 
ATOM      6  S   UNL     1       1.965   4.844  20.518  0.00  0.00    +0.000 S 
ENDBRANCH   1   2
BRANCH   1   7
ATOM      7  C   UNL     1       4.269   5.236  17.611  0.00  0.00    +0.000 C 
ATOM      8  C   UNL     1       4.307   3.949  16.718  0.00  0.00    +0.000 C 
ATOM      9  C   UNL     1       5.421   4.603  15.878  0.00  0.00    +0.000 C 
ATOM     10  C   UNL     1       4.973   5.970  16.415  0.00  0.00    +0.000 C 
BRANCH   7  11
ATOM     11  C   UNL     1       5.213   5.084  18.826  0.00  0.00    +0.000 C 
BRANCH  11  12
ATOM     12  O   UNL     1       5.481   3.708  19.077  0.00  0.00    +0.000 OA
ATOM     13  H   UNL     1       6.038   3.656  19.874  0.00  0.00    +0.000 HD
ENDBRANCH  11  12
ENDBRANCH   7  11
ENDBRANCH   1   7
BRANCH   1  14
ATOM     14  N   UNL     1       2.942   7.020  18.787  0.00  0.00    +0.000 NA
ATOM     15  H   UNL     1       2.224   7.041  19.505  0.00  0.00    +0.000 HD
BRANCH  14  16
ATOM     16  C   UNL     1       2.791   8.217  17.958  0.00  0.00    +0.000 C 
BRANCH  16  19
ATOM     17  N   UNL     1      -0.339  10.030  18.497  0.00  0.00    +0.000 N 
ATOM     18  C   UNL     1       0.526   9.421  17.634  0.00  0.00    +0.000 A 
ATOM     19  C   UNL     1       1.552   8.912  18.403  0.00  0.00    +0.000 A 
ATOM     20  C   UNL     1       1.167   9.222  19.729  0.00  0.00    +0.000 A 
ATOM     21  N   UNL     1       0.004   9.875  19.790  0.00  0.00    +0.000 NA
BRANCH  17  22
ATOM     22  C   UNL     1      -1.486  10.845  18.143  0.00  0.00    +0.000 C 
BRANCH  22  24
ATOM     23  C   UNL     1      -3.985  10.405  17.933  0.00  0.00    +0.000 C 
ATOM     24  C   UNL     1      -2.588  10.061  17.408  0.00  0.00    +0.000 C 
ATOM     25  C   UNL     1      -2.515  10.333  15.905  0.00  0.00    +0.000 C 
ENDBRANCH  22  24
ENDBRANCH  17  22
ENDBRANCH  16  19
ENDBRANCH  14  16
ENDBRANCH   1  14
TORSDOF 9
ENDMDL
MODEL 2
REMARK VINA RESULT:      -6.8      1.727      3.440
REMARK  Name = 
REMARK  11 active torsions:
REMARK  status: ('A' for Active; 'I' for Inactive)
REMARK    1  A    between atoms: C_1  and  C_2
REMARK    2  A    between atoms: C_2  and  C_3
REMARK    3  A    between atoms: C_2  and  C_4
REMARK    4  A    between atoms: C_4  and  N_5
REMARK    5  A    between atoms: C_7  and  C_8
REMARK    6  A    between atoms: C_8  and  N_9
REMARK    7  A    between atoms: N_9  and  C_10
REMARK    8  A    between atoms: C_10  and  C_11
REMARK    9  A    between atoms: C_10  and  C_16
REMARK   10  A    between atoms: C_16  and  C_17
REMARK   11  A    between atoms: C_17  and  O_18
REMARK                            x       y       z     vdW  Elec       q    Type
REMARK                         _______ _______ _______ _____ _____    ______ ____
ROOT
ATOM      1  C   UNL     1       3.706   4.940  18.607  0.00  0.00    +0.000 C 
ENDROOT
BRANCH   1   2
ATOM      2  C   UNL     1       4.846   4.662  17.641  0.00  0.00    +0.000 A 
ATOM      3  C   UNL     1       4.797   4.158  16.353  0.00  0.00    +0.000 A 
ATOM      4  C   UNL     1       6.087   4.031  15.766  0.00  0.00    +0.000 A 
ATOM      5  C   UNL     1       7.083   4.459  16.611  0.00  0.00    +0.000 A 
ATOM      6  S   UNL     1       6.467   4.996  18.111  0.00  0.00    +0.000 S 
ENDBRANCH   1   2
BRANCH   1   7
ATOM      7  C   UNL     1       3.027   3.605  19.048  0.00  0.00    +0.000 C 
ATOM      8  C   UNL     1       1.874   3.719  20.103  0.00  0.00    +0.000 C 
ATOM      9  C   UNL     1       1.074   2.680  19.294  0.00  0.00    +0.000 C 
ATOM     10  C   UNL     1       1.949   3.009  18.076  0.00  0.00    +0.000 C 
BRANCH   7  11
ATOM     11  C   UNL     1       4.059   2.538  19.483  0.00  0.00    +0.000 C 
BRANCH  11  12
ATOM     12  O   UNL     1       4.058   1.446  18.569  0.00  0.00    +0.000 OA
ATOM     13  H   UNL     1       4.233   1.803  17.681  0.00  0.00    +0.000 HD
ENDBRANCH  11  12
ENDBRANCH   7  11
ENDBRANCH   1   7
BRANCH   1  14
ATOM     14  N   UNL     1       2.734   5.878  18.011  0.00  0.00    +0.000 NA
ATOM     15  H   UNL     1       2.446   5.547  17.095  0.00  0.00    +0.000 HD
BRANCH  14  16
ATOM     16  C   UNL     1       3.254   7.238  17.860  0.00  0.00    +0.000 C 
BRANCH  16  19
ATOM     17  N   UNL     1       0.865   9.806  18.893  0.00  0.00    +0.000 N 
ATOM     18  C   UNL     1       1.598   9.223  17.901  0.00  0.00    +0.000 A 
ATOM     19  C   UNL     1       2.266   8.163  18.479  0.00  0.00    +0.000 A 
ATOM     20  C   UNL     1       1.807   8.164  19.817  0.00  0.00    +0.000 A 
ATOM     21  N   UNL     1       0.935   9.145  20.063  0.00  0.00    +0.000 NA
BRANCH  17  22
ATOM     22  C   UNL     1       0.124  11.051  18.806  0.00  0.00    +0.000 C 
BRANCH  22  24
ATOM     23  C   UNL     1      -2.088  12.203  19.320  0.00  0.00    +0.000 C 
ATOM     24  C   UNL     1      -1.392  10.875  19.009  0.00  0.00    +0.000 C 
ATOM     25  C   UNL     1      -2.019  10.235  17.769  0.00  0.00    +0.000 C 
ENDBRANCH  22  24
ENDBRANCH  17  22
ENDBRANCH  16  19
ENDBRANCH  14  16
ENDBRANCH   1  14
TORSDOF 9
ENDMDL
MODEL 3
REMARK VINA RESULT:      -6.7      2.335      4.160
REMARK  Name = 
REMARK  11 active torsions:
REMARK  status: ('A' for Active; 'I' for Inactive)
REMARK    1  A    between atoms: C_1  and  C_2
REMARK    2  A    between atoms: C_2  and  C_3
REMARK    3  A    between atoms: C_2  and  C_4
REMARK    4  A    between atoms: C_4  and  N_5
REMARK    5  A    between atoms: C_7  and  C_8
REMARK    6  A    between atoms: C_8  and  N_9
REMARK    7  A    between atoms: N_9  and  C_10
REMARK    8  A    between atoms: C_10  and  C_11
REMARK    9  A    between atoms: C_10  and  C_16
REMARK   10  A    between atoms: C_16  and  C_17
REMARK   11  A    between atoms: C_17  and  O_18
REMARK                            x       y       z     vdW  Elec       q    Type
REMARK                         _______ _______ _______ _____ _____    ______ ____
ROOT
ATOM      1  C   UNL     1       3.140   5.405  18.980  0.00  0.00    +0.000 C 
ENDROOT
BRANCH   1   2
ATOM      2  C   UNL     1       4.405   5.029  18.224  0.00  0.00    +0.000 A 
ATOM      3  C   UNL     1       4.543   4.579  16.923  0.00  0.00    +0.000 A 
ATOM      4  C   UNL     1       5.899   4.322  16.574  0.00  0.00    +0.000 A 
ATOM      5  C   UNL     1       6.759   4.603  17.609  0.00  0.00    +0.000 A 
ATOM      6  S   UNL     1       5.935   5.156  18.999  0.00  0.00    +0.000 S 
ENDBRANCH   1   2
BRANCH   1   7
ATOM      7  C   UNL     1       2.340   4.124  19.376  0.00  0.00    +0.000 C 
ATOM      8  C   UNL     1       2.978   3.212  20.479  0.00  0.00    +0.000 C 
ATOM      9  C   UNL     1       1.580   3.050  21.108  0.00  0.00    +0.000 C 
ATOM     10  C   UNL     1       1.141   4.322  20.368  0.00  0.00    +0.000 C 
BRANCH   7  11
ATOM     11  C   UNL     1       1.933   3.283  18.143  0.00  0.00    +0.000 C 
BRANCH  11  12
ATOM     12  O   UNL     1       1.017   4.009  17.329  0.00  0.00    +0.000 OA
ATOM     13  H   UNL     1       0.697   3.406  16.635  0.00  0.00    +0.000 HD
ENDBRANCH  11  12
ENDBRANCH   7  11
ENDBRANCH   1   7
BRANCH   1  14
ATOM     14  N   UNL     1       2.318   6.341  18.189  0.00  0.00    +0.000 NA
ATOM     15  H   UNL     1       2.097   5.934  17.285  0.00  0.00    +0.000 HD
BRANCH  14  16
ATOM     16  C   UNL     1       2.965   7.634  17.959  0.00  0.00    +0.000 C 
BRANCH  16  19
ATOM     17  N   UNL     1       0.602   9.797  19.722  0.00  0.00    +0.000 N 
ATOM     18  C   UNL     1       1.266   8.607  19.648  0.00  0.00    +0.000 A 
ATOM     19  C   UNL     1       2.081   8.683  18.537  0.00  0.00    +0.000 A 
ATOM     20  C   UNL     1       1.870   9.995  18.051  0.00  0.00    +0.000 A 
ATOM     21  N   UNL     1       0.993  10.682  18.786  0.00  0.00    +0.000 NA
BRANCH  17  22
ATOM     22  C   UNL     1      -0.482  10.129  20.628  0.00  0.00    +0.000 C 
BRANCH  22  24
ATOM     23  C   UNL     1      -0.851  11.824  22.491  0.00  0.00    +0.000 C 
ATOM     24  C   UNL     1       0.002  10.655  21.991  0.00  0.00    +0.000 C 
ATOM     25  C   UNL     1      -0.003   9.527  23.024  0.00  0.00    +0.000 C 
ENDBRANCH  22  24
ENDBRANCH  17  22
ENDBRANCH  16  19
ENDBRANCH  14  16
ENDBRANCH   1  14
TORSDOF 9
ENDMDL
MODEL 4
REMARK VINA RESULT:      -6.7      1.961      3.533
REMARK  Name = 
REMARK  11 active torsions:
REMARK  status: ('A' for Active; 'I' for Inactive)
REMARK    1  A    between atoms: C_1  and  C_2
REMARK    2  A    between atoms: C_2  and  C_3
REMARK    3  A    between atoms: C_2  and  C_4
REMARK    4  A    between atoms: C_4  and  N_5
REMARK    5  A    between atoms: C_7  and  C_8
REMARK    6  A    between atoms: C_8  and  N_9
REMARK    7  A    between atoms: N_9  and  C_10
REMARK    8  A    between atoms: C_10  and  C_11
REMARK    9  A    between atoms: C_10  and  C_16
REMARK   10  A    between atoms: C_16  and  C_17
REMARK   11  A    between atoms: C_17  and  O_18
REMARK                            x       y       z     vdW  Elec       q    Type
REMARK                         _______ _______ _______ _____ _____    ______ ____
ROOT
ATOM      1  C   UNL     1       3.827   5.097  19.330  0.00  0.00    +0.000 C 
ENDROOT
BRANCH   1   2
ATOM      2  C   UNL     1       5.186   5.472  18.762  0.00  0.00    +0.000 A 
ATOM      3  C   UNL     1       6.446   5.229  19.280  0.00  0.00    +0.000 A 
ATOM      4  C   UNL     1       7.486   5.746  18.456  0.00  0.00    +0.000 A 
ATOM      5  C   UNL     1       6.992   6.351  17.323  0.00  0.00    +0.000 A 
ATOM      6  S   UNL     1       5.286   6.309  17.263  0.00  0.00    +0.000 S 
ENDBRANCH   1   2
BRANCH   1   7
ATOM      7  C   UNL     1       3.499   3.603  19.016  0.00  0.00    +0.000 C 
ATOM      8  C   UNL     1       2.037   3.290  18.547  0.00  0.00    +0.000 C 
ATOM      9  C   UNL     1       2.616   2.331  17.489  0.00  0.00    +0.000 C 
ATOM     10  C   UNL     1       3.961   3.059  17.619  0.00  0.00    +0.000 C 
BRANCH   7  11
ATOM     11  C   UNL     1       3.916   2.658  20.167  0.00  0.00    +0.000 C 
BRANCH  11  12
ATOM     12  O   UNL     1       5.134   1.993  19.846  0.00  0.00    +0.000 OA
ATOM     13  H   UNL     1       4.958   1.036  19.850  0.00  0.00    +0.000 HD
ENDBRANCH  11  12
ENDBRANCH   7  11
ENDBRANCH   1   7
BRANCH   1  14
ATOM     14  N   UNL     1       2.781   6.006  18.823  0.00  0.00    +0.000 NA
ATOM     15  H   UNL     1       3.155   6.591  18.082  0.00  0.00    +0.000 HD
BRANCH  14  16
ATOM     16  C   UNL     1       2.221   6.882  19.854  0.00  0.00    +0.000 C 
BRANCH  16  19
ATOM     17  N   UNL     1       1.149  10.187  18.714  0.00  0.00    +0.000 N 
ATOM     18  C   UNL     1       1.179   9.243  19.699  0.00  0.00    +0.000 A 
ATOM     19  C   UNL     1       1.932   8.194  19.214  0.00  0.00    +0.000 A 
ATOM     20  C   UNL     1       2.360   8.645  17.942  0.00  0.00    +0.000 A 
ATOM     21  N   UNL     1       1.908   9.867  17.649  0.00  0.00    +0.000 NA
BRANCH  17  22
ATOM     22  C   UNL     1       0.349  11.397  18.697  0.00  0.00    +0.000 C 
BRANCH  22  24
ATOM     23  C   UNL     1      -1.442  11.887  20.441  0.00  0.00    +0.000 C 
ATOM     24  C   UNL     1      -1.112  11.170  19.129  0.00  0.00    +0.000 C 
ATOM     25  C   UNL     1      -2.065  11.633  18.027  0.00  0.00    +0.000 C 
ENDBRANCH  22  24
ENDBRANCH  17  22
ENDBRANCH  16  19
ENDBRANCH  14  16
ENDBRANCH   1  14
TORSDOF 9
ENDMDL
MODEL 5
REMARK VINA RESULT:      -6.7      1.833      2.261
REMARK  Name = 
REMARK  11 active torsions:
REMARK  status: ('A' for Active; 'I' for Inactive)
REMARK    1  A    between atoms: C_1  and  C_2
REMARK    2  A    between atoms: C_2  and  C_3
REMARK    3  A    between atoms: C_2  and  C_4
REMARK    4  A    between atoms: C_4  and  N_5
REMARK    5  A    between atoms: C_7  and  C_8
REMARK    6  A    between atoms: C_8  and  N_9
REMARK    7  A    between atoms: N_9  and  C_10
REMARK    8  A    between atoms: C_10  and  C_11
REMARK    9  A    between atoms: C_10  and  C_16
REMARK   10  A    between atoms: C_16  and  C_17
REMARK   11  A    between atoms: C_17  and  O_18
REMARK                            x       y       z     vdW  Elec       q    Type
REMARK                         _______ _______ _______ _____ _____    ______ ____
ROOT
ATOM      1  C   UNL     1       4.014   5.183  17.722  0.00  0.00    +0.000 C 
ENDROOT
BRANCH   1   2
ATOM      2  C   UNL     1       3.812   3.796  18.312  0.00  0.00    +0.000 A 
ATOM      3  C   UNL     1       4.473   3.193  19.367  0.00  0.00    +0.000 A 
ATOM      4  C   UNL     1       4.005   1.872  19.622  0.00  0.00    +0.000 A 
ATOM      5  C   UNL     1       2.989   1.513  18.769  0.00  0.00    +0.000 A 
ATOM      6  S   UNL     1       2.612   2.753  17.657  0.00  0.00    +0.000 S 
ENDBRANCH   1   2
BRANCH   1   7
ATOM      7  C   UNL     1       5.323   5.230  16.873  0.00  0.00    +0.000 C 
ATOM      8  C   UNL     1       5.577   4.022  15.907  0.00  0.00    +0.000 C 
ATOM      9  C   UNL     1       6.046   5.022  14.832  0.00  0.00    +0.000 C 
ATOM     10  C   UNL     1       5.297   6.129  15.587  0.00  0.00    +0.000 C 
BRANCH   7  11
ATOM     11  C   UNL     1       6.574   5.505  17.740  0.00  0.00    +0.000 C 
BRANCH  11  12
ATOM     12  O   UNL     1       7.311   4.303  17.944  0.00  0.00    +0.000 OA
ATOM     13  H   UNL     1       7.792   4.109  17.121  0.00  0.00    +0.000 HD
ENDBRANCH  11  12
ENDBRANCH   7  11
ENDBRANCH   1   7
BRANCH   1  14
ATOM     14  N   UNL     1       4.013   6.207  18.784  0.00  0.00    +0.000 NA
ATOM     15  H   UNL     1       4.626   5.925  19.543  0.00  0.00    +0.000 HD
BRANCH  14  16
ATOM     16  C   UNL     1       2.686   6.464  19.346  0.00  0.00    +0.000 C 
BRANCH  16  19
ATOM     17  N   UNL     1       1.301   9.781  18.675  0.00  0.00    +0.000 N 
ATOM     18  C   UNL     1       1.456   8.731  19.532  0.00  0.00    +0.000 A 
ATOM     19  C   UNL     1       2.263   7.816  18.888  0.00  0.00    +0.000 A 
ATOM     20  C   UNL     1       2.587   8.452  17.666  0.00  0.00    +0.000 A 
ATOM     21  N   UNL     1       2.027   9.658  17.548  0.00  0.00    +0.000 NA
BRANCH  17  22
ATOM     22  C   UNL     1       0.409  10.913  18.843  0.00  0.00    +0.000 C 
BRANCH  22  24
ATOM     23  C   UNL     1      -1.963  11.662  19.389  0.00  0.00    +0.000 C 
ATOM     24  C   UNL     1      -1.078  10.517  18.888  0.00  0.00    +0.000 C 
ATOM     25  C   UNL     1      -1.545  10.065  17.504  0.00  0.00    +0.000 C 
ENDBRANCH  22  24
ENDBRANCH  17  22
ENDBRANCH  16  19
ENDBRANCH  14  16
ENDBRANCH   1  14
TORSDOF 9
ENDMDL
MODEL 6
REMARK VINA RESULT:      -6.6      2.208      4.021
REMARK  Name = 
REMARK  11 active torsions:
REMARK  status: ('A' for Active; 'I' for Inactive)
REMARK    1  A    between atoms: C_1  and  C_2
REMARK    2  A    between atoms: C_2  and  C_3
REMARK    3  A    between atoms: C_2  and  C_4
REMARK    4  A    between atoms: C_4  and  N_5
REMARK    5  A    between atoms: C_7  and  C_8
REMARK    6  A    between atoms: C_8  and  N_9
REMARK    7  A    between atoms: N_9  and  C_10
REMARK    8  A    between atoms: C_10  and  C_11
REMARK    9  A    between atoms: C_10  and  C_16
REMARK   10  A    between atoms: C_16  and  C_17
REMARK   11  A    between atoms: C_17  and  O_18
REMARK                            x       y       z     vdW  Elec       q    Type
REMARK                         _______ _______ _______ _____ _____    ______ ____
ROOT
ATOM      1  C   UNL     1       3.460   4.864  18.899  0.00  0.00    +0.000 C 
ENDROOT
BRANCH   1   2
ATOM      2  C   UNL     1       4.643   4.725  17.954  0.00  0.00    +0.000 A 
ATOM      3  C   UNL     1       4.656   4.355  16.621  0.00  0.00    +0.000 A 
ATOM      4  C   UNL     1       5.970   4.332  16.073  0.00  0.00    +0.000 A 
ATOM      5  C   UNL     1       6.919   4.704  16.996  0.00  0.00    +0.000 A 
ATOM      6  S   UNL     1       6.232   5.063  18.518  0.00  0.00    +0.000 S 
ENDBRANCH   1   2
BRANCH   1   7
ATOM      7  C   UNL     1       2.755   3.485  19.098  0.00  0.00    +0.000 C 
ATOM      8  C   UNL     1       1.428   3.488  19.931  0.00  0.00    +0.000 C 
ATOM      9  C   UNL     1       0.821   2.509  18.908  0.00  0.00    +0.000 C 
ATOM     10  C   UNL     1       1.889   2.957  17.900  0.00  0.00    +0.000 C 
BRANCH   7  11
ATOM     11  C   UNL     1       3.727   2.402  19.625  0.00  0.00    +0.000 C 
BRANCH  11  12
ATOM     12  O   UNL     1       3.977   1.428  18.617  0.00  0.00    +0.000 OA
ATOM     13  H   UNL     1       3.129   1.004  18.398  0.00  0.00    +0.000 HD
ENDBRANCH  11  12
ENDBRANCH   7  11
ENDBRANCH   1   7
BRANCH   1  14
ATOM     14  N   UNL     1       2.520   5.893  18.411  0.00  0.00    +0.000 NA
ATOM     15  H   UNL     1       2.086   5.587  17.545  0.00  0.00    +0.000 HD
BRANCH  14  16
ATOM     16  C   UNL     1       3.152   7.191  18.168  0.00  0.00    +0.000 C 
BRANCH  16  19
ATOM     17  N   UNL     1       0.659   9.462  19.581  0.00  0.00    +0.000 N 
ATOM     18  C   UNL     1       1.503   8.403  19.749  0.00  0.00    +0.000 A 
ATOM     19  C   UNL     1       2.170   8.242  18.551  0.00  0.00    +0.000 A 
ATOM     20  C   UNL     1       1.689   9.305  17.751  0.00  0.00    +0.000 A 
ATOM     21  N   UNL     1       0.792  10.063  18.384  0.00  0.00    +0.000 NA
BRANCH  17  22
ATOM     22  C   UNL     1      -0.363   9.910  20.509  0.00  0.00    +0.000 C 
BRANCH  22  24
ATOM     23  C   UNL     1       0.320  12.250  21.247  0.00  0.00    +0.000 C 
ATOM     24  C   UNL     1       0.191  10.780  21.653  0.00  0.00    +0.000 C 
ATOM     25  C   UNL     1      -0.702  10.656  22.888  0.00  0.00    +0.000 C 
ENDBRANCH  22  24
ENDBRANCH  17  22
ENDBRANCH  16  19
ENDBRANCH  14  16
ENDBRANCH   1  14
TORSDOF 9
ENDMDL
MODEL 7
REMARK VINA RESULT:      -6.6      1.834      2.678
REMARK  Name = 
REMARK  11 active torsions:
REMARK  status: ('A' for Active; 'I' for Inactive)
REMARK    1  A    between atoms: C_1  and  C_2
REMARK    2  A    between atoms: C_2  and  C_3
REMARK    3  A    between atoms: C_2  and  C_4
REMARK    4  A    between atoms: C_4  and  N_5
REMARK    5  A    between atoms: C_7  and  C_8
REMARK    6  A    between atoms: C_8  and  N_9
REMARK    7  A    between atoms: N_9  and  C_10
REMARK    8  A    between atoms: C_10  and  C_11
REMARK    9  A    between atoms: C_10  and  C_16
REMARK   10  A    between atoms: C_16  and  C_17
REMARK   11  A    between atoms: C_17  and  O_18
REMARK                            x       y       z     vdW  Elec       q    Type
REMARK                         _______ _______ _______ _____ _____    ______ ____
ROOT
ATOM      1  C   UNL     1       2.890   5.623  18.257  0.00  0.00    +0.000 C 
ENDROOT
BRANCH   1   2
ATOM      2  C   UNL     1       2.247   4.627  19.208  0.00  0.00    +0.000 A 
ATOM      3  C   UNL     1       2.261   4.606  20.591  0.00  0.00    +0.000 A 
ATOM      4  C   UNL     1       1.546   3.498  21.129  0.00  0.00    +0.000 A 
ATOM      5  C   UNL     1       0.989   2.718  20.144  0.00  0.00    +0.000 A 
ATOM      6  S   UNL     1       1.341   3.307  18.580  0.00  0.00    +0.000 S 
ENDBRANCH   1   2
BRANCH   1   7
ATOM      7  C   UNL     1       4.278   5.096  17.772  0.00  0.00    +0.000 C 
ATOM      8  C   UNL     1       4.276   3.749  16.972  0.00  0.00    +0.000 C 
ATOM      9  C   UNL     1       5.303   4.362  16.000  0.00  0.00    +0.000 C 
ATOM     10  C   UNL     1       4.866   5.755  16.474  0.00  0.00    +0.000 C 
BRANCH   7  11
ATOM     11  C   UNL     1       5.319   5.050  18.914  0.00  0.00    +0.000 C 
BRANCH  11  12
ATOM     12  O   UNL     1       5.691   3.704  19.193  0.00  0.00    +0.000 OA
ATOM     13  H   UNL     1       6.001   3.668  20.115  0.00  0.00    +0.000 HD
ENDBRANCH  11  12
ENDBRANCH   7  11
ENDBRANCH   1   7
BRANCH   1  14
ATOM     14  N   UNL     1       3.000   6.952  18.890  0.00  0.00    +0.000 NA
ATOM     15  H   UNL     1       2.323   7.038  19.642  0.00  0.00    +0.000 HD
BRANCH  14  16
ATOM     16  C   UNL     1       2.786   8.060  17.958  0.00  0.00    +0.000 C 
BRANCH  16  19
ATOM     17  N   UNL     1       0.306   9.929  19.889  0.00  0.00    +0.000 N 
ATOM     18  C   UNL     1       1.135   8.850  19.785  0.00  0.00    +0.000 A 
ATOM     19  C   UNL     1       1.813   8.993  18.592  0.00  0.00    +0.000 A 
ATOM     20  C   UNL     1       1.355  10.233  18.088  0.00  0.00    +0.000 A 
ATOM     21  N   UNL     1       0.461  10.817  18.889  0.00  0.00    +0.000 NA
BRANCH  17  22
ATOM     22  C   UNL     1      -0.720  10.139  20.894  0.00  0.00    +0.000 C 
BRANCH  22  24
ATOM     23  C   UNL     1      -1.028  11.809  22.792  0.00  0.00    +0.000 C 
ATOM     24  C   UNL     1      -0.168  10.675  22.228  0.00  0.00    +0.000 C 
ATOM     25  C   UNL     1      -0.064   9.541  23.248  0.00  0.00    +0.000 C 
ENDBRANCH  22  24
ENDBRANCH  17  22
ENDBRANCH  16  19
ENDBRANCH  14  16
ENDBRANCH   1  14
TORSDOF 9
ENDMDL
MODEL 8
REMARK VINA RESULT:      -6.6      1.420      1.567
REMARK  Name = 
REMARK  11 active torsions:
REMARK  status: ('A' for Active; 'I' for Inactive)
REMARK    1  A    between atoms: C_1  and  C_2
REMARK    2  A    between atoms: C_2  and  C_3
REMARK    3  A    between atoms: C_2  and  C_4
REMARK    4  A    between atoms: C_4  and  N_5
REMARK    5  A    between atoms: C_7  and  C_8
REMARK    6  A    between atoms: C_8  and  N_9
REMARK    7  A    between atoms: N_9  and  C_10
REMARK    8  A    between atoms: C_10  and  C_11
REMARK    9  A    between atoms: C_10  and  C_16
REMARK   10  A    between atoms: C_16  and  C_17
REMARK   11  A    between atoms: C_17  and  O_18
REMARK                            x       y       z     vdW  Elec       q    Type
REMARK                         _______ _______ _______ _____ _____    ______ ____
ROOT
ATOM      1  C   UNL     1       2.967   5.577  17.921  0.00  0.00    +0.000 C 
ENDROOT
BRANCH   1   2
ATOM      2  C   UNL     1       2.185   4.567  18.744  0.00  0.00    +0.000 A 
ATOM      3  C   UNL     1       1.462   3.466  18.319  0.00  0.00    +0.000 A 
ATOM      4  C   UNL     1       0.857   2.760  19.397  0.00  0.00    +0.000 A 
ATOM      5  C   UNL     1       1.149   3.328  20.614  0.00  0.00    +0.000 A 
ATOM      6  S   UNL     1       2.135   4.714  20.457  0.00  0.00    +0.000 S 
ENDBRANCH   1   2
BRANCH   1   7
ATOM      7  C   UNL     1       4.364   4.999  17.531  0.00  0.00    +0.000 C 
ATOM      8  C   UNL     1       4.367   3.683  16.681  0.00  0.00    +0.000 C 
ATOM      9  C   UNL     1       5.500   4.277  15.823  0.00  0.00    +0.000 C 
ATOM     10  C   UNL     1       5.090   5.673  16.314  0.00  0.00    +0.000 C 
BRANCH   7  11
ATOM     11  C   UNL     1       5.302   4.860  18.753  0.00  0.00    +0.000 C 
BRANCH  11  12
ATOM     12  O   UNL     1       5.437   3.491  19.122  0.00  0.00    +0.000 OA
ATOM     13  H   UNL     1       5.829   3.462  20.012  0.00  0.00    +0.000 HD
ENDBRANCH  11  12
ENDBRANCH   7  11
ENDBRANCH   1   7
BRANCH   1  14
ATOM     14  N   UNL     1       3.086   6.859  18.643  0.00  0.00    +0.000 NA
ATOM     15  H   UNL     1       2.588   6.810  19.526  0.00  0.00    +0.000 HD
BRANCH  14  16
ATOM     16  C   UNL     1       2.567   8.002  17.891  0.00  0.00    +0.000 C 
BRANCH  16  19
ATOM     17  N   UNL     1       0.638  10.442  19.814  0.00  0.00    +0.000 N 
ATOM     18  C   UNL     1       1.197  10.069  18.627  0.00  0.00    +0.000 A 
ATOM     19  C   UNL     1       1.768   8.830  18.836  0.00  0.00    +0.000 A 
ATOM     20  C   UNL     1       1.434   8.526  20.177  0.00  0.00    +0.000 A 
ATOM     21  N   UNL     1       0.724   9.492  20.764  0.00  0.00    +0.000 NA
BRANCH  17  22
ATOM     22  C   UNL     1       0.063  11.736  20.132  0.00  0.00    +0.000 C 
BRANCH  22  24
ATOM     23  C   UNL     1      -2.343  12.410  19.644  0.00  0.00    +0.000 C 
ATOM     24  C   UNL     1      -0.934  12.238  19.071  0.00  0.00    +0.000 C 
ATOM     25  C   UNL     1      -0.449  13.560  18.475  0.00  0.00    +0.000 C 
ENDBRANCH  22  24
ENDBRANCH  17  22
ENDBRANCH  16  19
ENDBRANCH  14  16
ENDBRANCH   1  14
TORSDOF 9
ENDMDL
MODEL 9
REMARK VINA RESULT:      -6.6      1.754      3.392
REMARK  Name = 
REMARK  11 active torsions:
REMARK  status: ('A' for Active; 'I' for Inactive)
REMARK    1  A    between atoms: C_1  and  C_2
REMARK    2  A    between atoms: C_2  and  C_3
REMARK    3  A    between atoms: C_2  and  C_4
REMARK    4  A    between atoms: C_4  and  N_5
REMARK    5  A    between atoms: C_7  and  C_8
REMARK    6  A    between atoms: C_8  and  N_9
REMARK    7  A    between atoms: N_9  and  C_10
REMARK    8  A    between atoms: C_10  and  C_11
REMARK    9  A    between atoms: C_10  and  C_16
REMARK   10  A    between atoms: C_16  and  C_17
REMARK   11  A    between atoms: C_17  and  O_18
REMARK                            x       y       z     vdW  Elec       q    Type
REMARK                         _______ _______ _______ _____ _____    ______ ____
ROOT
ATOM      1  C   UNL     1       3.520   4.870  19.313  0.00  0.00    +0.000 C 
ENDROOT
BRANCH   1   2
ATOM      2  C   UNL     1       4.592   4.962  18.239  0.00  0.00    +0.000 A 
ATOM      3  C   UNL     1       4.459   4.886  16.864  0.00  0.00    +0.000 A 
ATOM      4  C   UNL     1       5.705   5.009  16.186  0.00  0.00    +0.000 A 
ATOM      5  C   UNL     1       6.750   5.197  17.059  0.00  0.00    +0.000 A 
ATOM      6  S   UNL     1       6.234   5.208  18.687  0.00  0.00    +0.000 S 
ENDBRANCH   1   2
BRANCH   1   7
ATOM      7  C   UNL     1       2.997   3.404  19.437  0.00  0.00    +0.000 C 
ATOM      8  C   UNL     1       1.500   3.227  19.865  0.00  0.00    +0.000 C 
ATOM      9  C   UNL     1       1.363   2.113  18.809  0.00  0.00    +0.000 C 
ATOM     10  C   UNL     1       2.600   2.683  18.100  0.00  0.00    +0.000 C 
BRANCH   7  11
ATOM     11  C   UNL     1       3.921   2.524  20.311  0.00  0.00    +0.000 C 
BRANCH  11  12
ATOM     12  O   UNL     1       4.929   1.916  19.510  0.00  0.00    +0.000 OA
ATOM     13  H   UNL     1       5.792   2.151  19.893  0.00  0.00    +0.000 HD
ENDBRANCH  11  12
ENDBRANCH   7  11
ENDBRANCH   1   7
BRANCH   1  14
ATOM     14  N   UNL     1       2.425   5.821  19.041  0.00  0.00    +0.000 NA
ATOM     15  H   UNL     1       2.540   6.232  18.119  0.00  0.00    +0.000 HD
BRANCH  14  16
ATOM     16  C   UNL     1       2.343   6.910  20.016  0.00  0.00    +0.000 C 
BRANCH  16  19
ATOM     17  N   UNL     1       0.975  10.000  18.620  0.00  0.00    +0.000 N 
ATOM     18  C   UNL     1       1.069   9.134  19.669  0.00  0.00    +0.000 A 
ATOM     19  C   UNL     1       1.942   8.139  19.278  0.00  0.00    +0.000 A 
ATOM     20  C   UNL     1       2.363   8.546  17.990  0.00  0.00    +0.000 A 
ATOM     21  N   UNL     1       1.798   9.691  17.600  0.00  0.00    +0.000 NA
BRANCH  17  22
ATOM     22  C   UNL     1       0.056  11.116  18.498  0.00  0.00    +0.000 C 
BRANCH  22  24
ATOM     23  C   UNL     1      -2.348  11.886  18.838  0.00  0.00    +0.000 C 
ATOM     24  C   UNL     1      -1.424  10.697  18.556  0.00  0.00    +0.000 C 
ATOM     25  C   UNL     1      -1.832  10.019  17.247  0.00  0.00    +0.000 C 
ENDBRANCH  22  24
ENDBRANCH  17  22
ENDBRANCH  16  19
ENDBRANCH  14  16
ENDBRANCH   1  14
TORSDOF 9
ENDMDL
