MODEL 1
REMARK VINA RESULT:      -6.9      0.000      0.000
REMARK  Name = 
REMARK  5 active torsions:
REMARK  status: ('A' for Active; 'I' for Inactive)
REMARK    1  A    between atoms: C_1  and  C_2
REMARK    2  A    between atoms: C_2  and  C_3
REMARK    3  A    between atoms: C_3  and  C_4
REMARK    4  A    between atoms: C_3  and  N_5
REMARK    5  A    between atoms: C_3  and  C_6
REMARK                            x       y       z     vdW  Elec       q    Type
REMARK                         _______ _______ _______ _____ _____    ______ ____
ROOT
ATOM      1  C   UNL     1       5.456   4.828  17.366  0.00  0.00    +0.000 A 
ATOM      2  N   UNL     1       4.642   5.832  17.538  0.00  0.00    +0.000 NA
ATOM      3  C   UNL     1       3.335   5.593  17.929  0.00  0.00    +0.000 A 
ATOM      4  O   UNL     1       2.503   6.484  18.069  0.00  0.00    +0.000 OA
ATOM      5  C   UNL     1       2.943   4.193  18.173  0.00  0.00    +0.000 A 
ATOM      6  C   UNL     1       3.840   3.225  17.996  0.00  0.00    +0.000 A 
ATOM      7  N   UNL     1       5.100   3.515  17.592  0.00  0.00    +0.000 N 
ATOM      8  C   UNL     1       3.272   1.882  18.283  0.00  0.00    +0.000 C 
ATOM      9  C   UNL     1       1.762   2.184  18.309  0.00  0.00    +0.000 C 
ATOM     10  C   UNL     1       1.615   3.689  18.585  0.00  0.00    +0.000 C 
ATOM     11  H   UNL     1       5.783   2.787  17.399  0.00  0.00    +0.000 HD
ENDROOT
BRANCH   1  12
ATOM     12  C   UNL     1       6.911   5.102  16.883  0.00  0.00    +0.000 C 
ATOM     13  C   UNL     1       7.035   4.769  15.386  0.00  0.00    +0.000 C 
BRANCH  12  14
ATOM     14  N   UNL     1       7.818   4.197  17.639  0.00  0.00    +0.000 NA
ATOM     15  H   UNL     1       7.357   3.945  18.515  0.00  0.00    +0.000 HD
ATOM     16  H   UNL     1       8.639   4.737  17.921  0.00  0.00    +0.000 HD
ENDBRANCH  12  14
BRANCH  12  18
ATOM     17  C   UNL     1       7.968   6.878  18.454  0.00  0.00    +0.000 C 
ATOM     18  C   UNL     1       7.300   6.577  17.116  0.00  0.00    +0.000 C 
ENDBRANCH  12  18
ENDBRANCH   1  12
TORSDOF 3
ENDMDL
MODEL 2
REMARK VINA RESULT:      -6.9      2.004      2.712
REMARK  Name = 
REMARK  5 active torsions:
REMARK  status: ('A' for Active; 'I' for Inactive)
REMARK    1  A    between atoms: C_1  and  C_2
REMARK    2  A    between atoms: C_2  and  C_3
REMARK    3  A    between atoms: C_3  and  C_4
REMARK    4  A    between atoms: C_3  and  N_5
REMARK    5  A    between atoms: C_3  and  C_6
REMARK                            x       y       z     vdW  Elec       q    Type
REMARK                         _______ _______ _______ _____ _____    ______ ____
ROOT
ATOM      1  C   UNL     1       5.806   4.899  18.444  0.00  0.00    +0.000 A 
ATOM      2  N   UNL     1       5.683   3.673  18.871  0.00  0.00    +0.000 NA
ATOM      3  C   UNL     1       4.541   3.300  19.559  0.00  0.00    +0.000 A 
ATOM      4  O   UNL     1       4.374   2.177  20.026  0.00  0.00    +0.000 OA
ATOM      5  C   UNL     1       3.490   4.319  19.737  0.00  0.00    +0.000 A 
ATOM      6  C   UNL     1       3.682   5.544  19.252  0.00  0.00    +0.000 A 
ATOM      7  N   UNL     1       4.830   5.860  18.605  0.00  0.00    +0.000 N 
ATOM      8  C   UNL     1       2.526   6.437  19.525  0.00  0.00    +0.000 C 
ATOM      9  C   UNL     1       1.757   5.631  20.587  0.00  0.00    +0.000 C 
ATOM     10  C   UNL     1       2.197   4.166  20.437  0.00  0.00    +0.000 C 
ATOM     11  H   UNL     1       5.018   6.802  18.275  0.00  0.00    +0.000 HD
ENDROOT
BRANCH   1  12
ATOM     12  C   UNL     1       7.113   5.323  17.711  0.00  0.00    +0.000 C 
ATOM     13  C   UNL     1       6.798   5.673  16.247  0.00  0.00    +0.000 C 
BRANCH  12  14
ATOM     14  N   UNL     1       8.039   4.159  17.724  0.00  0.00    +0.000 NA
ATOM     15  H   UNL     1       8.584   4.176  16.861  0.00  0.00    +0.000 HD
ATOM     16  H   UNL     1       7.476   3.307  17.662  0.00  0.00    +0.000 HD
ENDBRANCH  12  14
BRANCH  12  18
ATOM     17  C   UNL     1       7.736   7.841  17.608  0.00  0.00    +0.000 C 
ATOM     18  C   UNL     1       7.762   6.540  18.403  0.00  0.00    +0.000 C 
ENDBRANCH  12  18
ENDBRANCH   1  12
TORSDOF 3
ENDMDL
MODEL 3
REMARK VINA RESULT:      -6.9      1.825      2.038
REMARK  Name = 
REMARK  5 active torsions:
REMARK  status: ('A' for Active; 'I' for Inactive)
REMARK    1  A    between atoms: C_1  and  C_2
REMARK    2  A    between atoms: C_2  and  C_3
REMARK    3  A    between atoms: C_3  and  C_4
REMARK    4  A    between atoms: C_3  and  N_5
REMARK    5  A    between atoms: C_3  and  C_6
REMARK                            x       y       z     vdW  Elec       q    Type
REMARK                         _______ _______ _______ _____ _____    ______ ____
ROOT
ATOM      1  C   UNL     1       4.297   4.416  18.098  0.00  0.00    +0.000 A 
ATOM      2  N   UNL     1       3.240   4.527  17.341  0.00  0.00    +0.000 NA
ATOM      3  C   UNL     1       1.997   4.193  17.849  0.00  0.00    +0.000 A 
ATOM      4  O   UNL     1       0.966   4.233  17.183  0.00  0.00    +0.000 OA
ATOM      5  C   UNL     1       1.931   3.762  19.258  0.00  0.00    +0.000 A 
ATOM      6  C   UNL     1       3.052   3.695  19.972  0.00  0.00    +0.000 A 
ATOM      7  N   UNL     1       4.246   4.014  19.416  0.00  0.00    +0.000 N 
ATOM      8  C   UNL     1       2.798   3.240  21.364  0.00  0.00    +0.000 C 
ATOM      9  C   UNL     1       1.365   2.689  21.252  0.00  0.00    +0.000 C 
ATOM     10  C   UNL     1       0.731   3.348  20.017  0.00  0.00    +0.000 C 
ATOM     11  H   UNL     1       5.118   3.918  19.928  0.00  0.00    +0.000 HD
ENDROOT
BRANCH   1  12
ATOM     12  C   UNL     1       5.697   4.751  17.506  0.00  0.00    +0.000 C 
ATOM     13  C   UNL     1       5.860   4.069  16.137  0.00  0.00    +0.000 C 
BRANCH  12  14
ATOM     14  N   UNL     1       6.724   4.199  18.429  0.00  0.00    +0.000 NA
ATOM     15  H   UNL     1       6.897   3.227  18.168  0.00  0.00    +0.000 HD
ATOM     16  H   UNL     1       6.314   4.149  19.364  0.00  0.00    +0.000 HD
ENDBRANCH  12  14
BRANCH  12  18
ATOM     17  C   UNL     1       7.277   6.808  17.629  0.00  0.00    +0.000 C 
ATOM     18  C   UNL     1       5.876   6.276  17.346  0.00  0.00    +0.000 C 
ENDBRANCH  12  18
ENDBRANCH   1  12
TORSDOF 3
ENDMDL
MODEL 4
REMARK VINA RESULT:      -6.8      2.003      5.072
REMARK  Name = 
REMARK  5 active torsions:
REMARK  status: ('A' for Active; 'I' for Inactive)
REMARK    1  A    between atoms: C_1  and  C_2
REMARK    2  A    between atoms: C_2  and  C_3
REMARK    3  A    between atoms: C_3  and  C_4
REMARK    4  A    between atoms: C_3  and  N_5
REMARK    5  A    between atoms: C_3  and  C_6
REMARK                            x       y       z     vdW  Elec       q    Type
REMARK                         _______ _______ _______ _____ _____    ______ ____
ROOT
ATOM      1  C   UNL     1       3.461   3.967  18.354  0.00  0.00    +0.000 A 
ATOM      2  N   UNL     1       4.297   4.351  19.279  0.00  0.00    +0.000 NA
ATOM      3  C   UNL     1       5.575   4.747  18.924  0.00  0.00    +0.000 A 
ATOM      4  O   UNL     1       6.426   5.081  19.743  0.00  0.00    +0.000 OA
ATOM      5  C   UNL     1       5.911   4.752  17.488  0.00  0.00    +0.000 A 
ATOM      6  C   UNL     1       4.995   4.366  16.603  0.00  0.00    +0.000 A 
ATOM      7  N   UNL     1       3.765   3.968  17.009  0.00  0.00    +0.000 N 
ATOM      8  C   UNL     1       5.507   4.431  15.209  0.00  0.00    +0.000 C 
ATOM      9  C   UNL     1       7.022   4.574  15.444  0.00  0.00    +0.000 C 
ATOM     10  C   UNL     1       7.202   5.122  16.868  0.00  0.00    +0.000 C 
ATOM     11  H   UNL     1       3.071   3.619  16.354  0.00  0.00    +0.000 HD
ENDROOT
BRANCH   1  12
ATOM     12  C   UNL     1       2.040   3.480  18.766  0.00  0.00    +0.000 C 
ATOM     13  C   UNL     1       2.033   1.948  18.901  0.00  0.00    +0.000 C 
BRANCH  12  14
ATOM     14  N   UNL     1       1.099   3.858  17.679  0.00  0.00    +0.000 NA
ATOM     15  H   UNL     1       0.501   3.053  17.482  0.00  0.00    +0.000 HD
ATOM     16  H   UNL     1       1.642   3.995  16.823  0.00  0.00    +0.000 HD
ENDBRANCH  12  14
BRANCH  12  18
ATOM     17  C   UNL     1       1.407   3.144  21.261  0.00  0.00    +0.000 C 
ATOM     18  C   UNL     1       1.607   4.117  20.104  0.00  0.00    +0.000 C 
ENDBRANCH  12  18
ENDBRANCH   1  12
TORSDOF 3
ENDMDL
MODEL 5
REMARK VINA RESULT:      -6.8      1.101      1.154
REMARK  Name = 
REMARK  5 active torsions:
REMARK  status: ('A' for Active; 'I' for Inactive)
REMARK    1  A    between atoms: C_1  and  C_2
REMARK    2  A    between atoms: C_2  and  C_3
REMARK    3  A    between atoms: C_3  and  C_4
REMARK    4  A    between atoms: C_3  and  N_5
REMARK    5  A    between atoms: C_3  and  C_6
REMARK                            x       y       z     vdW  Elec       q    Type
REMARK                         _______ _______ _______ _____ _____    ______ ____
ROOT
ATOM      1  C   UNL     1       5.758   5.049  18.106  0.00  0.00    +0.000 A 
ATOM      2  N   UNL     1       4.785   5.889  17.887  0.00  0.00    +0.000 NA
ATOM      3  C   UNL     1       3.510   5.591  18.334  0.00  0.00    +0.000 A 
ATOM      4  O   UNL     1       2.539   6.313  18.127  0.00  0.00    +0.000 OA
ATOM      5  C   UNL     1       3.329   4.334  19.084  0.00  0.00    +0.000 A 
ATOM      6  C   UNL     1       4.377   3.539  19.286  0.00  0.00    +0.000 A 
ATOM      7  N   UNL     1       5.600   3.872  18.806  0.00  0.00    +0.000 N 
ATOM      8  C   UNL     1       4.011   2.321  20.054  0.00  0.00    +0.000 C 
ATOM      9  C   UNL     1       2.475   2.346  19.959  0.00  0.00    +0.000 C 
ATOM     10  C   UNL     1       2.073   3.797  19.650  0.00  0.00    +0.000 C 
ATOM     11  H   UNL     1       6.401   3.254  18.903  0.00  0.00    +0.000 HD
ENDROOT
BRANCH   1  12
ATOM     12  C   UNL     1       7.181   5.372  17.560  0.00  0.00    +0.000 C 
ATOM     13  C   UNL     1       7.101   5.700  16.060  0.00  0.00    +0.000 C 
BRANCH  12  14
ATOM     14  N   UNL     1       8.018   4.155  17.730  0.00  0.00    +0.000 NA
ATOM     15  H   UNL     1       7.405   3.381  17.990  0.00  0.00    +0.000 HD
ATOM     16  H   UNL     1       8.620   4.297  18.545  0.00  0.00    +0.000 HD
ENDBRANCH  12  14
BRANCH  12  18
ATOM     17  C   UNL     1       7.758   7.903  17.583  0.00  0.00    +0.000 C 
ATOM     18  C   UNL     1       7.801   6.567  18.316  0.00  0.00    +0.000 C 
ENDBRANCH  12  18
ENDBRANCH   1  12
TORSDOF 3
ENDMDL
MODEL 6
REMARK VINA RESULT:      -6.8      1.813      5.063
REMARK  Name = 
REMARK  5 active torsions:
REMARK  status: ('A' for Active; 'I' for Inactive)
REMARK    1  A    between atoms: C_1  and  C_2
REMARK    2  A    between atoms: C_2  and  C_3
REMARK    3  A    between atoms: C_3  and  C_4
REMARK    4  A    between atoms: C_3  and  N_5
REMARK    5  A    between atoms: C_3  and  C_6
REMARK                            x       y       z     vdW  Elec       q    Type
REMARK                         _______ _______ _______ _____ _____    ______ ____
ROOT
ATOM      1  C   UNL     1       4.565   3.350  18.095  0.00  0.00    +0.000 A 
ATOM      2  N   UNL     1       4.471   3.677  16.836  0.00  0.00    +0.000 NA
ATOM      3  C   UNL     1       5.302   4.657  16.320  0.00  0.00    +0.000 A 
ATOM      4  O   UNL     1       5.241   5.045  15.157  0.00  0.00    +0.000 OA
ATOM      5  C   UNL     1       6.293   5.257  17.231  0.00  0.00    +0.000 A 
ATOM      6  C   UNL     1       6.342   4.854  18.498  0.00  0.00    +0.000 A 
ATOM      7  N   UNL     1       5.489   3.905  18.955  0.00  0.00    +0.000 N 
ATOM      8  C   UNL     1       7.395   5.566  19.268  0.00  0.00    +0.000 C 
ATOM      9  C   UNL     1       7.726   6.738  18.327  0.00  0.00    +0.000 C 
ATOM     10  C   UNL     1       7.275   6.318  16.919  0.00  0.00    +0.000 C 
ATOM     11  H   UNL     1       5.475   3.622  19.931  0.00  0.00    +0.000 HD
ENDROOT
BRANCH   1  12
ATOM     12  C   UNL     1       3.598   2.279  18.679  0.00  0.00    +0.000 C 
ATOM     13  C   UNL     1       3.381   2.535  20.180  0.00  0.00    +0.000 C 
BRANCH  12  14
ATOM     14  N   UNL     1       4.243   0.949  18.520  0.00  0.00    +0.000 NA
ATOM     15  H   UNL     1       5.172   0.993  18.943  0.00  0.00    +0.000 HD
ATOM     16  H   UNL     1       4.418   0.800  17.523  0.00  0.00    +0.000 HD
ENDBRANCH  12  14
BRANCH  12  18
ATOM     17  C   UNL     1       1.063   2.835  18.770  0.00  0.00    +0.000 C 
ATOM     18  C   UNL     1       2.237   2.311  17.950  0.00  0.00    +0.000 C 
ENDBRANCH  12  18
ENDBRANCH   1  12
TORSDOF 3
ENDMDL
MODEL 7
REMARK VINA RESULT:      -6.7      1.916      2.521
REMARK  Name = 
REMARK  5 active torsions:
REMARK  status: ('A' for Active; 'I' for Inactive)
REMARK    1  A    between atoms: C_1  and  C_2
REMARK    2  A    between atoms: C_2  and  C_3
REMARK    3  A    between atoms: C_3  and  C_4
REMARK    4  A    between atoms: C_3  and  N_5
REMARK    5  A    between atoms: C_3  and  C_6
REMARK                            x       y       z     vdW  Elec       q    Type
REMARK                         _______ _______ _______ _____ _____    ______ ____
ROOT
ATOM      1  C   UNL     1       5.192   4.774  18.581  0.00  0.00    +0.000 A 
ATOM      2  N   UNL     1       4.926   3.649  17.977  0.00  0.00    +0.000 NA
ATOM      3  C   UNL     1       3.696   3.044  18.170  0.00  0.00    +0.000 A 
ATOM      4  O   UNL     1       3.392   1.966  17.668  0.00  0.00    +0.000 OA
ATOM      5  C   UNL     1       2.723   3.741  19.031  0.00  0.00    +0.000 A 
ATOM      6  C   UNL     1       3.062   4.898  19.594  0.00  0.00    +0.000 A 
ATOM      7  N   UNL     1       4.289   5.434  19.387  0.00  0.00    +0.000 N 
ATOM      8  C   UNL     1       1.964   5.453  20.427  0.00  0.00    +0.000 C 
ATOM      9  C   UNL     1       1.032   4.236  20.561  0.00  0.00    +0.000 C 
ATOM     10  C   UNL     1       1.360   3.294  19.392  0.00  0.00    +0.000 C 
ATOM     11  H   UNL     1       4.586   6.288  19.851  0.00  0.00    +0.000 HD
ENDROOT
BRANCH   1  12
ATOM     12  C   UNL     1       6.594   5.426  18.394  0.00  0.00    +0.000 C 
ATOM     13  C   UNL     1       7.487   4.506  17.544  0.00  0.00    +0.000 C 
BRANCH  12  14
ATOM     14  N   UNL     1       7.212   5.566  19.739  0.00  0.00    +0.000 NA
ATOM     15  H   UNL     1       6.731   6.319  20.234  0.00  0.00    +0.000 HD
ATOM     16  H   UNL     1       8.169   5.905  19.614  0.00  0.00    +0.000 HD
ENDBRANCH  12  14
BRANCH  12  18
ATOM     17  C   UNL     1       7.751   7.636  17.673  0.00  0.00    +0.000 C 
ATOM     18  C   UNL     1       6.473   6.804  17.708  0.00  0.00    +0.000 C 
ENDBRANCH  12  18
ENDBRANCH   1  12
TORSDOF 3
ENDMDL
MODEL 8
REMARK VINA RESULT:      -6.7      1.860      2.281
REMARK  Name = 
REMARK  5 active torsions:
REMARK  status: ('A' for Active; 'I' for Inactive)
REMARK    1  A    between atoms: C_1  and  C_2
REMARK    2  A    between atoms: C_2  and  C_3
REMARK    3  A    between atoms: C_3  and  C_4
REMARK    4  A    between atoms: C_3  and  N_5
REMARK    5  A    between atoms: C_3  and  C_6
REMARK                            x       y       z     vdW  Elec       q    Type
REMARK                         _______ _______ _______ _____ _____    ______ ____
ROOT
ATOM      1  C   UNL     1       5.276   4.449  17.988  0.00  0.00    +0.000 A 
ATOM      2  N   UNL     1       5.610   3.610  18.929  0.00  0.00    +0.000 NA
ATOM      3  C   UNL     1       4.626   2.898  19.592  0.00  0.00    +0.000 A 
ATOM      4  O   UNL     1       4.862   2.124  20.516  0.00  0.00    +0.000 OA
ATOM      5  C   UNL     1       3.231   3.101  19.159  0.00  0.00    +0.000 A 
ATOM      6  C   UNL     1       2.973   3.958  18.175  0.00  0.00    +0.000 A 
ATOM      7  N   UNL     1       3.975   4.645  17.575  0.00  0.00    +0.000 N 
ATOM      8  C   UNL     1       1.519   4.038  17.874  0.00  0.00    +0.000 C 
ATOM      9  C   UNL     1       0.910   3.346  19.107  0.00  0.00    +0.000 C 
ATOM     10  C   UNL     1       2.015   2.467  19.714  0.00  0.00    +0.000 C 
ATOM     11  H   UNL     1       3.793   5.343  16.859  0.00  0.00    +0.000 HD
ENDROOT
BRANCH   1  12
ATOM     12  C   UNL     1       6.385   5.279  17.277  0.00  0.00    +0.000 C 
ATOM     13  C   UNL     1       5.783   6.036  16.081  0.00  0.00    +0.000 C 
BRANCH  12  14
ATOM     14  N   UNL     1       7.405   4.327  16.763  0.00  0.00    +0.000 NA
ATOM     15  H   UNL     1       6.984   3.398  16.729  0.00  0.00    +0.000 HD
ATOM     16  H   UNL     1       8.148   4.252  17.463  0.00  0.00    +0.000 HD
ENDBRANCH  12  14
BRANCH  12  18
ATOM     17  C   UNL     1       7.627   7.534  17.612  0.00  0.00    +0.000 C 
ATOM     18  C   UNL     1       7.027   6.287  18.254  0.00  0.00    +0.000 C 
ENDBRANCH  12  18
ENDBRANCH   1  12
TORSDOF 3
ENDMDL
MODEL 9
REMARK VINA RESULT:      -6.7      1.651      2.306
REMARK  Name = 
REMARK  5 active torsions:
REMARK  status: ('A' for Active; 'I' for Inactive)
REMARK    1  A    between atoms: C_1  and  C_2
REMARK    2  A    between atoms: C_2  and  C_3
REMARK    3  A    between atoms: C_3  and  C_4
REMARK    4  A    between atoms: C_3  and  N_5
REMARK    5  A    between atoms: C_3  and  C_6
REMARK                            x       y       z     vdW  Elec       q    Type
REMARK                         _______ _______ _______ _____ _____    ______ ____
ROOT
ATOM      1  C   UNL     1       4.946   4.532  17.721  0.00  0.00    +0.000 A 
ATOM      2  N   UNL     1       4.418   3.414  17.303  0.00  0.00    +0.000 NA
ATOM      3  C   UNL     1       3.200   3.000  17.813  0.00  0.00    +0.000 A 
ATOM      4  O   UNL     1       2.664   1.942  17.497  0.00  0.00    +0.000 OA
ATOM      5  C   UNL     1       2.535   3.884  18.789  0.00  0.00    +0.000 A 
ATOM      6  C   UNL     1       3.128   5.019  19.149  0.00  0.00    +0.000 A 
ATOM      7  N   UNL     1       4.333   5.365  18.632  0.00  0.00    +0.000 N 
ATOM      8  C   UNL     1       2.320   5.779  20.138  0.00  0.00    +0.000 C 
ATOM      9  C   UNL     1       1.303   4.715  20.588  0.00  0.00    +0.000 C 
ATOM     10  C   UNL     1       1.245   3.657  19.475  0.00  0.00    +0.000 C 
ATOM     11  H   UNL     1       4.826   6.200  18.935  0.00  0.00    +0.000 HD
ENDROOT
BRANCH   1  12
ATOM     12  C   UNL     1       6.338   4.968  17.176  0.00  0.00    +0.000 C 
ATOM     13  C   UNL     1       6.535   4.419  15.753  0.00  0.00    +0.000 C 
BRANCH  12  14
ATOM     14  N   UNL     1       7.377   4.372  18.056  0.00  0.00    +0.000 NA
ATOM     15  H   UNL     1       7.851   3.633  17.533  0.00  0.00    +0.000 HD
ATOM     16  H   UNL     1       6.903   3.887  18.821  0.00  0.00    +0.000 HD
ENDBRANCH  12  14
BRANCH  12  18
ATOM     17  C   UNL     1       7.675   7.078  17.882  0.00  0.00    +0.000 C 
ATOM     18  C   UNL     1       6.462   6.507  17.156  0.00  0.00    +0.000 C 
ENDBRANCH  12  18
ENDBRANCH   1  12
TORSDOF 3
ENDMDL
