MODEL 1
REMARK VINA RESULT:      -7.3      0.000      0.000
REMARK  Name = 
REMARK  2 active torsions:
REMARK  status: ('A' for Active; 'I' for Inactive)
REMARK    1  A    between atoms: C_2  and  C_3
REMARK    2  A    between atoms: C_8  and  C_9
REMARK                            x       y       z     vdW  Elec       q    Type
REMARK                         _______ _______ _______ _____ _____    ______ ____
ROOT
ATOM      1  C   UNL     1       7.337   5.152  17.999  0.00  0.00    +0.000 C 
ATOM      2  O   UNL     1       8.051   4.420  17.321  0.00  0.00    +0.000 OA
ATOM      3  N   UNL     1       5.959   5.039  18.074  0.00  0.00    +0.000 N 
ATOM      4  C   UNL     1       5.333   3.876  17.461  0.00  0.00    +0.000 C 
ATOM      5  C   UNL     1       4.085   4.254  16.663  0.00  0.00    +0.000 C 
ATOM      6  C   UNL     1       3.083   5.096  17.479  0.00  0.00    +0.000 C 
ATOM      7  C   UNL     1       3.837   6.303  18.076  0.00  0.00    +0.000 C 
ATOM      8  C   UNL     1       5.073   5.888  18.874  0.00  0.00    +0.000 C 
ENDROOT
BRANCH   6   9
ATOM      9  C   UNL     1       2.228   4.339  18.493  0.00  0.00    +0.000 A 
ATOM     10  C   UNL     1       1.969   4.817  19.788  0.00  0.00    +0.000 A 
ATOM     11  C   UNL     1       1.240   4.063  20.711  0.00  0.00    +0.000 A 
ATOM     12  C   UNL     1       0.764   2.805  20.363  0.00  0.00    +0.000 A 
ATOM     13  C   UNL     1       1.014   2.302  19.091  0.00  0.00    +0.000 A 
ATOM     14  C   UNL     1       1.739   3.059  18.168  0.00  0.00    +0.000 A 
ENDBRANCH   6   9
BRANCH   1  16
ATOM     15  C   UNL     1       8.124   7.443  18.229  0.00  0.00    +0.000 C 
ATOM     16  C   UNL     1       7.956   6.242  18.791  0.00  0.00    +0.000 C 
ENDBRANCH   1  16
TORSDOF 2
ENDMDL
MODEL 2
REMARK VINA RESULT:      -7.2      0.585      1.324
REMARK  Name = 
REMARK  2 active torsions:
REMARK  status: ('A' for Active; 'I' for Inactive)
REMARK    1  A    between atoms: C_2  and  C_3
REMARK    2  A    between atoms: C_8  and  C_9
REMARK                            x       y       z     vdW  Elec       q    Type
REMARK                         _______ _______ _______ _____ _____    ______ ____
ROOT
ATOM      1  C   UNL     1       7.147   5.472  17.501  0.00  0.00    +0.000 C 
ATOM      2  O   UNL     1       7.812   4.794  16.724  0.00  0.00    +0.000 OA
ATOM      3  N   UNL     1       5.824   5.218  17.817  0.00  0.00    +0.000 N 
ATOM      4  C   UNL     1       5.235   3.972  17.347  0.00  0.00    +0.000 C 
ATOM      5  C   UNL     1       3.835   4.184  16.772  0.00  0.00    +0.000 C 
ATOM      6  C   UNL     1       2.900   4.947  17.732  0.00  0.00    +0.000 C 
ATOM      7  C   UNL     1       3.607   6.249  18.165  0.00  0.00    +0.000 C 
ATOM      8  C   UNL     1       4.999   5.999  18.742  0.00  0.00    +0.000 C 
ENDROOT
BRANCH   6   9
ATOM      9  C   UNL     1       2.321   4.144  18.895  0.00  0.00    +0.000 A 
ATOM     10  C   UNL     1       1.662   2.915  18.726  0.00  0.00    +0.000 A 
ATOM     11  C   UNL     1       1.084   2.243  19.806  0.00  0.00    +0.000 A 
ATOM     12  C   UNL     1       1.139   2.794  21.081  0.00  0.00    +0.000 A 
ATOM     13  C   UNL     1       1.777   4.014  21.276  0.00  0.00    +0.000 A 
ATOM     14  C   UNL     1       2.358   4.682  20.195  0.00  0.00    +0.000 A 
ENDBRANCH   6   9
BRANCH   1  16
ATOM     15  C   UNL     1       7.723   7.837  17.534  0.00  0.00    +0.000 C 
ATOM     16  C   UNL     1       7.768   6.652  18.151  0.00  0.00    +0.000 C 
ENDBRANCH   1  16
TORSDOF 2
ENDMDL
MODEL 3
REMARK VINA RESULT:      -6.9      1.222      1.330
REMARK  Name = 
REMARK  2 active torsions:
REMARK  status: ('A' for Active; 'I' for Inactive)
REMARK    1  A    between atoms: C_2  and  C_3
REMARK    2  A    between atoms: C_8  and  C_9
REMARK                            x       y       z     vdW  Elec       q    Type
REMARK                         _______ _______ _______ _____ _____    ______ ____
ROOT
ATOM      1  C   UNL     1       6.854   5.809  16.975  0.00  0.00    +0.000 C 
ATOM      2  O   UNL     1       7.618   5.139  16.287  0.00  0.00    +0.000 OA
ATOM      3  N   UNL     1       5.633   5.356  17.446  0.00  0.00    +0.000 N 
ATOM      4  C   UNL     1       5.314   3.945  17.273  0.00  0.00    +0.000 C 
ATOM      5  C   UNL     1       3.879   3.741  16.790  0.00  0.00    +0.000 C 
ATOM      6  C   UNL     1       2.840   4.473  17.664  0.00  0.00    +0.000 C 
ATOM      7  C   UNL     1       3.260   5.953  17.779  0.00  0.00    +0.000 C 
ATOM      8  C   UNL     1       4.696   6.121  18.272  0.00  0.00    +0.000 C 
ENDROOT
BRANCH   6   9
ATOM      9  C   UNL     1       2.502   3.822  19.003  0.00  0.00    +0.000 A 
ATOM     10  C   UNL     1       1.283   4.028  19.671  0.00  0.00    +0.000 A 
ATOM     11  C   UNL     1       1.037   3.471  20.929  0.00  0.00    +0.000 A 
ATOM     12  C   UNL     1       2.013   2.705  21.554  0.00  0.00    +0.000 A 
ATOM     13  C   UNL     1       3.232   2.492  20.921  0.00  0.00    +0.000 A 
ATOM     14  C   UNL     1       3.474   3.046  19.662  0.00  0.00    +0.000 A 
ENDBRANCH   6   9
BRANCH   1  16
ATOM     15  C   UNL     1       8.116   7.407  18.308  0.00  0.00    +0.000 C 
ATOM     16  C   UNL     1       7.226   7.199  17.333  0.00  0.00    +0.000 C 
ENDBRANCH   1  16
TORSDOF 2
ENDMDL
MODEL 4
REMARK VINA RESULT:      -6.9      1.150      1.347
REMARK  Name = 
REMARK  2 active torsions:
REMARK  status: ('A' for Active; 'I' for Inactive)
REMARK    1  A    between atoms: C_2  and  C_3
REMARK    2  A    between atoms: C_8  and  C_9
REMARK                            x       y       z     vdW  Elec       q    Type
REMARK                         _______ _______ _______ _____ _____    ______ ____
ROOT
ATOM      1  C   UNL     1       6.971   5.835  17.101  0.00  0.00    +0.000 C 
ATOM      2  O   UNL     1       7.759   5.139  16.468  0.00  0.00    +0.000 OA
ATOM      3  N   UNL     1       5.738   5.397  17.552  0.00  0.00    +0.000 N 
ATOM      4  C   UNL     1       5.430   3.978  17.434  0.00  0.00    +0.000 C 
ATOM      5  C   UNL     1       4.012   3.744  16.915  0.00  0.00    +0.000 C 
ATOM      6  C   UNL     1       2.943   4.509  17.722  0.00  0.00    +0.000 C 
ATOM      7  C   UNL     1       3.353   5.996  17.783  0.00  0.00    +0.000 C 
ATOM      8  C   UNL     1       4.772   6.193  18.314  0.00  0.00    +0.000 C 
ENDROOT
BRANCH   6   9
ATOM      9  C   UNL     1       2.564   3.917  19.078  0.00  0.00    +0.000 A 
ATOM     10  C   UNL     1       3.447   3.148  19.853  0.00  0.00    +0.000 A 
ATOM     11  C   UNL     1       3.042   2.564  21.056  0.00  0.00    +0.000 A 
ATOM     12  C   UNL     1       1.738   2.727  21.505  0.00  0.00    +0.000 A 
ATOM     13  C   UNL     1       0.839   3.476  20.754  0.00  0.00    +0.000 A 
ATOM     14  C   UNL     1       1.247   4.062  19.553  0.00  0.00    +0.000 A 
ENDBRANCH   6   9
BRANCH   1  16
ATOM     15  C   UNL     1       8.213   7.496  18.375  0.00  0.00    +0.000 C 
ATOM     16  C   UNL     1       7.326   7.242  17.407  0.00  0.00    +0.000 C 
ENDBRANCH   1  16
TORSDOF 2
ENDMDL
MODEL 5
REMARK VINA RESULT:      -6.7      2.508      5.899
REMARK  Name = 
REMARK  2 active torsions:
REMARK  status: ('A' for Active; 'I' for Inactive)
REMARK    1  A    between atoms: C_2  and  C_3
REMARK    2  A    between atoms: C_8  and  C_9
REMARK                            x       y       z     vdW  Elec       q    Type
REMARK                         _______ _______ _______ _____ _____    ______ ____
ROOT
ATOM      1  C   UNL     1       1.636   3.961  20.137  0.00  0.00    +0.000 C 
ATOM      2  O   UNL     1       0.635   4.634  20.363  0.00  0.00    +0.000 OA
ATOM      3  N   UNL     1       2.726   4.410  19.411  0.00  0.00    +0.000 N 
ATOM      4  C   UNL     1       2.773   5.819  19.046  0.00  0.00    +0.000 C 
ATOM      5  C   UNL     1       3.206   6.019  17.595  0.00  0.00    +0.000 C 
ATOM      6  C   UNL     1       4.517   5.283  17.253  0.00  0.00    +0.000 C 
ATOM      7  C   UNL     1       4.366   3.804  17.666  0.00  0.00    +0.000 C 
ATOM      8  C   UNL     1       3.940   3.641  19.125  0.00  0.00    +0.000 C 
ENDROOT
BRANCH   6   9
ATOM      9  C   UNL     1       5.808   5.933  17.747  0.00  0.00    +0.000 A 
ATOM     10  C   UNL     1       6.359   7.086  17.166  0.00  0.00    +0.000 A 
ATOM     11  C   UNL     1       7.579   7.611  17.600  0.00  0.00    +0.000 A 
ATOM     12  C   UNL     1       8.283   6.985  18.621  0.00  0.00    +0.000 A 
ATOM     13  C   UNL     1       7.767   5.836  19.209  0.00  0.00    +0.000 A 
ATOM     14  C   UNL     1       6.545   5.315  18.776  0.00  0.00    +0.000 A 
ENDBRANCH   6   9
BRANCH   1  16
ATOM     15  C   UNL     1       1.839   2.369  21.967  0.00  0.00    +0.000 C 
ATOM     16  C   UNL     1       1.711   2.572  20.652  0.00  0.00    +0.000 C 
ENDBRANCH   1  16
TORSDOF 2
ENDMDL
MODEL 6
REMARK VINA RESULT:      -6.5      2.407      5.974
REMARK  Name = 
REMARK  2 active torsions:
REMARK  status: ('A' for Active; 'I' for Inactive)
REMARK    1  A    between atoms: C_2  and  C_3
REMARK    2  A    between atoms: C_8  and  C_9
REMARK                            x       y       z     vdW  Elec       q    Type
REMARK                         _______ _______ _______ _____ _____    ______ ____
ROOT
ATOM      1  C   UNL     1       1.617   3.967  19.872  0.00  0.00    +0.000 C 
ATOM      2  O   UNL     1       0.782   4.584  20.525  0.00  0.00    +0.000 OA
ATOM      3  N   UNL     1       2.668   4.560  19.194  0.00  0.00    +0.000 N 
ATOM      4  C   UNL     1       2.910   5.980  19.414  0.00  0.00    +0.000 C 
ATOM      5  C   UNL     1       3.186   6.720  18.106  0.00  0.00    +0.000 C 
ATOM      6  C   UNL     1       4.298   6.061  17.266  0.00  0.00    +0.000 C 
ATOM      7  C   UNL     1       3.948   4.569  17.082  0.00  0.00    +0.000 C 
ATOM      8  C   UNL     1       3.686   3.858  18.409  0.00  0.00    +0.000 C 
ENDROOT
BRANCH   6   9
ATOM      9  C   UNL     1       5.733   6.305  17.729  0.00  0.00    +0.000 A 
ATOM     10  C   UNL     1       6.360   5.537  18.724  0.00  0.00    +0.000 A 
ATOM     11  C   UNL     1       7.650   5.835  19.170  0.00  0.00    +0.000 A 
ATOM     12  C   UNL     1       8.338   6.919  18.640  0.00  0.00    +0.000 A 
ATOM     13  C   UNL     1       7.739   7.703  17.661  0.00  0.00    +0.000 A 
ATOM     14  C   UNL     1       6.451   7.401  17.213  0.00  0.00    +0.000 A 
ENDBRANCH   6   9
BRANCH   1  16
ATOM     15  C   UNL     1       0.693   1.951  18.868  0.00  0.00    +0.000 C 
ATOM     16  C   UNL     1       1.516   2.490  19.773  0.00  0.00    +0.000 C 
ENDBRANCH   1  16
TORSDOF 2
ENDMDL
MODEL 7
REMARK VINA RESULT:      -6.5      2.083      2.958
REMARK  Name = 
REMARK  2 active torsions:
REMARK  status: ('A' for Active; 'I' for Inactive)
REMARK    1  A    between atoms: C_2  and  C_3
REMARK    2  A    between atoms: C_8  and  C_9
REMARK                            x       y       z     vdW  Elec       q    Type
REMARK                         _______ _______ _______ _____ _____    ______ ____
ROOT
ATOM      1  C   UNL     1       5.630   5.449  15.379  0.00  0.00    +0.000 C 
ATOM      2  O   UNL     1       5.381   6.453  14.720  0.00  0.00    +0.000 OA
ATOM      3  N   UNL     1       5.116   5.201  16.641  0.00  0.00    +0.000 N 
ATOM      4  C   UNL     1       4.078   6.089  17.144  0.00  0.00    +0.000 C 
ATOM      5  C   UNL     1       4.320   6.481  18.601  0.00  0.00    +0.000 C 
ATOM      6  C   UNL     1       4.545   5.264  19.521  0.00  0.00    +0.000 C 
ATOM      7  C   UNL     1       5.663   4.393  18.910  0.00  0.00    +0.000 C 
ATOM      8  C   UNL     1       5.384   4.014  17.456  0.00  0.00    +0.000 C 
ENDROOT
BRANCH   6   9
ATOM      9  C   UNL     1       3.299   4.476  19.920  0.00  0.00    +0.000 A 
ATOM     10  C   UNL     1       2.015   5.044  19.972  0.00  0.00    +0.000 A 
ATOM     11  C   UNL     1       0.909   4.310  20.409  0.00  0.00    +0.000 A 
ATOM     12  C   UNL     1       1.066   2.992  20.819  0.00  0.00    +0.000 A 
ATOM     13  C   UNL     1       2.326   2.406  20.787  0.00  0.00    +0.000 A 
ATOM     14  C   UNL     1       3.430   3.141  20.346  0.00  0.00    +0.000 A 
ENDBRANCH   6   9
BRANCH   1  16
ATOM     15  C   UNL     1       6.296   3.915  13.611  0.00  0.00    +0.000 C 
ATOM     16  C   UNL     1       6.543   4.422  14.822  0.00  0.00    +0.000 C 
ENDBRANCH   1  16
TORSDOF 2
ENDMDL
MODEL 8
REMARK VINA RESULT:      -6.5      2.514      4.112
REMARK  Name = 
REMARK  2 active torsions:
REMARK  status: ('A' for Active; 'I' for Inactive)
REMARK    1  A    between atoms: C_2  and  C_3
REMARK    2  A    between atoms: C_8  and  C_9
REMARK                            x       y       z     vdW  Elec       q    Type
REMARK                         _______ _______ _______ _____ _____    ______ ____
ROOT
ATOM      1  C   UNL     1       6.809   4.818  14.384  0.00  0.00    +0.000 C 
ATOM      2  O   UNL     1       7.874   5.370  14.128  0.00  0.00    +0.000 OA
ATOM      3  N   UNL     1       6.071   5.049  15.532  0.00  0.00    +0.000 N 
ATOM      4  C   UNL     1       6.483   6.142  16.402  0.00  0.00    +0.000 C 
ATOM      5  C   UNL     1       6.457   5.738  17.876  0.00  0.00    +0.000 C 
ATOM      6  C   UNL     1       5.110   5.123  18.307  0.00  0.00    +0.000 C 
ATOM      7  C   UNL     1       4.767   3.975  17.334  0.00  0.00    +0.000 C 
ATOM      8  C   UNL     1       4.794   4.416  15.871  0.00  0.00    +0.000 C 
ENDROOT
BRANCH   6   9
ATOM      9  C   UNL     1       3.961   6.102  18.536  0.00  0.00    +0.000 A 
ATOM     10  C   UNL     1       3.705   7.197  17.695  0.00  0.00    +0.000 A 
ATOM     11  C   UNL     1       2.687   8.111  17.977  0.00  0.00    +0.000 A 
ATOM     12  C   UNL     1       1.907   7.957  19.116  0.00  0.00    +0.000 A 
ATOM     13  C   UNL     1       2.143   6.887  19.972  0.00  0.00    +0.000 A 
ATOM     14  C   UNL     1       3.159   5.972  19.686  0.00  0.00    +0.000 A 
ENDBRANCH   6   9
BRANCH   1  16
ATOM     15  C   UNL     1       6.735   3.782  12.183  0.00  0.00    +0.000 C 
ATOM     16  C   UNL     1       6.255   3.827  13.430  0.00  0.00    +0.000 C 
ENDBRANCH   1  16
TORSDOF 2
ENDMDL
MODEL 9
REMARK VINA RESULT:      -6.4      2.168      3.472
REMARK  Name = 
REMARK  2 active torsions:
REMARK  status: ('A' for Active; 'I' for Inactive)
REMARK    1  A    between atoms: C_2  and  C_3
REMARK    2  A    between atoms: C_8  and  C_9
REMARK                            x       y       z     vdW  Elec       q    Type
REMARK                         _______ _______ _______ _____ _____    ______ ____
ROOT
ATOM      1  C   UNL     1       6.509   4.744  14.974  0.00  0.00    +0.000 C 
ATOM      2  O   UNL     1       7.559   5.365  14.850  0.00  0.00    +0.000 OA
ATOM      3  N   UNL     1       5.787   4.666  16.152  0.00  0.00    +0.000 N 
ATOM      4  C   UNL     1       6.194   5.515  17.263  0.00  0.00    +0.000 C 
ATOM      5  C   UNL     1       6.202   4.756  18.588  0.00  0.00    +0.000 C 
ATOM      6  C   UNL     1       4.874   4.023  18.869  0.00  0.00    +0.000 C 
ATOM      7  C   UNL     1       4.535   3.148  17.645  0.00  0.00    +0.000 C 
ATOM      8  C   UNL     1       4.528   3.940  16.339  0.00  0.00    +0.000 C 
ENDROOT
BRANCH   6   9
ATOM      9  C   UNL     1       3.711   4.889  19.350  0.00  0.00    +0.000 A 
ATOM     10  C   UNL     1       3.532   6.224  18.954  0.00  0.00    +0.000 A 
ATOM     11  C   UNL     1       2.495   7.006  19.470  0.00  0.00    +0.000 A 
ATOM     12  C   UNL     1       1.620   6.471  20.407  0.00  0.00    +0.000 A 
ATOM     13  C   UNL     1       1.778   5.155  20.825  0.00  0.00    +0.000 A 
ATOM     14  C   UNL     1       2.813   4.374  20.304  0.00  0.00    +0.000 A 
ENDBRANCH   6   9
BRANCH   1  16
ATOM     15  C   UNL     1       6.671   3.943  12.681  0.00  0.00    +0.000 C 
ATOM     16  C   UNL     1       5.956   4.011  13.809  0.00  0.00    +0.000 C 
ENDBRANCH   1  16
TORSDOF 2
ENDMDL
