MODEL 1
REMARK VINA RESULT:      -7.2      0.000      0.000
REMARK  Name = 
REMARK  3 active torsions:
REMARK  status: ('A' for Active; 'I' for Inactive)
REMARK    1  A    between atoms: C_1  and  N_2
REMARK    2  A    between atoms: C_4  and  N_5
REMARK    3  A    between atoms: C_8  and  C_9
REMARK                            x       y       z     vdW  Elec       q    Type
REMARK                         _______ _______ _______ _____ _____    ______ ____
ROOT
ATOM      1  C   UNL     1       6.446   4.022  13.690  0.00  0.00    +0.000 C 
ATOM      2  N   UNL     1       6.213   4.419  15.058  0.00  0.00    +0.000 N 
ATOM      3  C   UNL     1       7.054   4.300  16.118  0.00  0.00    +0.000 A 
ATOM      4  C   UNL     1       6.305   4.670  17.219  0.00  0.00    +0.000 A 
ATOM      5  C   UNL     1       5.022   5.014  16.727  0.00  0.00    +0.000 A 
ATOM      6  N   UNL     1       5.011   4.912  15.380  0.00  0.00    +0.000 NA
ENDROOT
BRANCH   5   7
ATOM      7  C   UNL     1       3.858   5.489  17.506  0.00  0.00    +0.000 C 
ATOM      8  O   UNL     1       3.776   6.677  17.811  0.00  0.00    +0.000 OA
ATOM      9  N   UNL     1       2.857   4.557  17.862  0.00  0.00    +0.000 N 
ATOM     10  C   UNL     1       1.621   5.062  18.449  0.00  0.00    +0.000 C 
ATOM     11  C   UNL     1       1.615   4.932  19.969  0.00  0.00    +0.000 C 
ATOM     12  C   UNL     1       1.282   3.530  20.475  0.00  0.00    +0.000 C 
ATOM     13  C   UNL     1       2.216   2.426  19.987  0.00  0.00    +0.000 C 
ATOM     14  C   UNL     1       2.113   2.189  18.484  0.00  0.00    +0.000 C 
ATOM     15  C   UNL     1       3.011   3.113  17.668  0.00  0.00    +0.000 C 
ENDBRANCH   5   7
BRANCH   4  16
ATOM     16  N   UNL     1       6.749   4.628  18.570  0.00  0.00    +0.000 N 
ATOM     17  O   UNL     1       7.898   5.034  18.787  0.00  0.00    +0.000 OA
ATOM     18  O   UNL     1       5.988   4.100  19.388  0.00  0.00    +0.000 OA
ENDBRANCH   4  16
TORSDOF 2
ENDMDL
MODEL 2
REMARK VINA RESULT:      -7.1      0.789      1.026
REMARK  Name = 
REMARK  3 active torsions:
REMARK  status: ('A' for Active; 'I' for Inactive)
REMARK    1  A    between atoms: C_1  and  N_2
REMARK    2  A    between atoms: C_4  and  N_5
REMARK    3  A    between atoms: C_8  and  C_9
REMARK                            x       y       z     vdW  Elec       q    Type
REMARK                         _______ _______ _______ _____ _____    ______ ____
ROOT
ATOM      1  C   UNL     1       6.333   3.884  13.602  0.00  0.00    +0.000 C 
ATOM      2  N   UNL     1       6.213   4.490  14.906  0.00  0.00    +0.000 N 
ATOM      3  C   UNL     1       7.197   4.730  15.811  0.00  0.00    +0.000 A 
ATOM      4  C   UNL     1       6.546   5.167  16.949  0.00  0.00    +0.000 A 
ATOM      5  C   UNL     1       5.165   5.176  16.635  0.00  0.00    +0.000 A 
ATOM      6  N   UNL     1       4.991   4.815  15.345  0.00  0.00    +0.000 NA
ENDROOT
BRANCH   5   7
ATOM      7  C   UNL     1       4.046   5.578  17.514  0.00  0.00    +0.000 C 
ATOM      8  O   UNL     1       3.806   6.772  17.684  0.00  0.00    +0.000 OA
ATOM      9  N   UNL     1       3.266   4.567  18.123  0.00  0.00    +0.000 N 
ATOM     10  C   UNL     1       2.048   4.962  18.820  0.00  0.00    +0.000 C 
ATOM     11  C   UNL     1       2.256   5.049  20.330  0.00  0.00    +0.000 C 
ATOM     12  C   UNL     1       2.228   3.699  21.044  0.00  0.00    +0.000 C 
ATOM     13  C   UNL     1       3.263   2.688  20.558  0.00  0.00    +0.000 C 
ATOM     14  C   UNL     1       3.012   2.228  19.127  0.00  0.00    +0.000 C 
ATOM     15  C   UNL     1       3.634   3.150  18.083  0.00  0.00    +0.000 C 
ENDBRANCH   5   7
BRANCH   4  16
ATOM     16  N   UNL     1       7.170   5.466  18.193  0.00  0.00    +0.000 N 
ATOM     17  O   UNL     1       6.999   4.649  19.107  0.00  0.00    +0.000 OA
ATOM     18  O   UNL     1       7.740   6.559  18.279  0.00  0.00    +0.000 OA
ENDBRANCH   4  16
TORSDOF 2
ENDMDL
MODEL 3
REMARK VINA RESULT:      -6.9      1.435      2.050
REMARK  Name = 
REMARK  3 active torsions:
REMARK  status: ('A' for Active; 'I' for Inactive)
REMARK    1  A    between atoms: C_1  and  N_2
REMARK    2  A    between atoms: C_4  and  N_5
REMARK    3  A    between atoms: C_8  and  C_9
REMARK                            x       y       z     vdW  Elec       q    Type
REMARK                         _______ _______ _______ _____ _____    ______ ____
ROOT
ATOM      1  C   UNL     1       5.935   3.640  13.683  0.00  0.00    +0.000 C 
ATOM      2  N   UNL     1       5.997   4.336  14.946  0.00  0.00    +0.000 N 
ATOM      3  C   UNL     1       6.739   5.429  15.263  0.00  0.00    +0.000 A 
ATOM      4  C   UNL     1       6.570   5.600  16.624  0.00  0.00    +0.000 A 
ATOM      5  C   UNL     1       5.693   4.572  17.046  0.00  0.00    +0.000 A 
ATOM      6  N   UNL     1       5.303   3.843  15.978  0.00  0.00    +0.000 NA
ENDROOT
BRANCH   5   7
ATOM      7  C   UNL     1       5.189   4.326  18.414  0.00  0.00    +0.000 C 
ATOM      8  O   UNL     1       5.978   4.019  19.306  0.00  0.00    +0.000 OA
ATOM      9  N   UNL     1       3.805   4.471  18.662  0.00  0.00    +0.000 N 
ATOM     10  C   UNL     1       3.343   4.427  20.044  0.00  0.00    +0.000 C 
ATOM     11  C   UNL     1       2.783   3.057  20.417  0.00  0.00    +0.000 C 
ATOM     12  C   UNL     1       1.355   2.813  19.933  0.00  0.00    +0.000 C 
ATOM     13  C   UNL     1       1.155   2.925  18.424  0.00  0.00    +0.000 C 
ATOM     14  C   UNL     1       1.364   4.344  17.906  0.00  0.00    +0.000 C 
ATOM     15  C   UNL     1       2.823   4.660  17.592  0.00  0.00    +0.000 C 
ENDBRANCH   5   7
BRANCH   4  16
ATOM     16  N   UNL     1       7.224   6.583  17.419  0.00  0.00    +0.000 N 
ATOM     17  O   UNL     1       7.915   6.164  18.357  0.00  0.00    +0.000 OA
ATOM     18  O   UNL     1       6.966   7.765  17.164  0.00  0.00    +0.000 OA
ENDBRANCH   4  16
TORSDOF 2
ENDMDL
MODEL 4
REMARK VINA RESULT:      -6.7      1.468      1.988
REMARK  Name = 
REMARK  3 active torsions:
REMARK  status: ('A' for Active; 'I' for Inactive)
REMARK    1  A    between atoms: C_1  and  N_2
REMARK    2  A    between atoms: C_4  and  N_5
REMARK    3  A    between atoms: C_8  and  C_9
REMARK                            x       y       z     vdW  Elec       q    Type
REMARK                         _______ _______ _______ _____ _____    ______ ____
ROOT
ATOM      1  C   UNL     1       6.272   3.876  14.107  0.00  0.00    +0.000 C 
ATOM      2  N   UNL     1       6.318   4.380  15.459  0.00  0.00    +0.000 N 
ATOM      3  C   UNL     1       7.221   5.235  16.003  0.00  0.00    +0.000 A 
ATOM      4  C   UNL     1       6.923   5.269  17.352  0.00  0.00    +0.000 A 
ATOM      5  C   UNL     1       5.810   4.413  17.533  0.00  0.00    +0.000 A 
ATOM      6  N   UNL     1       5.415   3.925  16.337  0.00  0.00    +0.000 NA
ENDROOT
BRANCH   5   7
ATOM      7  C   UNL     1       5.101   4.115  18.796  0.00  0.00    +0.000 C 
ATOM      8  O   UNL     1       5.716   3.608  19.732  0.00  0.00    +0.000 OA
ATOM      9  N   UNL     1       3.730   4.443  18.896  0.00  0.00    +0.000 N 
ATOM     10  C   UNL     1       3.088   4.337  20.200  0.00  0.00    +0.000 C 
ATOM     11  C   UNL     1       2.300   3.037  20.346  0.00  0.00    +0.000 C 
ATOM     12  C   UNL     1       0.929   3.060  19.674  0.00  0.00    +0.000 C 
ATOM     13  C   UNL     1       0.947   3.346  18.174  0.00  0.00    +0.000 C 
ATOM     14  C   UNL     1       1.416   4.761  17.851  0.00  0.00    +0.000 C 
ATOM     15  C   UNL     1       2.933   4.881  17.747  0.00  0.00    +0.000 C 
ENDBRANCH   5   7
BRANCH   4  16
ATOM     16  N   UNL     1       7.661   5.978  18.342  0.00  0.00    +0.000 N 
ATOM     17  O   UNL     1       7.762   7.202  18.183  0.00  0.00    +0.000 OA
ATOM     18  O   UNL     1       8.216   5.300  19.212  0.00  0.00    +0.000 OA
ENDBRANCH   4  16
TORSDOF 2
ENDMDL
MODEL 5
REMARK VINA RESULT:      -6.7      2.052      2.939
REMARK  Name = 
REMARK  3 active torsions:
REMARK  status: ('A' for Active; 'I' for Inactive)
REMARK    1  A    between atoms: C_1  and  N_2
REMARK    2  A    between atoms: C_4  and  N_5
REMARK    3  A    between atoms: C_8  and  C_9
REMARK                            x       y       z     vdW  Elec       q    Type
REMARK                         _______ _______ _______ _____ _____    ______ ____
ROOT
ATOM      1  C   UNL     1       8.330   5.757  19.718  0.00  0.00    +0.000 C 
ATOM      2  N   UNL     1       7.206   5.593  18.827  0.00  0.00    +0.000 N 
ATOM      3  C   UNL     1       7.204   5.624  17.469  0.00  0.00    +0.000 A 
ATOM      4  C   UNL     1       5.870   5.582  17.108  0.00  0.00    +0.000 A 
ATOM      5  C   UNL     1       5.135   5.511  18.315  0.00  0.00    +0.000 A 
ATOM      6  N   UNL     1       5.987   5.454  19.362  0.00  0.00    +0.000 NA
ENDROOT
BRANCH   5   7
ATOM      7  C   UNL     1       3.666   5.434  18.471  0.00  0.00    +0.000 C 
ATOM      8  O   UNL     1       2.977   6.418  18.215  0.00  0.00    +0.000 OA
ATOM      9  N   UNL     1       3.093   4.212  18.893  0.00  0.00    +0.000 N 
ATOM     10  C   UNL     1       1.642   4.079  18.850  0.00  0.00    +0.000 C 
ATOM     11  C   UNL     1       1.006   4.304  20.219  0.00  0.00    +0.000 C 
ATOM     12  C   UNL     1       1.088   3.098  21.152  0.00  0.00    +0.000 C 
ATOM     13  C   UNL     1       2.502   2.604  21.448  0.00  0.00    +0.000 C 
ATOM     14  C   UNL     1       3.194   2.026  20.219  0.00  0.00    +0.000 C 
ATOM     15  C   UNL     1       3.895   3.084  19.373  0.00  0.00    +0.000 C 
ENDBRANCH   5   7
BRANCH   4  16
ATOM     16  N   UNL     1       5.374   5.672  15.777  0.00  0.00    +0.000 N 
ATOM     17  O   UNL     1       5.247   4.605  15.162  0.00  0.00    +0.000 OA
ATOM     18  O   UNL     1       5.210   6.808  15.320  0.00  0.00    +0.000 OA
ENDBRANCH   4  16
TORSDOF 2
ENDMDL
MODEL 6
REMARK VINA RESULT:      -6.6      2.067      2.821
REMARK  Name = 
REMARK  3 active torsions:
REMARK  status: ('A' for Active; 'I' for Inactive)
REMARK    1  A    between atoms: C_1  and  N_2
REMARK    2  A    between atoms: C_4  and  N_5
REMARK    3  A    between atoms: C_8  and  C_9
REMARK                            x       y       z     vdW  Elec       q    Type
REMARK                         _______ _______ _______ _____ _____    ______ ____
ROOT
ATOM      1  C   UNL     1       7.029   4.716  15.533  0.00  0.00    +0.000 C 
ATOM      2  N   UNL     1       5.772   5.043  16.163  0.00  0.00    +0.000 N 
ATOM      3  C   UNL     1       5.399   6.223  16.721  0.00  0.00    +0.000 A 
ATOM      4  C   UNL     1       4.182   5.971  17.326  0.00  0.00    +0.000 A 
ATOM      5  C   UNL     1       3.887   4.610  17.068  0.00  0.00    +0.000 A 
ATOM      6  N   UNL     1       4.856   4.076  16.292  0.00  0.00    +0.000 NA
ENDROOT
BRANCH   5   7
ATOM      7  C   UNL     1       2.689   3.854  17.490  0.00  0.00    +0.000 C 
ATOM      8  O   UNL     1       1.658   3.929  16.825  0.00  0.00    +0.000 OA
ATOM      9  N   UNL     1       2.772   3.045  18.647  0.00  0.00    +0.000 N 
ATOM     10  C   UNL     1       1.660   2.149  18.944  0.00  0.00    +0.000 C 
ATOM     11  C   UNL     1       0.722   2.732  19.997  0.00  0.00    +0.000 C 
ATOM     12  C   UNL     1       1.224   2.583  21.432  0.00  0.00    +0.000 C 
ATOM     13  C   UNL     1       2.581   3.224  21.712  0.00  0.00    +0.000 C 
ATOM     14  C   UNL     1       3.721   2.538  20.968  0.00  0.00    +0.000 C 
ATOM     15  C   UNL     1       3.922   3.073  19.554  0.00  0.00    +0.000 C 
ENDBRANCH   5   7
BRANCH   4  16
ATOM     16  N   UNL     1       3.440   6.901  18.107  0.00  0.00    +0.000 N 
ATOM     17  O   UNL     1       3.169   6.557  19.265  0.00  0.00    +0.000 OA
ATOM     18  O   UNL     1       3.048   7.921  17.531  0.00  0.00    +0.000 OA
ENDBRANCH   4  16
TORSDOF 2
ENDMDL
MODEL 7
REMARK VINA RESULT:      -6.6      2.297      3.349
REMARK  Name = 
REMARK  3 active torsions:
REMARK  status: ('A' for Active; 'I' for Inactive)
REMARK    1  A    between atoms: C_1  and  N_2
REMARK    2  A    between atoms: C_4  and  N_5
REMARK    3  A    between atoms: C_8  and  C_9
REMARK                            x       y       z     vdW  Elec       q    Type
REMARK                         _______ _______ _______ _____ _____    ______ ____
ROOT
ATOM      1  C   UNL     1       8.331   5.614  19.879  0.00  0.00    +0.000 C 
ATOM      2  N   UNL     1       7.247   5.536  18.930  0.00  0.00    +0.000 N 
ATOM      3  C   UNL     1       6.805   6.502  18.083  0.00  0.00    +0.000 A 
ATOM      4  C   UNL     1       5.656   5.988  17.513  0.00  0.00    +0.000 A 
ATOM      5  C   UNL     1       5.486   4.695  18.063  0.00  0.00    +0.000 A 
ATOM      6  N   UNL     1       6.518   4.414  18.888  0.00  0.00    +0.000 NA
ENDROOT
BRANCH   5   7
ATOM      7  C   UNL     1       4.408   3.726  17.767  0.00  0.00    +0.000 C 
ATOM      8  O   UNL     1       4.235   3.347  16.610  0.00  0.00    +0.000 OA
ATOM      9  N   UNL     1       3.616   3.246  18.835  0.00  0.00    +0.000 N 
ATOM     10  C   UNL     1       2.696   2.147  18.572  0.00  0.00    +0.000 C 
ATOM     11  C   UNL     1       1.266   2.637  18.357  0.00  0.00    +0.000 C 
ATOM     12  C   UNL     1       0.515   2.956  19.648  0.00  0.00    +0.000 C 
ATOM     13  C   UNL     1       1.168   4.015  20.532  0.00  0.00    +0.000 C 
ATOM     14  C   UNL     1       2.500   3.555  21.116  0.00  0.00    +0.000 C 
ATOM     15  C   UNL     1       3.681   3.809  20.186  0.00  0.00    +0.000 C 
ENDBRANCH   5   7
BRANCH   4  16
ATOM     16  N   UNL     1       4.800   6.684  16.613  0.00  0.00    +0.000 N 
ATOM     17  O   UNL     1       5.163   6.729  15.430  0.00  0.00    +0.000 OA
ATOM     18  O   UNL     1       3.827   7.264  17.107  0.00  0.00    +0.000 OA
ENDBRANCH   4  16
TORSDOF 2
ENDMDL
MODEL 8
REMARK VINA RESULT:      -6.3      1.225      1.509
REMARK  Name = 
REMARK  3 active torsions:
REMARK  status: ('A' for Active; 'I' for Inactive)
REMARK    1  A    between atoms: C_1  and  N_2
REMARK    2  A    between atoms: C_4  and  N_5
REMARK    3  A    between atoms: C_8  and  C_9
REMARK                            x       y       z     vdW  Elec       q    Type
REMARK                         _______ _______ _______ _____ _____    ______ ____
ROOT
ATOM      1  C   UNL     1       6.838   4.613  13.911  0.00  0.00    +0.000 C 
ATOM      2  N   UNL     1       6.570   5.001  15.276  0.00  0.00    +0.000 N 
ATOM      3  C   UNL     1       7.119   4.497  16.411  0.00  0.00    +0.000 A 
ATOM      4  C   UNL     1       6.415   5.083  17.446  0.00  0.00    +0.000 A 
ATOM      5  C   UNL     1       5.466   5.943  16.842  0.00  0.00    +0.000 A 
ATOM      6  N   UNL     1       5.625   5.922  15.501  0.00  0.00    +0.000 NA
ENDROOT
BRANCH   5   7
ATOM      7  C   UNL     1       4.477   6.809  17.520  0.00  0.00    +0.000 C 
ATOM      8  O   UNL     1       4.728   8.000  17.688  0.00  0.00    +0.000 OA
ATOM      9  N   UNL     1       3.254   6.238  17.940  0.00  0.00    +0.000 N 
ATOM     10  C   UNL     1       2.206   7.131  18.422  0.00  0.00    +0.000 C 
ATOM     11  C   UNL     1       2.158   7.186  19.946  0.00  0.00    +0.000 C 
ATOM     12  C   UNL     1       1.444   6.001  20.593  0.00  0.00    +0.000 C 
ATOM     13  C   UNL     1       2.036   4.632  20.265  0.00  0.00    +0.000 C 
ATOM     14  C   UNL     1       1.876   4.259  18.795  0.00  0.00    +0.000 C 
ATOM     15  C   UNL     1       3.000   4.796  17.915  0.00  0.00    +0.000 C 
ENDBRANCH   5   7
BRANCH   4  16
ATOM     16  N   UNL     1       6.590   4.796  18.829  0.00  0.00    +0.000 N 
ATOM     17  O   UNL     1       7.513   5.388  19.404  0.00  0.00    +0.000 OA
ATOM     18  O   UNL     1       5.873   3.910  19.307  0.00  0.00    +0.000 OA
ENDBRANCH   4  16
TORSDOF 2
ENDMDL
MODEL 9
REMARK VINA RESULT:      -6.3      1.833      5.469
REMARK  Name = 
REMARK  3 active torsions:
REMARK  status: ('A' for Active; 'I' for Inactive)
REMARK    1  A    between atoms: C_1  and  N_2
REMARK    2  A    between atoms: C_4  and  N_5
REMARK    3  A    between atoms: C_8  and  C_9
REMARK                            x       y       z     vdW  Elec       q    Type
REMARK                         _______ _______ _______ _____ _____    ______ ____
ROOT
ATOM      1  C   UNL     1       1.566   2.526  21.025  0.00  0.00    +0.000 C 
ATOM      2  N   UNL     1       2.281   3.670  20.511  0.00  0.00    +0.000 N 
ATOM      3  C   UNL     1       1.783   4.892  20.190  0.00  0.00    +0.000 A 
ATOM      4  C   UNL     1       2.832   5.567  19.595  0.00  0.00    +0.000 A 
ATOM      5  C   UNL     1       3.935   4.680  19.615  0.00  0.00    +0.000 A 
ATOM      6  N   UNL     1       3.586   3.537  20.245  0.00  0.00    +0.000 NA
ENDROOT
BRANCH   5   7
ATOM      7  C   UNL     1       5.301   4.932  19.108  0.00  0.00    +0.000 C 
ATOM      8  O   UNL     1       6.094   5.575  19.794  0.00  0.00    +0.000 OA
ATOM      9  N   UNL     1       5.664   4.405  17.848  0.00  0.00    +0.000 N 
ATOM     10  C   UNL     1       7.063   4.481  17.444  0.00  0.00    +0.000 C 
ATOM     11  C   UNL     1       7.323   5.651  16.499  0.00  0.00    +0.000 C 
ATOM     12  C   UNL     1       6.920   5.385  15.050  0.00  0.00    +0.000 C 
ATOM     13  C   UNL     1       5.451   5.027  14.842  0.00  0.00    +0.000 C 
ATOM     14  C   UNL     1       5.078   3.685  15.463  0.00  0.00    +0.000 C 
ATOM     15  C   UNL     1       4.695   3.792  16.936  0.00  0.00    +0.000 C 
ENDBRANCH   5   7
BRANCH   4  16
ATOM     16  N   UNL     1       2.757   6.868  19.023  0.00  0.00    +0.000 N 
ATOM     17  O   UNL     1       2.202   7.740  19.705  0.00  0.00    +0.000 OA
ATOM     18  O   UNL     1       3.160   6.988  17.861  0.00  0.00    +0.000 OA
ENDBRANCH   4  16
TORSDOF 2
ENDMDL
