MODEL 1
REMARK VINA RESULT:      -7.0      0.000      0.000
REMARK  Name = 
REMARK  10 active torsions:
REMARK  status: ('A' for Active; 'I' for Inactive)
REMARK    1  A    between atoms: C_1  and  C_2
REMARK    2  A    between atoms: C_2  and  O_3
REMARK    3  A    between atoms: O_3  and  C_4
REMARK    4  A    between atoms: C_7  and  C_8
REMARK    5  A    between atoms: N_10  and  C_11
REMARK    6  A    between atoms: C_11  and  C_12
REMARK    7  A    between atoms: C_12  and  C_13
REMARK    8  A    between atoms: C_20  and  O_21
REMARK    9  A    between atoms: O_21  and  C_22
REMARK   10  A    between atoms: C_22  and  C_23
REMARK                            x       y       z     vdW  Elec       q    Type
REMARK                         _______ _______ _______ _____ _____    ______ ____
ROOT
ATOM      1  C   UNL     1       3.640   5.153  18.898  0.00  0.00    +0.000 A 
ATOM      2  C   UNL     1       3.845   5.918  17.738  0.00  0.00    +0.000 A 
ATOM      3  C   UNL     1       3.271   7.187  17.588  0.00  0.00    +0.000 A 
ATOM      4  C   UNL     1       2.401   7.693  18.559  0.00  0.00    +0.000 A 
ATOM      5  C   UNL     1       2.157   6.925  19.698  0.00  0.00    +0.000 A 
ATOM      6  C   UNL     1       2.761   5.667  19.886  0.00  0.00    +0.000 A 
ENDROOT
BRANCH   4   7
ATOM      7  C   UNL     1       1.834   9.064  18.360  0.00  0.00    +0.000 C 
ATOM      8  O   UNL     1       2.145   9.717  17.397  0.00  0.00    +0.000 OA
ATOM      9  N   UNL     1       0.921   9.495  19.314  0.00  0.00    +0.000 N 
ATOM     10  H   UNL     1       0.506   8.859  19.974  0.00  0.00    +0.000 HD
BRANCH   9  11
ATOM     11  C   UNL     1       0.280  10.801  19.158  0.00  0.00    +0.000 C 
BRANCH  11  12
ATOM     12  C   UNL     1      -1.231  10.790  19.451  0.00  0.00    +0.000 C 
BRANCH  12  13
ATOM     13  C   UNL     1      -2.118  10.704  18.220  0.00  0.00    +0.000 C 
ATOM     14  C   UNL     1      -1.820   9.922  17.162  0.00  0.00    +0.000 C 
ATOM     15  C   UNL     1      -2.633   9.865  15.902  0.00  0.00    +0.000 C 
ATOM     16  C   UNL     1      -3.621  11.022  15.779  0.00  0.00    +0.000 C 
ATOM     17  C   UNL     1      -4.347  11.254  17.098  0.00  0.00    +0.000 C 
ATOM     18  C   UNL     1      -3.364  11.565  18.231  0.00  0.00    +0.000 C 
ENDBRANCH  12  13
ENDBRANCH  11  12
ENDBRANCH   9  11
ENDBRANCH   4   7
BRANCH   1  19
ATOM     19  O   UNL     1       4.395   4.001  19.055  0.00  0.00    +0.000 OA
BRANCH  19  21
ATOM     20  C   UNL     1       3.432   1.948  18.155  0.00  0.00    +0.000 C 
ATOM     21  C   UNL     1       4.400   3.098  17.918  0.00  0.00    +0.000 C 
ENDBRANCH  19  21
ENDBRANCH   1  19
BRANCH   6  22
ATOM     22  O   UNL     1       2.443   5.168  21.142  0.00  0.00    +0.000 OA
BRANCH  22  23
ATOM     23  C   UNL     1       1.950   3.845  21.127  0.00  0.00    +0.000 C 
ATOM     24  C   UNL     1       0.769   3.586  20.216  0.00  0.00    +0.000 C 
ENDBRANCH  22  23
ENDBRANCH   6  22
TORSDOF 8
ENDMDL
MODEL 2
REMARK VINA RESULT:      -7.0      5.690      8.747
REMARK  Name = 
REMARK  10 active torsions:
REMARK  status: ('A' for Active; 'I' for Inactive)
REMARK    1  A    between atoms: C_1  and  C_2
REMARK    2  A    between atoms: C_2  and  O_3
REMARK    3  A    between atoms: O_3  and  C_4
REMARK    4  A    between atoms: C_7  and  C_8
REMARK    5  A    between atoms: N_10  and  C_11
REMARK    6  A    between atoms: C_11  and  C_12
REMARK    7  A    between atoms: C_12  and  C_13
REMARK    8  A    between atoms: C_20  and  O_21
REMARK    9  A    between atoms: O_21  and  C_22
REMARK   10  A    between atoms: C_22  and  C_23
REMARK                            x       y       z     vdW  Elec       q    Type
REMARK                         _______ _______ _______ _____ _____    ______ ____
ROOT
ATOM      1  C   UNL     1       4.079   4.104  17.229  0.00  0.00    +0.000 A 
ATOM      2  C   UNL     1       4.072   5.005  18.307  0.00  0.00    +0.000 A 
ATOM      3  C   UNL     1       5.150   5.867  18.547  0.00  0.00    +0.000 A 
ATOM      4  C   UNL     1       6.308   5.791  17.766  0.00  0.00    +0.000 A 
ATOM      5  C   UNL     1       6.344   4.872  16.716  0.00  0.00    +0.000 A 
ATOM      6  C   UNL     1       5.251   4.029  16.433  0.00  0.00    +0.000 A 
ENDROOT
BRANCH   4   7
ATOM      7  C   UNL     1       7.421   6.750  18.050  0.00  0.00    +0.000 C 
ATOM      8  O   UNL     1       8.222   6.512  18.919  0.00  0.00    +0.000 OA
ATOM      9  N   UNL     1       7.484   7.876  17.239  0.00  0.00    +0.000 N 
ATOM     10  H   UNL     1       6.955   7.943  16.387  0.00  0.00    +0.000 HD
BRANCH   9  11
ATOM     11  C   UNL     1       8.578   8.831  17.419  0.00  0.00    +0.000 C 
BRANCH  11  12
ATOM     12  C   UNL     1       8.222  10.016  18.335  0.00  0.00    +0.000 C 
BRANCH  12  13
ATOM     13  C   UNL     1       9.413  10.829  18.817  0.00  0.00    +0.000 C 
ATOM     14  C   UNL     1      10.324  11.355  17.973  0.00  0.00    +0.000 C 
ATOM     15  C   UNL     1      11.549  12.101  18.415  0.00  0.00    +0.000 C 
ATOM     16  C   UNL     1      11.860  11.907  19.897  0.00  0.00    +0.000 C 
ATOM     17  C   UNL     1      10.595  12.035  20.735  0.00  0.00    +0.000 C 
ATOM     18  C   UNL     1       9.540  11.006  20.316  0.00  0.00    +0.000 C 
ENDBRANCH  12  13
ENDBRANCH  11  12
ENDBRANCH   9  11
ENDBRANCH   4   7
BRANCH   1  19
ATOM     19  O   UNL     1       2.903   3.429  16.942  0.00  0.00    +0.000 OA
BRANCH  19  21
ATOM     20  C   UNL     1       1.341   2.506  18.575  0.00  0.00    +0.000 C 
ATOM     21  C   UNL     1       1.777   3.744  17.804  0.00  0.00    +0.000 C 
ENDBRANCH  19  21
ENDBRANCH   1  19
BRANCH   6  22
ATOM     22  O   UNL     1       5.500   3.298  15.279  0.00  0.00    +0.000 OA
BRANCH  22  23
ATOM     23  C   UNL     1       6.144   4.034  14.261  0.00  0.00    +0.000 C 
ATOM     24  C   UNL     1       5.954   3.525  12.849  0.00  0.00    +0.000 C 
ENDBRANCH  22  23
ENDBRANCH   6  22
TORSDOF 8
ENDMDL
MODEL 3
REMARK VINA RESULT:      -6.9      5.230      8.283
REMARK  Name = 
REMARK  10 active torsions:
REMARK  status: ('A' for Active; 'I' for Inactive)
REMARK    1  A    between atoms: C_1  and  C_2
REMARK    2  A    between atoms: C_2  and  O_3
REMARK    3  A    between atoms: O_3  and  C_4
REMARK    4  A    between atoms: C_7  and  C_8
REMARK    5  A    between atoms: N_10  and  C_11
REMARK    6  A    between atoms: C_11  and  C_12
REMARK    7  A    between atoms: C_12  and  C_13
REMARK    8  A    between atoms: C_20  and  O_21
REMARK    9  A    between atoms: O_21  and  C_22
REMARK   10  A    between atoms: C_22  and  C_23
REMARK                            x       y       z     vdW  Elec       q    Type
REMARK                         _______ _______ _______ _____ _____    ______ ____
ROOT
ATOM      1  C   UNL     1       3.659   4.292  18.611  0.00  0.00    +0.000 A 
ATOM      2  C   UNL     1       4.978   3.811  18.615  0.00  0.00    +0.000 A 
ATOM      3  C   UNL     1       6.049   4.607  18.185  0.00  0.00    +0.000 A 
ATOM      4  C   UNL     1       5.819   5.882  17.655  0.00  0.00    +0.000 A 
ATOM      5  C   UNL     1       4.507   6.356  17.608  0.00  0.00    +0.000 A 
ATOM      6  C   UNL     1       3.424   5.586  18.077  0.00  0.00    +0.000 A 
ENDROOT
BRANCH   4   7
ATOM      7  C   UNL     1       6.999   6.699  17.233  0.00  0.00    +0.000 C 
ATOM      8  O   UNL     1       7.609   6.415  16.233  0.00  0.00    +0.000 OA
ATOM      9  N   UNL     1       7.303   7.796  18.029  0.00  0.00    +0.000 N 
ATOM     10  H   UNL     1       6.658   8.145  18.716  0.00  0.00    +0.000 HD
BRANCH   9  11
ATOM     11  C   UNL     1       8.409   8.676  17.649  0.00  0.00    +0.000 C 
BRANCH  11  12
ATOM     12  C   UNL     1       8.194  10.148  18.043  0.00  0.00    +0.000 C 
BRANCH  12  13
ATOM     13  C   UNL     1       9.383  10.806  18.723  0.00  0.00    +0.000 C 
ATOM     14  C   UNL     1       9.433  11.018  20.054  0.00  0.00    +0.000 C 
ATOM     15  C   UNL     1      10.557  11.726  20.752  0.00  0.00    +0.000 C 
ATOM     16  C   UNL     1      11.460  12.496  19.792  0.00  0.00    +0.000 C 
ATOM     17  C   UNL     1      11.789  11.653  18.567  0.00  0.00    +0.000 C 
ATOM     18  C   UNL     1      10.518  11.237  17.818  0.00  0.00    +0.000 C 
ENDBRANCH  12  13
ENDBRANCH  11  12
ENDBRANCH   9  11
ENDBRANCH   4   7
BRANCH   1  19
ATOM     19  O   UNL     1       2.688   3.522  19.230  0.00  0.00    +0.000 OA
BRANCH  19  21
ATOM     20  C   UNL     1       1.884   2.950  21.463  0.00  0.00    +0.000 C 
ATOM     21  C   UNL     1       3.069   2.946  20.508  0.00  0.00    +0.000 C 
ENDBRANCH  19  21
ENDBRANCH   1  19
BRANCH   6  22
ATOM     22  O   UNL     1       2.253   6.329  18.021  0.00  0.00    +0.000 OA
BRANCH  22  23
ATOM     23  C   UNL     1       2.258   7.472  18.849  0.00  0.00    +0.000 C 
ATOM     24  C   UNL     1       1.886   7.246  20.299  0.00  0.00    +0.000 C 
ENDBRANCH  22  23
ENDBRANCH   6  22
TORSDOF 8
ENDMDL
MODEL 4
REMARK VINA RESULT:      -6.8      2.346      7.312
REMARK  Name = 
REMARK  10 active torsions:
REMARK  status: ('A' for Active; 'I' for Inactive)
REMARK    1  A    between atoms: C_1  and  C_2
REMARK    2  A    between atoms: C_2  and  O_3
REMARK    3  A    between atoms: O_3  and  C_4
REMARK    4  A    between atoms: C_7  and  C_8
REMARK    5  A    between atoms: N_10  and  C_11
REMARK    6  A    between atoms: C_11  and  C_12
REMARK    7  A    between atoms: C_12  and  C_13
REMARK    8  A    between atoms: C_20  and  O_21
REMARK    9  A    between atoms: O_21  and  C_22
REMARK   10  A    between atoms: C_22  and  C_23
REMARK                            x       y       z     vdW  Elec       q    Type
REMARK                         _______ _______ _______ _____ _____    ______ ____
ROOT
ATOM      1  C   UNL     1       1.304   9.515  19.432  0.00  0.00    +0.000 A 
ATOM      2  C   UNL     1       2.065   9.419  18.255  0.00  0.00    +0.000 A 
ATOM      3  C   UNL     1       2.769   8.252  17.933  0.00  0.00    +0.000 A 
ATOM      4  C   UNL     1       2.805   7.174  18.824  0.00  0.00    +0.000 A 
ATOM      5  C   UNL     1       2.086   7.273  20.016  0.00  0.00    +0.000 A 
ATOM      6  C   UNL     1       1.336   8.421  20.335  0.00  0.00    +0.000 A 
ENDROOT
BRANCH   4   7
ATOM      7  C   UNL     1       3.553   5.942  18.420  0.00  0.00    +0.000 C 
ATOM      8  O   UNL     1       3.373   5.449  17.336  0.00  0.00    +0.000 OA
ATOM      9  N   UNL     1       4.470   5.452  19.341  0.00  0.00    +0.000 N 
ATOM     10  H   UNL     1       4.769   5.997  20.131  0.00  0.00    +0.000 HD
BRANCH   9  11
ATOM     11  C   UNL     1       5.281   4.284  18.995  0.00  0.00    +0.000 C 
BRANCH  11  12
ATOM     12  C   UNL     1       4.839   2.990  19.702  0.00  0.00    +0.000 C 
BRANCH  12  13
ATOM     13  C   UNL     1       3.336   2.817  19.834  0.00  0.00    +0.000 C 
ATOM     14  C   UNL     1       2.556   2.419  18.807  0.00  0.00    +0.000 C 
ATOM     15  C   UNL     1       1.062   2.306  18.879  0.00  0.00    +0.000 C 
ATOM     16  C   UNL     1       0.470   3.017  20.094  0.00  0.00    +0.000 C 
ATOM     17  C   UNL     1       1.279   2.706  21.347  0.00  0.00    +0.000 C 
ATOM     18  C   UNL     1       2.741   3.138  21.189  0.00  0.00    +0.000 C 
ENDBRANCH  12  13
ENDBRANCH  11  12
ENDBRANCH   9  11
ENDBRANCH   4   7
BRANCH   1  19
ATOM     19  O   UNL     1       0.483  10.621  19.583  0.00  0.00    +0.000 OA
BRANCH  19  21
ATOM     20  C   UNL     1      -1.726  11.656  19.494  0.00  0.00    +0.000 C 
ATOM     21  C   UNL     1      -0.871  10.467  19.081  0.00  0.00    +0.000 C 
ENDBRANCH  19  21
ENDBRANCH   1  19
BRANCH   6  22
ATOM     22  O   UNL     1       0.631   8.217  21.514  0.00  0.00    +0.000 OA
BRANCH  22  23
ATOM     23  C   UNL     1       0.744   9.276  22.441  0.00  0.00    +0.000 C 
ATOM     24  C   UNL     1      -0.555   9.803  23.012  0.00  0.00    +0.000 C 
ENDBRANCH  22  23
ENDBRANCH   6  22
TORSDOF 8
ENDMDL
MODEL 5
REMARK VINA RESULT:      -6.7      6.068      8.933
REMARK  Name = 
REMARK  10 active torsions:
REMARK  status: ('A' for Active; 'I' for Inactive)
REMARK    1  A    between atoms: C_1  and  C_2
REMARK    2  A    between atoms: C_2  and  O_3
REMARK    3  A    between atoms: O_3  and  C_4
REMARK    4  A    between atoms: C_7  and  C_8
REMARK    5  A    between atoms: N_10  and  C_11
REMARK    6  A    between atoms: C_11  and  C_12
REMARK    7  A    between atoms: C_12  and  C_13
REMARK    8  A    between atoms: C_20  and  O_21
REMARK    9  A    between atoms: O_21  and  C_22
REMARK   10  A    between atoms: C_22  and  C_23
REMARK                            x       y       z     vdW  Elec       q    Type
REMARK                         _______ _______ _______ _____ _____    ______ ____
ROOT
ATOM      1  C   UNL     1       5.809   4.142  14.912  0.00  0.00    +0.000 A 
ATOM      2  C   UNL     1       6.883   4.989  14.595  0.00  0.00    +0.000 A 
ATOM      3  C   UNL     1       7.458   5.831  15.557  0.00  0.00    +0.000 A 
ATOM      4  C   UNL     1       6.918   5.913  16.844  0.00  0.00    +0.000 A 
ATOM      5  C   UNL     1       5.824   5.105  17.160  0.00  0.00    +0.000 A 
ATOM      6  C   UNL     1       5.261   4.221  16.218  0.00  0.00    +0.000 A 
ENDROOT
BRANCH   4   7
ATOM      7  C   UNL     1       7.585   6.810  17.839  0.00  0.00    +0.000 C 
ATOM      8  O   UNL     1       8.024   6.359  18.867  0.00  0.00    +0.000 OA
ATOM      9  N   UNL     1       7.694   8.148  17.483  0.00  0.00    +0.000 N 
ATOM     10  H   UNL     1       7.531   8.459  16.541  0.00  0.00    +0.000 HD
BRANCH   9  11
ATOM     11  C   UNL     1       8.385   9.076  18.379  0.00  0.00    +0.000 C 
BRANCH  11  12
ATOM     12  C   UNL     1       8.824  10.385  17.699  0.00  0.00    +0.000 C 
BRANCH  12  13
ATOM     13  C   UNL     1       9.947  11.125  18.405  0.00  0.00    +0.000 C 
ATOM     14  C   UNL     1      10.913  11.789  17.738  0.00  0.00    +0.000 C 
ATOM     15  C   UNL     1      12.076  12.471  18.398  0.00  0.00    +0.000 C 
ATOM     16  C   UNL     1      12.265  12.048  19.853  0.00  0.00    +0.000 C 
ATOM     17  C   UNL     1      10.930  12.026  20.586  0.00  0.00    +0.000 C 
ATOM     18  C   UNL     1       9.942  11.064  19.919  0.00  0.00    +0.000 C 
ENDBRANCH  12  13
ENDBRANCH  11  12
ENDBRANCH   9  11
ENDBRANCH   4   7
BRANCH   1  19
ATOM     19  O   UNL     1       5.425   3.204  13.966  0.00  0.00    +0.000 OA
BRANCH  19  21
ATOM     20  C   UNL     1       4.607   3.326  11.670  0.00  0.00    +0.000 C 
ATOM     21  C   UNL     1       5.801   3.508  12.597  0.00  0.00    +0.000 C 
ENDBRANCH  19  21
ENDBRANCH   1  19
BRANCH   6  22
ATOM     22  O   UNL     1       4.266   3.459  16.817  0.00  0.00    +0.000 OA
BRANCH  22  23
ATOM     23  C   UNL     1       3.205   4.220  17.352  0.00  0.00    +0.000 C 
ATOM     24  C   UNL     1       2.572   3.682  18.617  0.00  0.00    +0.000 C 
ENDBRANCH  22  23
ENDBRANCH   6  22
TORSDOF 8
ENDMDL
MODEL 6
REMARK VINA RESULT:      -6.7      1.016      1.626
REMARK  Name = 
REMARK  10 active torsions:
REMARK  status: ('A' for Active; 'I' for Inactive)
REMARK    1  A    between atoms: C_1  and  C_2
REMARK    2  A    between atoms: C_2  and  O_3
REMARK    3  A    between atoms: O_3  and  C_4
REMARK    4  A    between atoms: C_7  and  C_8
REMARK    5  A    between atoms: N_10  and  C_11
REMARK    6  A    between atoms: C_11  and  C_12
REMARK    7  A    between atoms: C_12  and  C_13
REMARK    8  A    between atoms: C_20  and  O_21
REMARK    9  A    between atoms: O_21  and  C_22
REMARK   10  A    between atoms: C_22  and  C_23
REMARK                            x       y       z     vdW  Elec       q    Type
REMARK                         _______ _______ _______ _____ _____    ______ ____
ROOT
ATOM      1  C   UNL     1       4.265   5.351  18.590  0.00  0.00    +0.000 A 
ATOM      2  C   UNL     1       4.465   6.287  17.562  0.00  0.00    +0.000 A 
ATOM      3  C   UNL     1       3.700   7.458  17.480  0.00  0.00    +0.000 A 
ATOM      4  C   UNL     1       2.650   7.685  18.376  0.00  0.00    +0.000 A 
ATOM      5  C   UNL     1       2.414   6.742  19.378  0.00  0.00    +0.000 A 
ATOM      6  C   UNL     1       3.203   5.581  19.502  0.00  0.00    +0.000 A 
ENDROOT
BRANCH   4   7
ATOM      7  C   UNL     1       1.879   8.962  18.259  0.00  0.00    +0.000 C 
ATOM      8  O   UNL     1       1.865   9.571  17.219  0.00  0.00    +0.000 OA
ATOM      9  N   UNL     1       1.171   9.358  19.387  0.00  0.00    +0.000 N 
ATOM     10  H   UNL     1       1.012   8.732  20.157  0.00  0.00    +0.000 HD
BRANCH   9  11
ATOM     11  C   UNL     1       0.348  10.567  19.331  0.00  0.00    +0.000 C 
BRANCH  11  12
ATOM     12  C   UNL     1      -1.148  10.312  19.591  0.00  0.00    +0.000 C 
BRANCH  12  13
ATOM     13  C   UNL     1      -2.057  10.593  18.407  0.00  0.00    +0.000 C 
ATOM     14  C   UNL     1      -3.122  11.417  18.487  0.00  0.00    +0.000 C 
ATOM     15  C   UNL     1      -4.082  11.665  17.361  0.00  0.00    +0.000 C 
ATOM     16  C   UNL     1      -3.958  10.638  16.238  0.00  0.00    +0.000 C 
ATOM     17  C   UNL     1      -2.495  10.386  15.897  0.00  0.00    +0.000 C 
ATOM     18  C   UNL     1      -1.717   9.878  17.116  0.00  0.00    +0.000 C 
ENDBRANCH  12  13
ENDBRANCH  11  12
ENDBRANCH   9  11
ENDBRANCH   4   7
BRANCH   1  19
ATOM     19  O   UNL     1       5.186   4.323  18.717  0.00  0.00    +0.000 OA
BRANCH  19  21
ATOM     20  C   UNL     1       7.505   4.840  18.156  0.00  0.00    +0.000 C 
ATOM     21  C   UNL     1       6.189   4.250  17.668  0.00  0.00    +0.000 C 
ENDBRANCH  19  21
ENDBRANCH   1  19
BRANCH   6  22
ATOM     22  O   UNL     1       2.834   4.875  20.639  0.00  0.00    +0.000 OA
BRANCH  22  23
ATOM     23  C   UNL     1       1.475   4.493  20.662  0.00  0.00    +0.000 C 
ATOM     24  C   UNL     1       1.110   3.280  19.833  0.00  0.00    +0.000 C 
ENDBRANCH  22  23
ENDBRANCH   6  22
TORSDOF 8
ENDMDL
MODEL 7
REMARK VINA RESULT:      -6.7      1.451      2.757
REMARK  Name = 
REMARK  10 active torsions:
REMARK  status: ('A' for Active; 'I' for Inactive)
REMARK    1  A    between atoms: C_1  and  C_2
REMARK    2  A    between atoms: C_2  and  O_3
REMARK    3  A    between atoms: O_3  and  C_4
REMARK    4  A    between atoms: C_7  and  C_8
REMARK    5  A    between atoms: N_10  and  C_11
REMARK    6  A    between atoms: C_11  and  C_12
REMARK    7  A    between atoms: C_12  and  C_13
REMARK    8  A    between atoms: C_20  and  O_21
REMARK    9  A    between atoms: O_21  and  C_22
REMARK   10  A    between atoms: C_22  and  C_23
REMARK                            x       y       z     vdW  Elec       q    Type
REMARK                         _______ _______ _______ _____ _____    ______ ____
ROOT
ATOM      1  C   UNL     1       3.712   5.003  17.802  0.00  0.00    +0.000 A 
ATOM      2  C   UNL     1       2.508   5.278  18.471  0.00  0.00    +0.000 A 
ATOM      3  C   UNL     1       1.988   6.577  18.537  0.00  0.00    +0.000 A 
ATOM      4  C   UNL     1       2.704   7.657  18.009  0.00  0.00    +0.000 A 
ATOM      5  C   UNL     1       3.922   7.402  17.376  0.00  0.00    +0.000 A 
ATOM      6  C   UNL     1       4.438   6.096  17.262  0.00  0.00    +0.000 A 
ENDROOT
BRANCH   4   7
ATOM      7  C   UNL     1       2.093   9.021  18.085  0.00  0.00    +0.000 C 
ATOM      8  O   UNL     1       2.349   9.850  17.250  0.00  0.00    +0.000 OA
ATOM      9  N   UNL     1       1.206   9.238  19.132  0.00  0.00    +0.000 N 
ATOM     10  H   UNL     1       0.835   8.479  19.676  0.00  0.00    +0.000 HD
BRANCH   9  11
ATOM     11  C   UNL     1       0.524  10.528  19.241  0.00  0.00    +0.000 C 
BRANCH  11  12
ATOM     12  C   UNL     1      -0.980  10.412  19.546  0.00  0.00    +0.000 C 
BRANCH  12  13
ATOM     13  C   UNL     1      -1.886  10.515  18.331  0.00  0.00    +0.000 C 
ATOM     14  C   UNL     1      -1.679   9.801  17.206  0.00  0.00    +0.000 C 
ATOM     15  C   UNL     1      -2.509   9.927  15.962  0.00  0.00    +0.000 C 
ATOM     16  C   UNL     1      -3.380  11.181  15.956  0.00  0.00    +0.000 C 
ATOM     17  C   UNL     1      -4.064  11.370  17.303  0.00  0.00    +0.000 C 
ATOM     18  C   UNL     1      -3.041  11.489  18.438  0.00  0.00    +0.000 C 
ENDBRANCH  12  13
ENDBRANCH  11  12
ENDBRANCH   9  11
ENDBRANCH   4   7
BRANCH   1  19
ATOM     19  O   UNL     1       4.058   3.674  17.612  0.00  0.00    +0.000 OA
BRANCH  19  21
ATOM     20  C   UNL     1       3.255   1.580  18.576  0.00  0.00    +0.000 C 
ATOM     21  C   UNL     1       2.951   2.733  17.629  0.00  0.00    +0.000 C 
ENDBRANCH  19  21
ENDBRANCH   1  19
BRANCH   6  22
ATOM     22  O   UNL     1       5.596   6.107  16.496  0.00  0.00    +0.000 OA
BRANCH  22  23
ATOM     23  C   UNL     1       5.428   5.588  15.194  0.00  0.00    +0.000 C 
ATOM     24  C   UNL     1       6.281   4.389  14.841  0.00  0.00    +0.000 C 
ENDBRANCH  22  23
ENDBRANCH   6  22
TORSDOF 8
ENDMDL
MODEL 8
REMARK VINA RESULT:      -6.7      2.902      7.324
REMARK  Name = 
REMARK  10 active torsions:
REMARK  status: ('A' for Active; 'I' for Inactive)
REMARK    1  A    between atoms: C_1  and  C_2
REMARK    2  A    between atoms: C_2  and  O_3
REMARK    3  A    between atoms: O_3  and  C_4
REMARK    4  A    between atoms: C_7  and  C_8
REMARK    5  A    between atoms: N_10  and  C_11
REMARK    6  A    between atoms: C_11  and  C_12
REMARK    7  A    between atoms: C_12  and  C_13
REMARK    8  A    between atoms: C_20  and  O_21
REMARK    9  A    between atoms: O_21  and  C_22
REMARK   10  A    between atoms: C_22  and  C_23
REMARK                            x       y       z     vdW  Elec       q    Type
REMARK                         _______ _______ _______ _____ _____    ______ ____
ROOT
ATOM      1  C   UNL     1       1.395   9.104  19.111  0.00  0.00    +0.000 A 
ATOM      2  C   UNL     1       2.022   8.936  17.866  0.00  0.00    +0.000 A 
ATOM      3  C   UNL     1       2.829   7.822  17.598  0.00  0.00    +0.000 A 
ATOM      4  C   UNL     1       3.105   6.886  18.600  0.00  0.00    +0.000 A 
ATOM      5  C   UNL     1       2.520   7.063  19.855  0.00  0.00    +0.000 A 
ATOM      6  C   UNL     1       1.669   8.153  20.128  0.00  0.00    +0.000 A 
ENDROOT
BRANCH   4   7
ATOM      7  C   UNL     1       3.954   5.703  18.254  0.00  0.00    +0.000 C 
ATOM      8  O   UNL     1       5.015   5.536  18.800  0.00  0.00    +0.000 OA
ATOM      9  N   UNL     1       3.427   4.821  17.319  0.00  0.00    +0.000 N 
ATOM     10  H   UNL     1       2.459   4.853  17.050  0.00  0.00    +0.000 HD
BRANCH   9  11
ATOM     11  C   UNL     1       4.174   3.612  16.972  0.00  0.00    +0.000 C 
BRANCH  11  12
ATOM     12  C   UNL     1       3.669   2.344  17.685  0.00  0.00    +0.000 C 
BRANCH  12  13
ATOM     13  C   UNL     1       2.791   2.602  18.897  0.00  0.00    +0.000 C 
ATOM     14  C   UNL     1       1.459   2.795  18.802  0.00  0.00    +0.000 C 
ATOM     15  C   UNL     1       0.570   3.121  19.967  0.00  0.00    +0.000 C 
ATOM     16  C   UNL     1       1.350   3.567  21.202  0.00  0.00    +0.000 C 
ATOM     17  C   UNL     1       2.548   2.656  21.440  0.00  0.00    +0.000 C 
ATOM     18  C   UNL     1       3.495   2.653  20.236  0.00  0.00    +0.000 C 
ENDBRANCH  12  13
ENDBRANCH  11  12
ENDBRANCH   9  11
ENDBRANCH   4   7
BRANCH   1  19
ATOM     19  O   UNL     1       0.461  10.121  19.233  0.00  0.00    +0.000 OA
BRANCH  19  21
ATOM     20  C   UNL     1      -0.094  12.284  20.217  0.00  0.00    +0.000 C 
ATOM     21  C   UNL     1       0.997  11.419  19.603  0.00  0.00    +0.000 C 
ENDBRANCH  19  21
ENDBRANCH   1  19
BRANCH   6  22
ATOM     22  O   UNL     1       1.136   8.032  21.404  0.00  0.00    +0.000 OA
BRANCH  22  23
ATOM     23  C   UNL     1      -0.186   8.514  21.521  0.00  0.00    +0.000 C 
ATOM     24  C   UNL     1      -0.468   9.400  22.716  0.00  0.00    +0.000 C 
ENDBRANCH  22  23
ENDBRANCH   6  22
TORSDOF 8
ENDMDL
MODEL 9
REMARK VINA RESULT:      -6.6      6.519      8.850
REMARK  Name = 
REMARK  10 active torsions:
REMARK  status: ('A' for Active; 'I' for Inactive)
REMARK    1  A    between atoms: C_1  and  C_2
REMARK    2  A    between atoms: C_2  and  O_3
REMARK    3  A    between atoms: O_3  and  C_4
REMARK    4  A    between atoms: C_7  and  C_8
REMARK    5  A    between atoms: N_10  and  C_11
REMARK    6  A    between atoms: C_11  and  C_12
REMARK    7  A    between atoms: C_12  and  C_13
REMARK    8  A    between atoms: C_20  and  O_21
REMARK    9  A    between atoms: O_21  and  C_22
REMARK   10  A    between atoms: C_22  and  C_23
REMARK                            x       y       z     vdW  Elec       q    Type
REMARK                         _______ _______ _______ _____ _____    ______ ____
ROOT
ATOM      1  C   UNL     1       5.600   4.131  14.889  0.00  0.00    +0.000 A 
ATOM      2  C   UNL     1       6.774   4.863  14.646  0.00  0.00    +0.000 A 
ATOM      3  C   UNL     1       7.371   5.641  15.646  0.00  0.00    +0.000 A 
ATOM      4  C   UNL     1       6.761   5.780  16.898  0.00  0.00    +0.000 A 
ATOM      5  C   UNL     1       5.572   5.090  17.139  0.00  0.00    +0.000 A 
ATOM      6  C   UNL     1       4.982   4.267  16.159  0.00  0.00    +0.000 A 
ENDROOT
BRANCH   4   7
ATOM      7  C   UNL     1       7.453   6.605  17.938  0.00  0.00    +0.000 C 
ATOM      8  O   UNL     1       7.729   6.126  19.009  0.00  0.00    +0.000 OA
ATOM      9  N   UNL     1       7.778   7.905  17.574  0.00  0.00    +0.000 N 
ATOM     10  H   UNL     1       7.747   8.209  16.616  0.00  0.00    +0.000 HD
BRANCH   9  11
ATOM     11  C   UNL     1       8.506   8.755  18.517  0.00  0.00    +0.000 C 
BRANCH  11  12
ATOM     12  C   UNL     1       8.603  10.227  18.080  0.00  0.00    +0.000 C 
BRANCH  12  13
ATOM     13  C   UNL     1       9.701  11.024  18.763  0.00  0.00    +0.000 C 
ATOM     14  C   UNL     1       9.697  11.283  20.087  0.00  0.00    +0.000 C 
ATOM     15  C   UNL     1      10.725  12.124  20.784  0.00  0.00    +0.000 C 
ATOM     16  C   UNL     1      11.570  12.951  19.818  0.00  0.00    +0.000 C 
ATOM     17  C   UNL     1      12.012  12.107  18.631  0.00  0.00    +0.000 C 
ATOM     18  C   UNL     1      10.810  11.539  17.869  0.00  0.00    +0.000 C 
ENDBRANCH  12  13
ENDBRANCH  11  12
ENDBRANCH   9  11
ENDBRANCH   4   7
BRANCH   1  19
ATOM     19  O   UNL     1       5.183   3.236  13.916  0.00  0.00    +0.000 OA
BRANCH  19  21
ATOM     20  C   UNL     1       4.527   3.194  11.565  0.00  0.00    +0.000 C 
ATOM     21  C   UNL     1       5.624   3.533  12.565  0.00  0.00    +0.000 C 
ENDBRANCH  19  21
ENDBRANCH   1  19
BRANCH   6  22
ATOM     22  O   UNL     1       3.878   3.613  16.689  0.00  0.00    +0.000 OA
BRANCH  22  23
ATOM     23  C   UNL     1       4.006   3.288  18.057  0.00  0.00    +0.000 C 
ATOM     24  C   UNL     1       2.739   2.847  18.757  0.00  0.00    +0.000 C 
ENDBRANCH  22  23
ENDBRANCH   6  22
TORSDOF 8
ENDMDL
