MODEL 1
REMARK VINA RESULT:      -7.8      0.000      0.000
REMARK  Name = 
REMARK  4 active torsions:
REMARK  status: ('A' for Active; 'I' for Inactive)
REMARK    1  A    between atoms: C_1  and  C_2
REMARK    2  A    between atoms: C_5  and  C_6
REMARK    3  A    between atoms: N_16  and  C_17
REMARK    4  A    between atoms: C_17  and  C_18
REMARK                            x       y       z     vdW  Elec       q    Type
REMARK                         _______ _______ _______ _____ _____    ______ ____
ROOT
ATOM      1  C   UNL     1       1.429   8.400  19.868  0.00  0.00    +0.000 C 
ATOM      2  O   UNL     1       1.485   9.426  19.181  0.00  0.00    +0.000 OA
ATOM      3  N   UNL     1       1.877   7.180  19.374  0.00  0.00    +0.000 N 
ATOM      4  C   UNL     1       2.582   7.171  18.101  0.00  0.00    +0.000 C 
ATOM      5  C   UNL     1       3.909   6.442  18.259  0.00  0.00    +0.000 C 
ATOM      6  C   UNL     1       3.736   4.994  18.789  0.00  0.00    +0.000 C 
ATOM      7  C   UNL     1       3.066   4.051  17.766  0.00  0.00    +0.000 C 
ATOM      8  C   UNL     1       3.887   3.884  16.495  0.00  0.00    +0.000 C 
ATOM      9  C   UNL     1       5.389   3.755  16.679  0.00  0.00    +0.000 C 
ATOM     10  O   UNL     1       6.086   3.334  15.756  0.00  0.00    +0.000 OA
ATOM     11  N   UNL     1       5.913   4.311  17.835  0.00  0.00    +0.000 N 
ATOM     12  C   UNL     1       5.128   4.397  19.062  0.00  0.00    +0.000 C 
ATOM     13  C   UNL     1       2.904   5.047  20.099  0.00  0.00    +0.000 C 
ATOM     14  C   UNL     1       1.615   5.867  19.961  0.00  0.00    +0.000 C 
ENDROOT
BRANCH   1  19
ATOM     15  C   UNL     1      -1.301  10.636  23.369  0.00  0.00    +0.000 C 
ATOM     16  C   UNL     1      -0.203   9.901  22.677  0.00  0.00    +0.000 C 
ATOM     17  N   UNL     1       0.981   9.753  23.174  0.00  0.00    +0.000 NA
ATOM     18  O   UNL     1       1.739   9.054  22.202  0.00  0.00    +0.000 OA
ATOM     19  C   UNL     1       0.830   8.454  21.273  0.00  0.00    +0.000 C 
ATOM     20  C   UNL     1      -0.400   9.336  21.325  0.00  0.00    +0.000 C 
ENDBRANCH   1  19
BRANCH  11  21
ATOM     21  C   UNL     1       7.323   4.675  17.870  0.00  0.00    +0.000 C 
BRANCH  21  22
ATOM     22  C   UNL     1       7.592   6.146  17.943  0.00  0.00    +0.000 A 
ATOM     23  C   UNL     1       8.329   6.697  18.997  0.00  0.00    +0.000 A 
ATOM     24  C   UNL     1       8.596   8.060  19.015  0.00  0.00    +0.000 A 
ATOM     25  C   UNL     1       8.112   8.835  17.975  0.00  0.00    +0.000 A 
ATOM     26  N   UNL     1       7.393   8.343  16.942  0.00  0.00    +0.000 NA
ATOM     27  C   UNL     1       7.152   7.013  16.951  0.00  0.00    +0.000 A 
ENDBRANCH  21  22
ENDBRANCH  11  21
TORSDOF 3
ENDMDL
MODEL 2
REMARK VINA RESULT:      -7.6      1.517      1.715
REMARK  Name = 
REMARK  4 active torsions:
REMARK  status: ('A' for Active; 'I' for Inactive)
REMARK    1  A    between atoms: C_1  and  C_2
REMARK    2  A    between atoms: C_5  and  C_6
REMARK    3  A    between atoms: N_16  and  C_17
REMARK    4  A    between atoms: C_17  and  C_18
REMARK                            x       y       z     vdW  Elec       q    Type
REMARK                         _______ _______ _______ _____ _____    ______ ____
ROOT
ATOM      1  C   UNL     1       1.418   9.876  19.551  0.00  0.00    +0.000 C 
ATOM      2  O   UNL     1       1.639  10.619  18.589  0.00  0.00    +0.000 OA
ATOM      3  N   UNL     1       1.491   8.493  19.422  0.00  0.00    +0.000 N 
ATOM      4  C   UNL     1       2.014   7.946  18.180  0.00  0.00    +0.000 C 
ATOM      5  C   UNL     1       3.132   6.960  18.488  0.00  0.00    +0.000 C 
ATOM      6  C   UNL     1       2.676   5.815  19.430  0.00  0.00    +0.000 C 
ATOM      7  C   UNL     1       1.678   4.843  18.763  0.00  0.00    +0.000 C 
ATOM      8  C   UNL     1       2.274   4.120  17.564  0.00  0.00    +0.000 C 
ATOM      9  C   UNL     1       3.710   3.647  17.713  0.00  0.00    +0.000 C 
ATOM     10  O   UNL     1       4.167   2.818  16.926  0.00  0.00    +0.000 OA
ATOM     11  N   UNL     1       4.489   4.337  18.627  0.00  0.00    +0.000 N 
ATOM     12  C   UNL     1       3.902   4.964  19.807  0.00  0.00    +0.000 C 
ATOM     13  C   UNL     1       2.045   6.447  20.701  0.00  0.00    +0.000 C 
ATOM     14  C   UNL     1       0.988   7.512  20.382  0.00  0.00    +0.000 C 
ENDROOT
BRANCH   1  19
ATOM     15  C   UNL     1      -1.845  12.143  22.539  0.00  0.00    +0.000 C 
ATOM     16  C   UNL     1      -0.584  11.767  21.837  0.00  0.00    +0.000 C 
ATOM     17  N   UNL     1       0.463  12.525  21.793  0.00  0.00    +0.000 NA
ATOM     18  O   UNL     1       1.418  11.846  20.997  0.00  0.00    +0.000 OA
ATOM     19  C   UNL     1       1.023  10.473  20.902  0.00  0.00    +0.000 C 
ATOM     20  C   UNL     1      -0.480  10.498  21.086  0.00  0.00    +0.000 C 
ENDBRANCH   1  19
BRANCH  11  21
ATOM     21  C   UNL     1       5.939   4.304  18.491  0.00  0.00    +0.000 C 
BRANCH  21  22
ATOM     22  C   UNL     1       6.573   5.624  18.180  0.00  0.00    +0.000 A 
ATOM     23  C   UNL     1       7.629   6.121  18.949  0.00  0.00    +0.000 A 
ATOM     24  C   UNL     1       8.223   7.331  18.610  0.00  0.00    +0.000 A 
ATOM     25  C   UNL     1       7.736   8.012  17.508  0.00  0.00    +0.000 A 
ATOM     26  N   UNL     1       6.715   7.569  16.742  0.00  0.00    +0.000 NA
ATOM     27  C   UNL     1       6.159   6.388  17.095  0.00  0.00    +0.000 A 
ENDBRANCH  21  22
ENDBRANCH  11  21
TORSDOF 3
ENDMDL
MODEL 3
REMARK VINA RESULT:      -7.1      3.980      9.260
REMARK  Name = 
REMARK  4 active torsions:
REMARK  status: ('A' for Active; 'I' for Inactive)
REMARK    1  A    between atoms: C_1  and  C_2
REMARK    2  A    between atoms: C_5  and  C_6
REMARK    3  A    between atoms: N_16  and  C_17
REMARK    4  A    between atoms: C_17  and  C_18
REMARK                            x       y       z     vdW  Elec       q    Type
REMARK                         _______ _______ _______ _____ _____    ______ ____
ROOT
ATOM      1  C   UNL     1       2.748   6.562  18.580  0.00  0.00    +0.000 C 
ATOM      2  O   UNL     1       3.289   6.478  17.472  0.00  0.00    +0.000 OA
ATOM      3  N   UNL     1       2.267   7.777  19.054  0.00  0.00    +0.000 N 
ATOM      4  C   UNL     1       2.246   8.911  18.142  0.00  0.00    +0.000 C 
ATOM      5  C   UNL     1       0.853   9.524  18.122  0.00  0.00    +0.000 C 
ATOM      6  C   UNL     1       0.371   9.958  19.530  0.00  0.00    +0.000 C 
ATOM      7  C   UNL     1       1.153  11.165  20.093  0.00  0.00    +0.000 C 
ATOM      8  C   UNL     1       0.991  12.417  19.245  0.00  0.00    +0.000 C 
ATOM      9  C   UNL     1      -0.402  12.685  18.703  0.00  0.00    +0.000 C 
ATOM     10  O   UNL     1      -0.686  13.798  18.263  0.00  0.00    +0.000 OA
ATOM     11  N   UNL     1      -1.225  11.580  18.561  0.00  0.00    +0.000 N 
ATOM     12  C   UNL     1      -1.095  10.417  19.433  0.00  0.00    +0.000 C 
ATOM     13  C   UNL     1       0.494   8.742  20.488  0.00  0.00    +0.000 C 
ATOM     14  C   UNL     1       1.871   8.067  20.431  0.00  0.00    +0.000 C 
ENDROOT
BRANCH   1  19
ATOM     15  C   UNL     1       4.369   2.123  20.120  0.00  0.00    +0.000 C 
ATOM     16  C   UNL     1       3.481   3.234  19.672  0.00  0.00    +0.000 C 
ATOM     17  N   UNL     1       2.275   3.056  19.242  0.00  0.00    +0.000 NA
ATOM     18  O   UNL     1       1.790   4.333  18.867  0.00  0.00    +0.000 OA
ATOM     19  C   UNL     1       2.631   5.323  19.468  0.00  0.00    +0.000 C 
ATOM     20  C   UNL     1       3.966   4.630  19.643  0.00  0.00    +0.000 C 
ENDBRANCH   1  19
BRANCH  11  21
ATOM     21  C   UNL     1      -2.341  11.641  17.626  0.00  0.00    +0.000 C 
BRANCH  21  22
ATOM     22  C   UNL     1      -3.696  11.640  18.263  0.00  0.00    +0.000 A 
ATOM     23  C   UNL     1      -4.748  10.890  17.727  0.00  0.00    +0.000 A 
ATOM     24  C   UNL     1      -5.983  10.877  18.363  0.00  0.00    +0.000 A 
ATOM     25  C   UNL     1      -6.130  11.621  19.521  0.00  0.00    +0.000 A 
ATOM     26  N   UNL     1      -5.141  12.362  20.068  0.00  0.00    +0.000 NA
ATOM     27  C   UNL     1      -3.951  12.353  19.428  0.00  0.00    +0.000 A 
ENDBRANCH  21  22
ENDBRANCH  11  21
TORSDOF 3
ENDMDL
MODEL 4
REMARK VINA RESULT:      -6.9      2.917      7.771
REMARK  Name = 
REMARK  4 active torsions:
REMARK  status: ('A' for Active; 'I' for Inactive)
REMARK    1  A    between atoms: C_1  and  C_2
REMARK    2  A    between atoms: C_5  and  C_6
REMARK    3  A    between atoms: N_16  and  C_17
REMARK    4  A    between atoms: C_17  and  C_18
REMARK                            x       y       z     vdW  Elec       q    Type
REMARK                         _______ _______ _______ _____ _____    ______ ____
ROOT
ATOM      1  C   UNL     1       6.780   5.024  16.064  0.00  0.00    +0.000 C 
ATOM      2  O   UNL     1       7.796   5.482  16.597  0.00  0.00    +0.000 OA
ATOM      3  N   UNL     1       5.814   4.360  16.811  0.00  0.00    +0.000 N 
ATOM      4  C   UNL     1       5.936   4.376  18.262  0.00  0.00    +0.000 C 
ATOM      5  C   UNL     1       4.629   4.853  18.878  0.00  0.00    +0.000 C 
ATOM      6  C   UNL     1       3.415   3.988  18.450  0.00  0.00    +0.000 C 
ATOM      7  C   UNL     1       3.450   2.561  19.041  0.00  0.00    +0.000 C 
ATOM      8  C   UNL     1       3.392   2.554  20.562  0.00  0.00    +0.000 C 
ATOM      9  C   UNL     1       2.437   3.548  21.201  0.00  0.00    +0.000 C 
ATOM     10  O   UNL     1       2.115   3.416  22.381  0.00  0.00    +0.000 OA
ATOM     11  N   UNL     1       2.133   4.672  20.451  0.00  0.00    +0.000 N 
ATOM     12  C   UNL     1       2.129   4.636  18.992  0.00  0.00    +0.000 C 
ATOM     13  C   UNL     1       3.378   3.928  16.899  0.00  0.00    +0.000 C 
ATOM     14  C   UNL     1       4.727   3.541  16.278  0.00  0.00    +0.000 C 
ENDROOT
BRANCH   1  19
ATOM     15  C   UNL     1       6.808   3.116  11.474  0.00  0.00    +0.000 C 
ATOM     16  C   UNL     1       7.011   4.032  12.633  0.00  0.00    +0.000 C 
ATOM     17  N   UNL     1       7.843   5.021  12.625  0.00  0.00    +0.000 NA
ATOM     18  O   UNL     1       7.783   5.607  13.914  0.00  0.00    +0.000 OA
ATOM     19  C   UNL     1       6.584   5.155  14.553  0.00  0.00    +0.000 C 
ATOM     20  C   UNL     1       6.292   3.818  13.907  0.00  0.00    +0.000 C 
ENDBRANCH   1  19
BRANCH  11  21
ATOM     21  C   UNL     1       1.658   5.871  21.130  0.00  0.00    +0.000 C 
BRANCH  21  22
ATOM     22  C   UNL     1       1.685   7.117  20.300  0.00  0.00    +0.000 A 
ATOM     23  C   UNL     1       2.307   7.141  19.049  0.00  0.00    +0.000 A 
ATOM     24  C   UNL     1       2.280   8.301  18.284  0.00  0.00    +0.000 A 
ATOM     25  C   UNL     1       1.630   9.409  18.801  0.00  0.00    +0.000 A 
ATOM     26  N   UNL     1       1.021   9.429  20.007  0.00  0.00    +0.000 NA
ATOM     27  C   UNL     1       1.063   8.284  20.726  0.00  0.00    +0.000 A 
ENDBRANCH  21  22
ENDBRANCH  11  21
TORSDOF 3
ENDMDL
MODEL 5
REMARK VINA RESULT:      -6.7      2.148      2.619
REMARK  Name = 
REMARK  4 active torsions:
REMARK  status: ('A' for Active; 'I' for Inactive)
REMARK    1  A    between atoms: C_1  and  C_2
REMARK    2  A    between atoms: C_5  and  C_6
REMARK    3  A    between atoms: N_16  and  C_17
REMARK    4  A    between atoms: C_17  and  C_18
REMARK                            x       y       z     vdW  Elec       q    Type
REMARK                         _______ _______ _______ _____ _____    ______ ____
ROOT
ATOM      1  C   UNL     1       1.720  10.333  18.610  0.00  0.00    +0.000 C 
ATOM      2  O   UNL     1       2.010  10.850  17.526  0.00  0.00    +0.000 OA
ATOM      3  N   UNL     1       1.654   8.952  18.752  0.00  0.00    +0.000 N 
ATOM      4  C   UNL     1       2.115   8.124  17.647  0.00  0.00    +0.000 C 
ATOM      5  C   UNL     1       3.129   7.112  18.157  0.00  0.00    +0.000 C 
ATOM      6  C   UNL     1       2.566   6.223  19.296  0.00  0.00    +0.000 C 
ATOM      7  C   UNL     1       1.472   5.243  18.816  0.00  0.00    +0.000 C 
ATOM      8  C   UNL     1       1.988   4.245  17.788  0.00  0.00    +0.000 C 
ATOM      9  C   UNL     1       3.370   3.671  18.047  0.00  0.00    +0.000 C 
ATOM     10  O   UNL     1       3.738   2.664  17.443  0.00  0.00    +0.000 OA
ATOM     11  N   UNL     1       4.218   4.445  18.822  0.00  0.00    +0.000 N 
ATOM     12  C   UNL     1       3.702   5.344  19.849  0.00  0.00    +0.000 C 
ATOM     13  C   UNL     1       2.007   7.148  20.411  0.00  0.00    +0.000 C 
ATOM     14  C   UNL     1       1.061   8.231  19.877  0.00  0.00    +0.000 C 
ENDROOT
BRANCH   1  19
ATOM     15  C   UNL     1      -1.169  13.633  20.949  0.00  0.00    +0.000 C 
ATOM     16  C   UNL     1       0.025  12.922  20.409  0.00  0.00    +0.000 C 
ATOM     17  N   UNL     1       1.196  13.460  20.315  0.00  0.00    +0.000 NA
ATOM     18  O   UNL     1       2.036  12.492  19.710  0.00  0.00    +0.000 OA
ATOM     19  C   UNL     1       1.393  11.217  19.814  0.00  0.00    +0.000 C 
ATOM     20  C   UNL     1      -0.084  11.543  19.885  0.00  0.00    +0.000 C 
ENDBRANCH   1  19
BRANCH  11  21
ATOM     21  C   UNL     1       5.657   4.243  18.716  0.00  0.00    +0.000 C 
BRANCH  21  22
ATOM     22  C   UNL     1       6.439   5.464  18.343  0.00  0.00    +0.000 A 
ATOM     23  C   UNL     1       6.083   6.242  17.237  0.00  0.00    +0.000 A 
ATOM     24  C   UNL     1       6.804   7.392  16.939  0.00  0.00    +0.000 A 
ATOM     25  C   UNL     1       7.867   7.728  17.760  0.00  0.00    +0.000 A 
ATOM     26  N   UNL     1       8.246   7.002  18.834  0.00  0.00    +0.000 NA
ATOM     27  C   UNL     1       7.524   5.890  19.099  0.00  0.00    +0.000 A 
ENDBRANCH  21  22
ENDBRANCH  11  21
TORSDOF 3
ENDMDL
MODEL 6
REMARK VINA RESULT:      -6.6      2.405      2.872
REMARK  Name = 
REMARK  4 active torsions:
REMARK  status: ('A' for Active; 'I' for Inactive)
REMARK    1  A    between atoms: C_1  and  C_2
REMARK    2  A    between atoms: C_5  and  C_6
REMARK    3  A    between atoms: N_16  and  C_17
REMARK    4  A    between atoms: C_17  and  C_18
REMARK                            x       y       z     vdW  Elec       q    Type
REMARK                         _______ _______ _______ _____ _____    ______ ____
ROOT
ATOM      1  C   UNL     1       1.275  10.174  19.515  0.00  0.00    +0.000 C 
ATOM      2  O   UNL     1       1.414  10.791  18.454  0.00  0.00    +0.000 OA
ATOM      3  N   UNL     1       1.285   8.784  19.545  0.00  0.00    +0.000 N 
ATOM      4  C   UNL     1       1.648   8.073  18.328  0.00  0.00    +0.000 C 
ATOM      5  C   UNL     1       2.757   7.077  18.632  0.00  0.00    +0.000 C 
ATOM      6  C   UNL     1       2.369   6.071  19.746  0.00  0.00    +0.000 C 
ATOM      7  C   UNL     1       1.270   5.077  19.309  0.00  0.00    +0.000 C 
ATOM      8  C   UNL     1       1.704   4.194  18.148  0.00  0.00    +0.000 C 
ATOM      9  C   UNL     1       3.130   3.674  18.199  0.00  0.00    +0.000 C 
ATOM     10  O   UNL     1       3.468   2.740  17.473  0.00  0.00    +0.000 OA
ATOM     11  N   UNL     1       4.029   4.426  18.937  0.00  0.00    +0.000 N 
ATOM     12  C   UNL     1       3.598   5.211  20.090  0.00  0.00    +0.000 C 
ATOM     13  C   UNL     1       1.905   6.873  20.992  0.00  0.00    +0.000 C 
ATOM     14  C   UNL     1       0.857   7.945  20.663  0.00  0.00    +0.000 C 
ENDROOT
BRANCH   1  19
ATOM     15  C   UNL     1      -1.360  13.284  22.360  0.00  0.00    +0.000 C 
ATOM     16  C   UNL     1      -0.225  12.605  21.672  0.00  0.00    +0.000 C 
ATOM     17  N   UNL     1       0.952  13.125  21.552  0.00  0.00    +0.000 NA
ATOM     18  O   UNL     1       1.723  12.205  20.798  0.00  0.00    +0.000 OA
ATOM     19  C   UNL     1       1.053  10.940  20.820  0.00  0.00    +0.000 C 
ATOM     20  C   UNL     1      -0.407  11.288  21.024  0.00  0.00    +0.000 C 
ENDBRANCH   1  19
BRANCH  11  21
ATOM     21  C   UNL     1       5.453   4.308  18.654  0.00  0.00    +0.000 C 
BRANCH  21  22
ATOM     22  C   UNL     1       5.857   4.723  17.273  0.00  0.00    +0.000 A 
ATOM     23  C   UNL     1       5.002   5.478  16.464  0.00  0.00    +0.000 A 
ATOM     24  C   UNL     1       5.421   5.882  15.202  0.00  0.00    +0.000 A 
ATOM     25  C   UNL     1       6.689   5.514  14.786  0.00  0.00    +0.000 A 
ATOM     26  N   UNL     1       7.543   4.782  15.534  0.00  0.00    +0.000 NA
ATOM     27  C   UNL     1       7.107   4.406  16.758  0.00  0.00    +0.000 A 
ENDBRANCH  21  22
ENDBRANCH  11  21
TORSDOF 3
ENDMDL
MODEL 7
REMARK VINA RESULT:      -6.5      3.749      8.694
REMARK  Name = 
REMARK  4 active torsions:
REMARK  status: ('A' for Active; 'I' for Inactive)
REMARK    1  A    between atoms: C_1  and  C_2
REMARK    2  A    between atoms: C_5  and  C_6
REMARK    3  A    between atoms: N_16  and  C_17
REMARK    4  A    between atoms: C_17  and  C_18
REMARK                            x       y       z     vdW  Elec       q    Type
REMARK                         _______ _______ _______ _____ _____    ______ ____
ROOT
ATOM      1  C   UNL     1       2.361   6.808  18.715  0.00  0.00    +0.000 C 
ATOM      2  O   UNL     1       2.713   6.798  17.531  0.00  0.00    +0.000 OA
ATOM      3  N   UNL     1       1.991   7.991  19.345  0.00  0.00    +0.000 N 
ATOM      4  C   UNL     1       1.849   9.188  18.529  0.00  0.00    +0.000 C 
ATOM      5  C   UNL     1       0.486   9.817  18.779  0.00  0.00    +0.000 C 
ATOM      6  C   UNL     1       0.248  10.153  20.275  0.00  0.00    +0.000 C 
ATOM      7  C   UNL     1       1.139  11.307  20.785  0.00  0.00    +0.000 C 
ATOM      8  C   UNL     1       0.872  12.619  20.064  0.00  0.00    +0.000 C 
ATOM      9  C   UNL     1      -0.585  12.942  19.777  0.00  0.00    +0.000 C 
ATOM     10  O   UNL     1      -0.909  14.087  19.467  0.00  0.00    +0.000 OA
ATOM     11  N   UNL     1      -1.445  11.859  19.694  0.00  0.00    +0.000 N 
ATOM     12  C   UNL     1      -1.203  10.635  20.450  0.00  0.00    +0.000 C 
ATOM     13  C   UNL     1       0.496   8.869  21.112  0.00  0.00    +0.000 C 
ATOM     14  C   UNL     1       1.830   8.185  20.784  0.00  0.00    +0.000 C 
ENDROOT
BRANCH   1  19
ATOM     15  C   UNL     1       4.364   2.428  19.943  0.00  0.00    +0.000 C 
ATOM     16  C   UNL     1       3.381   3.488  19.579  0.00  0.00    +0.000 C 
ATOM     17  N   UNL     1       2.187   3.239  19.152  0.00  0.00    +0.000 NA
ATOM     18  O   UNL     1       1.592   4.493  18.867  0.00  0.00    +0.000 OA
ATOM     19  C   UNL     1       2.360   5.509  19.522  0.00  0.00    +0.000 C 
ATOM     20  C   UNL     1       3.749   4.919  19.635  0.00  0.00    +0.000 C 
ENDBRANCH   1  19
BRANCH  11  21
ATOM     21  C   UNL     1      -2.696  12.002  18.960  0.00  0.00    +0.000 C 
BRANCH  21  22
ATOM     22  C   UNL     1      -2.798  11.168  17.721  0.00  0.00    +0.000 A 
ATOM     23  C   UNL     1      -3.268   9.852  17.770  0.00  0.00    +0.000 A 
ATOM     24  C   UNL     1      -3.390   9.117  16.597  0.00  0.00    +0.000 A 
ATOM     25  C   UNL     1      -3.031   9.723  15.405  0.00  0.00    +0.000 A 
ATOM     26  N   UNL     1      -2.567  10.989  15.316  0.00  0.00    +0.000 NA
ATOM     27  C   UNL     1      -2.463  11.679  16.474  0.00  0.00    +0.000 A 
ENDBRANCH  21  22
ENDBRANCH  11  21
TORSDOF 3
ENDMDL
MODEL 8
REMARK VINA RESULT:      -6.3      6.579      8.785
REMARK  Name = 
REMARK  4 active torsions:
REMARK  status: ('A' for Active; 'I' for Inactive)
REMARK    1  A    between atoms: C_1  and  C_2
REMARK    2  A    between atoms: C_5  and  C_6
REMARK    3  A    between atoms: N_16  and  C_17
REMARK    4  A    between atoms: C_17  and  C_18
REMARK                            x       y       z     vdW  Elec       q    Type
REMARK                         _______ _______ _______ _____ _____    ______ ____
ROOT
ATOM      1  C   UNL     1       3.554  14.543  21.571  0.00  0.00    +0.000 C 
ATOM      2  O   UNL     1       3.893  14.302  22.735  0.00  0.00    +0.000 OA
ATOM      3  N   UNL     1       4.406  15.210  20.699  0.00  0.00    +0.000 N 
ATOM      4  C   UNL     1       5.776  15.453  21.127  0.00  0.00    +0.000 C 
ATOM      5  C   UNL     1       6.740  14.940  20.067  0.00  0.00    +0.000 C 
ATOM      6  C   UNL     1       6.491  15.576  18.675  0.00  0.00    +0.000 C 
ATOM      7  C   UNL     1       6.854  17.077  18.621  0.00  0.00    +0.000 C 
ATOM      8  C   UNL     1       8.331  17.333  18.887  0.00  0.00    +0.000 C 
ATOM      9  C   UNL     1       9.306  16.359  18.249  0.00  0.00    +0.000 C 
ATOM     10  O   UNL     1      10.499  16.650  18.169  0.00  0.00    +0.000 OA
ATOM     11  N   UNL     1       8.811  15.098  17.964  0.00  0.00    +0.000 N 
ATOM     12  C   UNL     1       7.403  14.887  17.644  0.00  0.00    +0.000 C 
ATOM     13  C   UNL     1       4.998  15.370  18.300  0.00  0.00    +0.000 C 
ATOM     14  C   UNL     1       4.033  15.798  19.413  0.00  0.00    +0.000 C 
ENDROOT
BRANCH   1  19
ATOM     15  C   UNL     1      -1.306  13.822  22.329  0.00  0.00    +0.000 C 
ATOM     16  C   UNL     1       0.106  13.637  21.886  0.00  0.00    +0.000 C 
ATOM     17  N   UNL     1       0.589  12.504  21.493  0.00  0.00    +0.000 NA
ATOM     18  O   UNL     1       1.959  12.727  21.212  0.00  0.00    +0.000 OA
ATOM     19  C   UNL     1       2.163  14.138  21.082  0.00  0.00    +0.000 C 
ATOM     20  C   UNL     1       1.069  14.758  21.925  0.00  0.00    +0.000 C 
ENDBRANCH   1  19
BRANCH  11  21
ATOM     21  C   UNL     1       9.741  13.984  17.828  0.00  0.00    +0.000 C 
BRANCH  21  22
ATOM     22  C   UNL     1       9.602  12.917  18.869  0.00  0.00    +0.000 A 
ATOM     23  C   UNL     1       9.412  11.578  18.513  0.00  0.00    +0.000 A 
ATOM     24  C   UNL     1       9.326  10.605  19.502  0.00  0.00    +0.000 A 
ATOM     25  C   UNL     1       9.430  11.004  20.823  0.00  0.00    +0.000 A 
ATOM     26  N   UNL     1       9.608  12.287  21.209  0.00  0.00    +0.000 NA
ATOM     27  C   UNL     1       9.690  13.210  20.224  0.00  0.00    +0.000 A 
ENDBRANCH  21  22
ENDBRANCH  11  21
TORSDOF 3
ENDMDL
MODEL 9
REMARK VINA RESULT:      -6.3      2.792      5.095
REMARK  Name = 
REMARK  4 active torsions:
REMARK  status: ('A' for Active; 'I' for Inactive)
REMARK    1  A    between atoms: C_1  and  C_2
REMARK    2  A    between atoms: C_5  and  C_6
REMARK    3  A    between atoms: N_16  and  C_17
REMARK    4  A    between atoms: C_17  and  C_18
REMARK                            x       y       z     vdW  Elec       q    Type
REMARK                         _______ _______ _______ _____ _____    ______ ____
ROOT
ATOM      1  C   UNL     1       0.533   9.604  19.517  0.00  0.00    +0.000 C 
ATOM      2  O   UNL     1       0.246   9.571  20.718  0.00  0.00    +0.000 OA
ATOM      3  N   UNL     1       1.670   8.969  19.033  0.00  0.00    +0.000 N 
ATOM      4  C   UNL     1       2.417   8.109  19.940  0.00  0.00    +0.000 C 
ATOM      5  C   UNL     1       2.616   6.743  19.299  0.00  0.00    +0.000 C 
ATOM      6  C   UNL     1       3.332   6.826  17.926  0.00  0.00    +0.000 C 
ATOM      7  C   UNL     1       4.812   7.254  18.039  0.00  0.00    +0.000 C 
ATOM      8  C   UNL     1       5.651   6.265  18.835  0.00  0.00    +0.000 C 
ATOM      9  C   UNL     1       5.371   4.793  18.582  0.00  0.00    +0.000 C 
ATOM     10  O   UNL     1       6.180   3.943  18.952  0.00  0.00    +0.000 OA
ATOM     11  N   UNL     1       4.106   4.484  18.110  0.00  0.00    +0.000 N 
ATOM     12  C   UNL     1       3.348   5.424  17.290  0.00  0.00    +0.000 C 
ATOM     13  C   UNL     1       2.551   7.819  17.024  0.00  0.00    +0.000 C 
ATOM     14  C   UNL     1       2.266   9.161  17.712  0.00  0.00    +0.000 C 
ENDROOT
BRANCH   1  19
ATOM     15  C   UNL     1      -3.823  11.626  18.232  0.00  0.00    +0.000 C 
ATOM     16  C   UNL     1      -2.532  10.882  18.180  0.00  0.00    +0.000 C 
ATOM     17  N   UNL     1      -2.234  10.032  17.253  0.00  0.00    +0.000 NA
ATOM     18  O   UNL     1      -0.960   9.506  17.585  0.00  0.00    +0.000 OA
ATOM     19  C   UNL     1      -0.353  10.381  18.542  0.00  0.00    +0.000 C 
ATOM     20  C   UNL     1      -1.519  11.039  19.247  0.00  0.00    +0.000 C 
ENDBRANCH   1  19
BRANCH  11  21
ATOM     21  C   UNL     1       3.586   3.137  18.305  0.00  0.00    +0.000 C 
BRANCH  21  22
ATOM     22  C   UNL     1       2.794   2.944  19.560  0.00  0.00    +0.000 A 
ATOM     23  C   UNL     1       1.405   3.108  19.574  0.00  0.00    +0.000 A 
ATOM     24  C   UNL     1       0.693   2.881  20.746  0.00  0.00    +0.000 A 
ATOM     25  C   UNL     1       1.397   2.500  21.875  0.00  0.00    +0.000 A 
ATOM     26  N   UNL     1       2.738   2.336  21.905  0.00  0.00    +0.000 NA
ATOM     27  C   UNL     1       3.402   2.561  20.749  0.00  0.00    +0.000 A 
ENDBRANCH  21  22
ENDBRANCH  11  21
TORSDOF 3
ENDMDL
