MODEL 1
REMARK VINA RESULT:      -7.2      0.000      0.000
REMARK  Name = 
REMARK  20 active torsions:
REMARK  status: ('A' for Active; 'I' for Inactive)
REMARK    1  A    between atoms: C_1  and  O_2
REMARK    2  A    between atoms: O_2  and  C_3
REMARK    3  A    between atoms: C_3  and  C_5
REMARK    4  A    between atoms: C_5  and  C_6
REMARK    5  A    between atoms: C_5  and  N_13
REMARK    6  A    between atoms: C_6  and  C_7
REMARK    7  A    between atoms: C_7  and  C_8
REMARK    8  A    between atoms: C_8  and  N_9
REMARK    9  A    between atoms: C_14  and  C_16
REMARK   10  A    between atoms: C_16  and  C_17
REMARK   11  A    between atoms: C_16  and  N_26
REMARK   12  A    between atoms: C_17  and  C_18
REMARK   13  A    between atoms: C_21  and  C_22
REMARK   14  A    between atoms: C_22  and  C_23
REMARK   15  A    between atoms: C_22  and  C_24
REMARK   16  A    between atoms: C_27  and  O_29
REMARK   17  A    between atoms: O_29  and  C_30
REMARK   18  A    between atoms: C_30  and  C_31
REMARK   19  A    between atoms: C_30  and  C_32
REMARK   20  A    between atoms: C_30  and  C_33
REMARK                            x       y       z     vdW  Elec       q    Type
REMARK                         _______ _______ _______ _____ _____    ______ ____
ROOT
ATOM      1  N   UNL     1       4.778   5.476  16.755  0.00  0.00    +0.000 N 
ATOM      2  C   UNL     1       3.540   4.954  17.070  0.00  0.00    +0.000 C 
ATOM      3  O   UNL     1       3.203   3.823  16.738  0.00  0.00    +0.000 OA
ATOM      4  H   UNL     1       5.032   6.415  17.044  0.00  0.00    +0.000 HD
ENDROOT
BRANCH   1   5
ATOM      5  C   UNL     1       5.843   4.639  16.201  0.00  0.00    +0.000 C 
BRANCH   5   6
ATOM      6  C   UNL     1       7.131   4.892  16.999  0.00  0.00    +0.000 C 
ATOM      7  O   UNL     1       8.147   4.213  16.909  0.00  0.00    +0.000 OA
BRANCH   6   9
ATOM      8  C   UNL     1       7.657   5.904  19.087  0.00  0.00    +0.000 C 
ATOM      9  O   UNL     1       6.954   5.950  17.841  0.00  0.00    +0.000 OA
ENDBRANCH   6   9
ENDBRANCH   5   6
BRANCH   5  10
ATOM     10  C   UNL     1       6.006   4.932  14.704  0.00  0.00    +0.000 C 
BRANCH  10  11
ATOM     11  C   UNL     1       6.451   3.715  13.892  0.00  0.00    +0.000 C 
BRANCH  11  12
ATOM     12  C   UNL     1       5.754   3.640  12.532  0.00  0.00    +0.000 C 
BRANCH  12  13
ATOM     13  N   UNL     1       5.614   2.254  12.139  0.00  0.00    +0.000 N 
ATOM     14  C   UNL     1       6.514   1.526  11.452  0.00  0.00    +0.000 C 
ATOM     15  N   UNL     1       7.695   1.876  11.098  0.00  0.00    +0.000 NA
ATOM     16  N   UNL     1       6.058   0.306  11.118  0.00  0.00    +0.000 N 
ATOM     17  H   UNL     1       4.735   1.807  12.360  0.00  0.00    +0.000 HD
ATOM     18  H   UNL     1       7.871   2.829  11.413  0.00  0.00    +0.000 HD
ATOM     19  H   UNL     1       5.479  -0.162  11.798  0.00  0.00    +0.000 HD
ATOM     20  H   UNL     1       6.823  -0.279  10.797  0.00  0.00    +0.000 HD
ENDBRANCH  12  13
ENDBRANCH  11  12
ENDBRANCH  10  11
ENDBRANCH   5  10
ENDBRANCH   1   5
BRANCH   2  21
ATOM     21  C   UNL     1       2.590   5.917  17.809  0.00  0.00    +0.000 C 
BRANCH  21  22
ATOM     22  N   UNL     1       2.137   5.321  19.070  0.00  0.00    +0.000 N 
ATOM     23  C   UNL     1       3.015   4.910  20.028  0.00  0.00    +0.000 C 
ATOM     24  O   UNL     1       4.228   5.035  19.912  0.00  0.00    +0.000 OA
ATOM     25  H   UNL     1       1.141   5.181  19.217  0.00  0.00    +0.000 HD
BRANCH  23  26
ATOM     26  O   UNL     1       2.367   4.362  21.091  0.00  0.00    +0.000 OA
BRANCH  26  27
ATOM     27  C   UNL     1       2.141   2.922  21.114  0.00  0.00    +0.000 C 
ATOM     28  C   UNL     1       1.228   2.539  22.287  0.00  0.00    +0.000 C 
ATOM     29  C   UNL     1       1.413   2.559  19.807  0.00  0.00    +0.000 C 
ATOM     30  C   UNL     1       3.462   2.140  21.137  0.00  0.00    +0.000 C 
ENDBRANCH  26  27
ENDBRANCH  23  26
ENDBRANCH  21  22
BRANCH  21  31
ATOM     31  C   UNL     1       3.228   7.298  18.010  0.00  0.00    +0.000 C 
BRANCH  31  32
ATOM     32  C   UNL     1       2.257   8.309  18.513  0.00  0.00    +0.000 A 
ATOM     33  C   UNL     1       1.637   9.322  17.818  0.00  0.00    +0.000 A 
ATOM     34  N   UNL     1       0.782   9.899  18.711  0.00  0.00    +0.000 N 
ATOM     35  C   UNL     1       0.916   9.243  19.910  0.00  0.00    +0.000 A 
ATOM     36  N   UNL     1       1.818   8.286  19.817  0.00  0.00    +0.000 NA
ATOM     37  H   UNL     1       0.144  10.658  18.523  0.00  0.00    +0.000 HD
BRANCH  35  38
ATOM     38  C   UNL     1       0.102   9.621  21.111  0.00  0.00    +0.000 C 
ATOM     39  C   UNL     1       0.812   9.217  22.402  0.00  0.00    +0.000 C 
ATOM     40  C   UNL     1      -0.211  11.116  21.107  0.00  0.00    +0.000 C 
ENDBRANCH  35  38
ENDBRANCH  31  32
ENDBRANCH  21  31
ENDBRANCH   2  21
TORSDOF 14
ENDMDL
MODEL 2
REMARK VINA RESULT:      -7.1      1.308      1.797
REMARK  Name = 
REMARK  20 active torsions:
REMARK  status: ('A' for Active; 'I' for Inactive)
REMARK    1  A    between atoms: C_1  and  O_2
REMARK    2  A    between atoms: O_2  and  C_3
REMARK    3  A    between atoms: C_3  and  C_5
REMARK    4  A    between atoms: C_5  and  C_6
REMARK    5  A    between atoms: C_5  and  N_13
REMARK    6  A    between atoms: C_6  and  C_7
REMARK    7  A    between atoms: C_7  and  C_8
REMARK    8  A    between atoms: C_8  and  N_9
REMARK    9  A    between atoms: C_14  and  C_16
REMARK   10  A    between atoms: C_16  and  C_17
REMARK   11  A    between atoms: C_16  and  N_26
REMARK   12  A    between atoms: C_17  and  C_18
REMARK   13  A    between atoms: C_21  and  C_22
REMARK   14  A    between atoms: C_22  and  C_23
REMARK   15  A    between atoms: C_22  and  C_24
REMARK   16  A    between atoms: C_27  and  O_29
REMARK   17  A    between atoms: O_29  and  C_30
REMARK   18  A    between atoms: C_30  and  C_31
REMARK   19  A    between atoms: C_30  and  C_32
REMARK   20  A    between atoms: C_30  and  C_33
REMARK                            x       y       z     vdW  Elec       q    Type
REMARK                         _______ _______ _______ _____ _____    ______ ____
ROOT
ATOM      1  N   UNL     1       5.231   5.163  16.699  0.00  0.00    +0.000 N 
ATOM      2  C   UNL     1       4.092   4.516  17.135  0.00  0.00    +0.000 C 
ATOM      3  O   UNL     1       3.975   3.297  17.091  0.00  0.00    +0.000 OA
ATOM      4  H   UNL     1       5.302   6.174  16.748  0.00  0.00    +0.000 HD
ENDROOT
BRANCH   1   5
ATOM      5  C   UNL     1       6.450   4.425  16.366  0.00  0.00    +0.000 C 
BRANCH   5   6
ATOM      6  C   UNL     1       7.527   4.759  17.410  0.00  0.00    +0.000 C 
ATOM      7  O   UNL     1       8.483   4.040  17.674  0.00  0.00    +0.000 OA
BRANCH   6   9
ATOM      8  C   UNL     1       8.142   6.394  19.024  0.00  0.00    +0.000 C 
ATOM      9  O   UNL     1       7.232   5.944  18.017  0.00  0.00    +0.000 OA
ENDBRANCH   6   9
ENDBRANCH   5   6
BRANCH   5  10
ATOM     10  C   UNL     1       6.885   4.765  14.935  0.00  0.00    +0.000 C 
BRANCH  10  11
ATOM     11  C   UNL     1       6.036   4.080  13.863  0.00  0.00    +0.000 C 
BRANCH  11  12
ATOM     12  C   UNL     1       6.744   4.030  12.508  0.00  0.00    +0.000 C 
BRANCH  12  13
ATOM     13  N   UNL     1       6.796   2.661  12.042  0.00  0.00    +0.000 N 
ATOM     14  C   UNL     1       5.789   1.973  11.474  0.00  0.00    +0.000 C 
ATOM     15  N   UNL     1       4.630   2.412  11.148  0.00  0.00    +0.000 NA
ATOM     16  N   UNL     1       6.090   0.680  11.259  0.00  0.00    +0.000 N 
ATOM     17  H   UNL     1       7.659   2.160  12.204  0.00  0.00    +0.000 HD
ATOM     18  H   UNL     1       4.564   3.399  11.394  0.00  0.00    +0.000 HD
ATOM     19  H   UNL     1       7.034   0.478  10.969  0.00  0.00    +0.000 HD
ATOM     20  H   UNL     1       5.400   0.256  10.647  0.00  0.00    +0.000 HD
ENDBRANCH  12  13
ENDBRANCH  11  12
ENDBRANCH  10  11
ENDBRANCH   5  10
ENDBRANCH   1   5
BRANCH   2  21
ATOM     21  C   UNL     1       2.956   5.439  17.616  0.00  0.00    +0.000 C 
BRANCH  21  22
ATOM     22  N   UNL     1       2.345   4.905  18.837  0.00  0.00    +0.000 N 
ATOM     23  C   UNL     1       1.358   3.966  18.797  0.00  0.00    +0.000 C 
ATOM     24  O   UNL     1       0.939   3.491  17.749  0.00  0.00    +0.000 OA
ATOM     25  H   UNL     1       2.645   5.271  19.737  0.00  0.00    +0.000 HD
BRANCH  23  26
ATOM     26  O   UNL     1       0.926   3.648  20.047  0.00  0.00    +0.000 OA
BRANCH  26  27
ATOM     27  C   UNL     1       1.890   3.153  21.022  0.00  0.00    +0.000 C 
ATOM     28  C   UNL     1       2.503   4.318  21.813  0.00  0.00    +0.000 C 
ATOM     29  C   UNL     1       1.113   2.264  22.012  0.00  0.00    +0.000 C 
ATOM     30  C   UNL     1       2.966   2.278  20.365  0.00  0.00    +0.000 C 
ENDBRANCH  26  27
ENDBRANCH  23  26
ENDBRANCH  21  22
BRANCH  21  31
ATOM     31  C   UNL     1       3.437   6.888  17.788  0.00  0.00    +0.000 C 
BRANCH  31  32
ATOM     32  C   UNL     1       2.441   7.742  18.492  0.00  0.00    +0.000 A 
ATOM     33  C   UNL     1       2.053   7.697  19.811  0.00  0.00    +0.000 A 
ATOM     34  N   UNL     1       1.190   8.742  19.968  0.00  0.00    +0.000 N 
ATOM     35  C   UNL     1       1.064   9.372  18.754  0.00  0.00    +0.000 A 
ATOM     36  N   UNL     1       1.801   8.772  17.840  0.00  0.00    +0.000 NA
ATOM     37  H   UNL     1       0.739   9.021  20.826  0.00  0.00    +0.000 HD
BRANCH  35  38
ATOM     38  C   UNL     1       0.193  10.580  18.579  0.00  0.00    +0.000 C 
ATOM     39  C   UNL     1      -1.127  10.209  17.906  0.00  0.00    +0.000 C 
ATOM     40  C   UNL     1      -0.053  11.270  19.919  0.00  0.00    +0.000 C 
ENDBRANCH  35  38
ENDBRANCH  31  32
ENDBRANCH  21  31
ENDBRANCH   2  21
TORSDOF 14
ENDMDL
MODEL 3
REMARK VINA RESULT:      -7.0      3.777      7.019
REMARK  Name = 
REMARK  20 active torsions:
REMARK  status: ('A' for Active; 'I' for Inactive)
REMARK    1  A    between atoms: C_1  and  O_2
REMARK    2  A    between atoms: O_2  and  C_3
REMARK    3  A    between atoms: C_3  and  C_5
REMARK    4  A    between atoms: C_5  and  C_6
REMARK    5  A    between atoms: C_5  and  N_13
REMARK    6  A    between atoms: C_6  and  C_7
REMARK    7  A    between atoms: C_7  and  C_8
REMARK    8  A    between atoms: C_8  and  N_9
REMARK    9  A    between atoms: C_14  and  C_16
REMARK   10  A    between atoms: C_16  and  C_17
REMARK   11  A    between atoms: C_16  and  N_26
REMARK   12  A    between atoms: C_17  and  C_18
REMARK   13  A    between atoms: C_21  and  C_22
REMARK   14  A    between atoms: C_22  and  C_23
REMARK   15  A    between atoms: C_22  and  C_24
REMARK   16  A    between atoms: C_27  and  O_29
REMARK   17  A    between atoms: O_29  and  C_30
REMARK   18  A    between atoms: C_30  and  C_31
REMARK   19  A    between atoms: C_30  and  C_32
REMARK   20  A    between atoms: C_30  and  C_33
REMARK                            x       y       z     vdW  Elec       q    Type
REMARK                         _______ _______ _______ _____ _____    ______ ____
ROOT
ATOM      1  N   UNL     1       1.582   7.259  19.988  0.00  0.00    +0.000 N 
ATOM      2  C   UNL     1       1.271   8.290  20.850  0.00  0.00    +0.000 C 
ATOM      3  O   UNL     1       1.772   8.385  21.965  0.00  0.00    +0.000 OA
ATOM      4  H   UNL     1       1.152   7.205  19.069  0.00  0.00    +0.000 HD
ENDROOT
BRANCH   1   5
ATOM      5  C   UNL     1       2.690   6.342  20.258  0.00  0.00    +0.000 C 
BRANCH   5   6
ATOM      6  C   UNL     1       3.407   6.035  18.934  0.00  0.00    +0.000 C 
ATOM      7  O   UNL     1       3.241   6.662  17.894  0.00  0.00    +0.000 OA
BRANCH   6   9
ATOM      8  C   UNL     1       5.618   5.193  19.179  0.00  0.00    +0.000 C 
ATOM      9  O   UNL     1       4.212   4.945  19.085  0.00  0.00    +0.000 OA
ENDBRANCH   6   9
ENDBRANCH   5   6
BRANCH   5  10
ATOM     10  C   UNL     1       2.161   5.081  20.953  0.00  0.00    +0.000 C 
BRANCH  10  11
ATOM     11  C   UNL     1       0.996   4.424  20.212  0.00  0.00    +0.000 C 
BRANCH  11  12
ATOM     12  C   UNL     1       1.115   2.900  20.181  0.00  0.00    +0.000 C 
BRANCH  12  13
ATOM     13  N   UNL     1       2.463   2.530  19.804  0.00  0.00    +0.000 N 
ATOM     14  C   UNL     1       2.852   2.045  18.610  0.00  0.00    +0.000 C 
ATOM     15  N   UNL     1       2.140   1.906  17.554  0.00  0.00    +0.000 NA
ATOM     16  N   UNL     1       4.143   1.670  18.590  0.00  0.00    +0.000 N 
ATOM     17  H   UNL     1       3.170   2.597  20.524  0.00  0.00    +0.000 HD
ATOM     18  H   UNL     1       1.189   2.220  17.747  0.00  0.00    +0.000 HD
ATOM     19  H   UNL     1       4.788   2.244  19.110  0.00  0.00    +0.000 HD
ATOM     20  H   UNL     1       4.449   1.515  17.635  0.00  0.00    +0.000 HD
ENDBRANCH  12  13
ENDBRANCH  11  12
ENDBRANCH  10  11
ENDBRANCH   5  10
ENDBRANCH   1   5
BRANCH   2  21
ATOM     21  C   UNL     1       0.198   9.273  20.340  0.00  0.00    +0.000 C 
BRANCH  21  22
ATOM     22  N   UNL     1      -0.546   9.846  21.465  0.00  0.00    +0.000 N 
ATOM     23  C   UNL     1      -0.114  10.960  22.121  0.00  0.00    +0.000 C 
ATOM     24  O   UNL     1       0.902  11.565  21.800  0.00  0.00    +0.000 OA
ATOM     25  H   UNL     1      -1.391   9.380  21.784  0.00  0.00    +0.000 HD
BRANCH  23  26
ATOM     26  O   UNL     1      -0.947  11.285  23.146  0.00  0.00    +0.000 OA
BRANCH  26  27
ATOM     27  C   UNL     1      -1.876  12.395  22.975  0.00  0.00    +0.000 C 
ATOM     28  C   UNL     1      -1.207  13.723  23.361  0.00  0.00    +0.000 C 
ATOM     29  C   UNL     1      -2.230  12.460  21.478  0.00  0.00    +0.000 C 
ATOM     30  C   UNL     1      -3.183  12.166  23.747  0.00  0.00    +0.000 C 
ENDBRANCH  26  27
ENDBRANCH  23  26
ENDBRANCH  21  22
BRANCH  21  31
ATOM     31  C   UNL     1       0.806  10.350  19.430  0.00  0.00    +0.000 C 
BRANCH  31  32
ATOM     32  C   UNL     1      -0.225  11.077  18.638  0.00  0.00    +0.000 A 
ATOM     33  C   UNL     1      -0.279  12.416  18.325  0.00  0.00    +0.000 A 
ATOM     34  N   UNL     1      -1.366  12.551  17.512  0.00  0.00    +0.000 N 
ATOM     35  C   UNL     1      -1.945  11.313  17.370  0.00  0.00    +0.000 A 
ATOM     36  N   UNL     1      -1.278  10.407  18.058  0.00  0.00    +0.000 NA
ATOM     37  H   UNL     1      -1.681  13.402  17.071  0.00  0.00    +0.000 HD
BRANCH  35  38
ATOM     38  C   UNL     1      -3.162  11.105  16.520  0.00  0.00    +0.000 C 
ATOM     39  C   UNL     1      -2.999   9.878  15.624  0.00  0.00    +0.000 C 
ATOM     40  C   UNL     1      -4.415  10.985  17.386  0.00  0.00    +0.000 C 
ENDBRANCH  35  38
ENDBRANCH  31  32
ENDBRANCH  21  31
ENDBRANCH   2  21
TORSDOF 14
ENDMDL
MODEL 4
REMARK VINA RESULT:      -7.0      2.900      7.200
REMARK  Name = 
REMARK  20 active torsions:
REMARK  status: ('A' for Active; 'I' for Inactive)
REMARK    1  A    between atoms: C_1  and  O_2
REMARK    2  A    between atoms: O_2  and  C_3
REMARK    3  A    between atoms: C_3  and  C_5
REMARK    4  A    between atoms: C_5  and  C_6
REMARK    5  A    between atoms: C_5  and  N_13
REMARK    6  A    between atoms: C_6  and  C_7
REMARK    7  A    between atoms: C_7  and  C_8
REMARK    8  A    between atoms: C_8  and  N_9
REMARK    9  A    between atoms: C_14  and  C_16
REMARK   10  A    between atoms: C_16  and  C_17
REMARK   11  A    between atoms: C_16  and  N_26
REMARK   12  A    between atoms: C_17  and  C_18
REMARK   13  A    between atoms: C_21  and  C_22
REMARK   14  A    between atoms: C_22  and  C_23
REMARK   15  A    between atoms: C_22  and  C_24
REMARK   16  A    between atoms: C_27  and  O_29
REMARK   17  A    between atoms: O_29  and  C_30
REMARK   18  A    between atoms: C_30  and  C_31
REMARK   19  A    between atoms: C_30  and  C_32
REMARK   20  A    between atoms: C_30  and  C_33
REMARK                            x       y       z     vdW  Elec       q    Type
REMARK                         _______ _______ _______ _____ _____    ______ ____
ROOT
ATOM      1  N   UNL     1       3.430   5.322  17.830  0.00  0.00    +0.000 N 
ATOM      2  C   UNL     1       4.179   6.336  17.269  0.00  0.00    +0.000 C 
ATOM      3  O   UNL     1       3.724   7.460  17.083  0.00  0.00    +0.000 OA
ATOM      4  H   UNL     1       3.832   4.402  17.974  0.00  0.00    +0.000 HD
ENDROOT
BRANCH   1   5
ATOM      5  C   UNL     1       2.125   5.581  18.439  0.00  0.00    +0.000 C 
BRANCH   5   6
ATOM      6  C   UNL     1       2.340   5.983  19.907  0.00  0.00    +0.000 C 
ATOM      7  O   UNL     1       2.480   5.189  20.829  0.00  0.00    +0.000 OA
BRANCH   6   9
ATOM      8  C   UNL     1       1.370   7.883  20.959  0.00  0.00    +0.000 C 
ATOM      9  O   UNL     1       2.308   7.341  20.025  0.00  0.00    +0.000 OA
ENDBRANCH   6   9
ENDBRANCH   5   6
BRANCH   5  10
ATOM     10  C   UNL     1       1.229   4.345  18.288  0.00  0.00    +0.000 C 
BRANCH  10  11
ATOM     11  C   UNL     1       1.898   3.201  17.523  0.00  0.00    +0.000 C 
BRANCH  11  12
ATOM     12  C   UNL     1       1.973   1.917  18.351  0.00  0.00    +0.000 C 
BRANCH  12  13
ATOM     13  N   UNL     1       3.338   1.701  18.782  0.00  0.00    +0.000 N 
ATOM     14  C   UNL     1       3.856   2.027  19.980  0.00  0.00    +0.000 C 
ATOM     15  N   UNL     1       3.235   2.498  20.998  0.00  0.00    +0.000 NA
ATOM     16  N   UNL     1       5.183   1.824  20.052  0.00  0.00    +0.000 N 
ATOM     17  H   UNL     1       3.973   1.311  18.098  0.00  0.00    +0.000 HD
ATOM     18  H   UNL     1       2.248   2.606  20.767  0.00  0.00    +0.000 HD
ATOM     19  H   UNL     1       5.542   1.009  19.578  0.00  0.00    +0.000 HD
ATOM     20  H   UNL     1       5.495   1.876  21.017  0.00  0.00    +0.000 HD
ENDBRANCH  12  13
ENDBRANCH  11  12
ENDBRANCH  10  11
ENDBRANCH   5  10
ENDBRANCH   1   5
BRANCH   2  21
ATOM     21  C   UNL     1       5.602   5.939  16.832  0.00  0.00    +0.000 C 
BRANCH  21  22
ATOM     22  N   UNL     1       5.549   4.890  15.809  0.00  0.00    +0.000 N 
ATOM     23  C   UNL     1       6.667   4.228  15.397  0.00  0.00    +0.000 C 
ATOM     24  O   UNL     1       7.776   4.446  15.870  0.00  0.00    +0.000 OA
ATOM     25  H   UNL     1       4.657   4.674  15.373  0.00  0.00    +0.000 HD
BRANCH  23  26
ATOM     26  O   UNL     1       6.378   3.326  14.422  0.00  0.00    +0.000 OA
BRANCH  26  27
ATOM     27  C   UNL     1       6.406   3.758  13.030  0.00  0.00    +0.000 C 
ATOM     28  C   UNL     1       6.885   2.617  12.121  0.00  0.00    +0.000 C 
ATOM     29  C   UNL     1       4.958   4.103  12.636  0.00  0.00    +0.000 C 
ATOM     30  C   UNL     1       7.248   5.029  12.846  0.00  0.00    +0.000 C 
ENDBRANCH  26  27
ENDBRANCH  23  26
ENDBRANCH  21  22
BRANCH  21  31
ATOM     31  C   UNL     1       6.416   7.159  16.377  0.00  0.00    +0.000 C 
BRANCH  31  32
ATOM     32  C   UNL     1       7.334   7.661  17.437  0.00  0.00    +0.000 A 
ATOM     33  C   UNL     1       7.923   6.959  18.464  0.00  0.00    +0.000 A 
ATOM     34  N   UNL     1       8.736   7.857  19.092  0.00  0.00    +0.000 N 
ATOM     35  C   UNL     1       8.607   9.065  18.452  0.00  0.00    +0.000 A 
ATOM     36  N   UNL     1       7.749   8.973  17.455  0.00  0.00    +0.000 NA
ATOM     37  H   UNL     1       9.344   7.667  19.875  0.00  0.00    +0.000 HD
BRANCH  35  38
ATOM     38  C   UNL     1       9.382  10.274  18.884  0.00  0.00    +0.000 C 
ATOM     39  C   UNL     1       9.090  11.465  17.973  0.00  0.00    +0.000 C 
ATOM     40  C   UNL     1       9.083  10.617  20.342  0.00  0.00    +0.000 C 
ENDBRANCH  35  38
ENDBRANCH  31  32
ENDBRANCH  21  31
ENDBRANCH   2  21
TORSDOF 14
ENDMDL
MODEL 5
REMARK VINA RESULT:      -7.0      1.469      2.090
REMARK  Name = 
REMARK  20 active torsions:
REMARK  status: ('A' for Active; 'I' for Inactive)
REMARK    1  A    between atoms: C_1  and  O_2
REMARK    2  A    between atoms: O_2  and  C_3
REMARK    3  A    between atoms: C_3  and  C_5
REMARK    4  A    between atoms: C_5  and  C_6
REMARK    5  A    between atoms: C_5  and  N_13
REMARK    6  A    between atoms: C_6  and  C_7
REMARK    7  A    between atoms: C_7  and  C_8
REMARK    8  A    between atoms: C_8  and  N_9
REMARK    9  A    between atoms: C_14  and  C_16
REMARK   10  A    between atoms: C_16  and  C_17
REMARK   11  A    between atoms: C_16  and  N_26
REMARK   12  A    between atoms: C_17  and  C_18
REMARK   13  A    between atoms: C_21  and  C_22
REMARK   14  A    between atoms: C_22  and  C_23
REMARK   15  A    between atoms: C_22  and  C_24
REMARK   16  A    between atoms: C_27  and  O_29
REMARK   17  A    between atoms: O_29  and  C_30
REMARK   18  A    between atoms: C_30  and  C_31
REMARK   19  A    between atoms: C_30  and  C_32
REMARK   20  A    between atoms: C_30  and  C_33
REMARK                            x       y       z     vdW  Elec       q    Type
REMARK                         _______ _______ _______ _____ _____    ______ ____
ROOT
ATOM      1  N   UNL     1       5.153   6.334  17.095  0.00  0.00    +0.000 N 
ATOM      2  C   UNL     1       4.008   5.569  17.185  0.00  0.00    +0.000 C 
ATOM      3  O   UNL     1       3.983   4.388  16.859  0.00  0.00    +0.000 OA
ATOM      4  H   UNL     1       5.146   7.310  17.374  0.00  0.00    +0.000 HD
ENDROOT
BRANCH   1   5
ATOM      5  C   UNL     1       6.457   5.731  16.817  0.00  0.00    +0.000 C 
BRANCH   5   6
ATOM      6  C   UNL     1       7.523   6.464  17.646  0.00  0.00    +0.000 C 
ATOM      7  O   UNL     1       7.998   6.041  18.694  0.00  0.00    +0.000 OA
BRANCH   6   9
ATOM      8  C   UNL     1       8.095   8.754  17.944  0.00  0.00    +0.000 C 
ATOM      9  O   UNL     1       7.822   7.660  17.063  0.00  0.00    +0.000 OA
ENDBRANCH   6   9
ENDBRANCH   5   6
BRANCH   5  10
ATOM     10  C   UNL     1       6.739   5.781  15.310  0.00  0.00    +0.000 C 
BRANCH  10  11
ATOM     11  C   UNL     1       6.425   4.469  14.590  0.00  0.00    +0.000 C 
BRANCH  11  12
ATOM     12  C   UNL     1       6.677   4.560  13.084  0.00  0.00    +0.000 C 
BRANCH  12  13
ATOM     13  N   UNL     1       6.669   3.230  12.513  0.00  0.00    +0.000 N 
ATOM     14  C   UNL     1       5.647   2.651  11.856  0.00  0.00    +0.000 C 
ATOM     15  N   UNL     1       4.530   3.183  11.525  0.00  0.00    +0.000 NA
ATOM     16  N   UNL     1       5.881   1.363  11.551  0.00  0.00    +0.000 N 
ATOM     17  H   UNL     1       7.494   2.666  12.666  0.00  0.00    +0.000 HD
ATOM     18  H   UNL     1       4.511   4.150  11.847  0.00  0.00    +0.000 HD
ATOM     19  H   UNL     1       6.823   1.127  11.279  0.00  0.00    +0.000 HD
ATOM     20  H   UNL     1       5.193   1.030  10.882  0.00  0.00    +0.000 HD
ENDBRANCH  12  13
ENDBRANCH  11  12
ENDBRANCH  10  11
ENDBRANCH   5  10
ENDBRANCH   1   5
BRANCH   2  21
ATOM     21  C   UNL     1       2.750   6.323  17.660  0.00  0.00    +0.000 C 
BRANCH  21  22
ATOM     22  N   UNL     1       2.138   5.630  18.798  0.00  0.00    +0.000 N 
ATOM     23  C   UNL     1       2.867   5.254  19.887  0.00  0.00    +0.000 C 
ATOM     24  O   UNL     1       4.063   5.491  19.997  0.00  0.00    +0.000 OA
ATOM     25  H   UNL     1       1.150   5.397  18.757  0.00  0.00    +0.000 HD
BRANCH  23  26
ATOM     26  O   UNL     1       2.095   4.601  20.797  0.00  0.00    +0.000 OA
BRANCH  26  27
ATOM     27  C   UNL     1       1.862   3.172  20.630  0.00  0.00    +0.000 C 
ATOM     28  C   UNL     1       3.138   2.472  20.140  0.00  0.00    +0.000 C 
ATOM     29  C   UNL     1       1.513   2.607  22.020  0.00  0.00    +0.000 C 
ATOM     30  C   UNL     1       0.666   2.895  19.708  0.00  0.00    +0.000 C 
ENDBRANCH  26  27
ENDBRANCH  23  26
ENDBRANCH  21  22
BRANCH  21  31
ATOM     31  C   UNL     1       3.054   7.796  17.965  0.00  0.00    +0.000 C 
BRANCH  31  32
ATOM     32  C   UNL     1       1.913   8.490  18.625  0.00  0.00    +0.000 A 
ATOM     33  C   UNL     1       1.695   8.694  19.968  0.00  0.00    +0.000 A 
ATOM     34  N   UNL     1       0.564   9.455  20.036  0.00  0.00    +0.000 N 
ATOM     35  C   UNL     1       0.123   9.674  18.754  0.00  0.00    +0.000 A 
ATOM     36  N   UNL     1       0.918   9.084  17.882  0.00  0.00    +0.000 NA
ATOM     37  H   UNL     1       0.136   9.815  20.876  0.00  0.00    +0.000 HD
BRANCH  35  38
ATOM     38  C   UNL     1      -1.100  10.494  18.470  0.00  0.00    +0.000 C 
ATOM     39  C   UNL     1      -0.764  11.983  18.440  0.00  0.00    +0.000 C 
ATOM     40  C   UNL     1      -1.754  10.056  17.161  0.00  0.00    +0.000 C 
ENDBRANCH  35  38
ENDBRANCH  31  32
ENDBRANCH  21  31
ENDBRANCH   2  21
TORSDOF 14
ENDMDL
MODEL 6
REMARK VINA RESULT:      -7.0      3.169      5.242
REMARK  Name = 
REMARK  20 active torsions:
REMARK  status: ('A' for Active; 'I' for Inactive)
REMARK    1  A    between atoms: C_1  and  O_2
REMARK    2  A    between atoms: O_2  and  C_3
REMARK    3  A    between atoms: C_3  and  C_5
REMARK    4  A    between atoms: C_5  and  C_6
REMARK    5  A    between atoms: C_5  and  N_13
REMARK    6  A    between atoms: C_6  and  C_7
REMARK    7  A    between atoms: C_7  and  C_8
REMARK    8  A    between atoms: C_8  and  N_9
REMARK    9  A    between atoms: C_14  and  C_16
REMARK   10  A    between atoms: C_16  and  C_17
REMARK   11  A    between atoms: C_16  and  N_26
REMARK   12  A    between atoms: C_17  and  C_18
REMARK   13  A    between atoms: C_21  and  C_22
REMARK   14  A    between atoms: C_22  and  C_23
REMARK   15  A    between atoms: C_22  and  C_24
REMARK   16  A    between atoms: C_27  and  O_29
REMARK   17  A    between atoms: O_29  and  C_30
REMARK   18  A    between atoms: C_30  and  C_31
REMARK   19  A    between atoms: C_30  and  C_32
REMARK   20  A    between atoms: C_30  and  C_33
REMARK                            x       y       z     vdW  Elec       q    Type
REMARK                         _______ _______ _______ _____ _____    ______ ____
ROOT
ATOM      1  N   UNL     1       5.493   6.981  17.844  0.00  0.00    +0.000 N 
ATOM      2  C   UNL     1       4.436   7.054  16.960  0.00  0.00    +0.000 C 
ATOM      3  O   UNL     1       4.578   6.881  15.755  0.00  0.00    +0.000 OA
ATOM      4  H   UNL     1       5.347   7.127  18.838  0.00  0.00    +0.000 HD
ENDROOT
BRANCH   1   5
ATOM      5  C   UNL     1       6.804   6.477  17.432  0.00  0.00    +0.000 C 
BRANCH   5   6
ATOM      6  C   UNL     1       6.883   4.981  17.773  0.00  0.00    +0.000 C 
ATOM      7  O   UNL     1       7.089   4.537  18.897  0.00  0.00    +0.000 OA
BRANCH   6   9
ATOM      8  C   UNL     1       7.158   4.843  15.415  0.00  0.00    +0.000 C 
ATOM      9  O   UNL     1       6.733   4.238  16.640  0.00  0.00    +0.000 OA
ENDBRANCH   6   9
ENDBRANCH   5   6
BRANCH   5  10
ATOM     10  C   UNL     1       7.910   7.299  18.105  0.00  0.00    +0.000 C 
BRANCH  10  11
ATOM     11  C   UNL     1       7.871   8.783  17.740  0.00  0.00    +0.000 C 
BRANCH  11  12
ATOM     12  C   UNL     1       8.760   9.628  18.653  0.00  0.00    +0.000 C 
BRANCH  12  13
ATOM     13  N   UNL     1       9.521  10.564  17.853  0.00  0.00    +0.000 N 
ATOM     14  C   UNL     1      10.504  11.372  18.292  0.00  0.00    +0.000 C 
ATOM     15  N   UNL     1      11.022  11.408  19.463  0.00  0.00    +0.000 NA
ATOM     16  N   UNL     1      10.943  12.225  17.349  0.00  0.00    +0.000 N 
ATOM     17  H   UNL     1       9.254  10.652  16.882  0.00  0.00    +0.000 HD
ATOM     18  H   UNL     1      10.564  10.714  20.053  0.00  0.00    +0.000 HD
ATOM     19  H   UNL     1      10.997  11.869  16.408  0.00  0.00    +0.000 HD
ATOM     20  H   UNL     1      11.811  12.660  17.647  0.00  0.00    +0.000 HD
ENDBRANCH  12  13
ENDBRANCH  11  12
ENDBRANCH  10  11
ENDBRANCH   5  10
ENDBRANCH   1   5
BRANCH   2  21
ATOM     21  C   UNL     1       3.080   7.434  17.586  0.00  0.00    +0.000 C 
BRANCH  21  22
ATOM     22  N   UNL     1       2.854   6.671  18.818  0.00  0.00    +0.000 N 
ATOM     23  C   UNL     1       2.274   5.437  18.804  0.00  0.00    +0.000 C 
ATOM     24  O   UNL     1       1.933   4.878  17.770  0.00  0.00    +0.000 OA
ATOM     25  H   UNL     1       3.107   7.091  19.708  0.00  0.00    +0.000 HD
BRANCH  23  26
ATOM     26  O   UNL     1       2.139   4.941  20.063  0.00  0.00    +0.000 OA
BRANCH  26  27
ATOM     27  C   UNL     1       2.137   3.496  20.256  0.00  0.00    +0.000 C 
ATOM     28  C   UNL     1       3.418   2.874  19.681  0.00  0.00    +0.000 C 
ATOM     29  C   UNL     1       2.127   3.244  21.775  0.00  0.00    +0.000 C 
ATOM     30  C   UNL     1       0.873   2.847  19.674  0.00  0.00    +0.000 C 
ENDBRANCH  26  27
ENDBRANCH  23  26
ENDBRANCH  21  22
BRANCH  21  31
ATOM     31  C   UNL     1       2.963   8.949  17.806  0.00  0.00    +0.000 C 
BRANCH  31  32
ATOM     32  C   UNL     1       1.708   9.329  18.512  0.00  0.00    +0.000 A 
ATOM     33  C   UNL     1       0.499   9.701  17.971  0.00  0.00    +0.000 A 
ATOM     34  N   UNL     1      -0.339   9.856  19.035  0.00  0.00    +0.000 N 
ATOM     35  C   UNL     1       0.376   9.595  20.179  0.00  0.00    +0.000 A 
ATOM     36  N   UNL     1       1.625   9.289  19.885  0.00  0.00    +0.000 NA
ATOM     37  H   UNL     1      -1.319  10.096  18.996  0.00  0.00    +0.000 HD
BRANCH  35  38
ATOM     38  C   UNL     1      -0.255   9.660  21.537  0.00  0.00    +0.000 C 
ATOM     39  C   UNL     1       0.735   9.241  22.621  0.00  0.00    +0.000 C 
ATOM     40  C   UNL     1      -0.807  11.058  21.812  0.00  0.00    +0.000 C 
ENDBRANCH  35  38
ENDBRANCH  31  32
ENDBRANCH  21  31
ENDBRANCH   2  21
TORSDOF 14
ENDMDL
MODEL 7
REMARK VINA RESULT:      -7.0      2.506      8.382
REMARK  Name = 
REMARK  20 active torsions:
REMARK  status: ('A' for Active; 'I' for Inactive)
REMARK    1  A    between atoms: C_1  and  O_2
REMARK    2  A    between atoms: O_2  and  C_3
REMARK    3  A    between atoms: C_3  and  C_5
REMARK    4  A    between atoms: C_5  and  C_6
REMARK    5  A    between atoms: C_5  and  N_13
REMARK    6  A    between atoms: C_6  and  C_7
REMARK    7  A    between atoms: C_7  and  C_8
REMARK    8  A    between atoms: C_8  and  N_9
REMARK    9  A    between atoms: C_14  and  C_16
REMARK   10  A    between atoms: C_16  and  C_17
REMARK   11  A    between atoms: C_16  and  N_26
REMARK   12  A    between atoms: C_17  and  C_18
REMARK   13  A    between atoms: C_21  and  C_22
REMARK   14  A    between atoms: C_22  and  C_23
REMARK   15  A    between atoms: C_22  and  C_24
REMARK   16  A    between atoms: C_27  and  O_29
REMARK   17  A    between atoms: O_29  and  C_30
REMARK   18  A    between atoms: C_30  and  C_31
REMARK   19  A    between atoms: C_30  and  C_32
REMARK   20  A    between atoms: C_30  and  C_33
REMARK                            x       y       z     vdW  Elec       q    Type
REMARK                         _______ _______ _______ _____ _____    ______ ____
ROOT
ATOM      1  N   UNL     1       1.852   8.192  19.530  0.00  0.00    +0.000 N 
ATOM      2  C   UNL     1       2.438   8.355  18.292  0.00  0.00    +0.000 C 
ATOM      3  O   UNL     1       2.123   9.265  17.533  0.00  0.00    +0.000 OA
ATOM      4  H   UNL     1       2.133   7.430  20.139  0.00  0.00    +0.000 HD
ENDROOT
BRANCH   1   5
ATOM      5  C   UNL     1       0.982   9.219  20.106  0.00  0.00    +0.000 C 
BRANCH   5   6
ATOM      6  C   UNL     1       0.328   8.651  21.376  0.00  0.00    +0.000 C 
ATOM      7  O   UNL     1      -0.519   7.765  21.382  0.00  0.00    +0.000 OA
BRANCH   6   9
ATOM      8  C   UNL     1      -0.163   9.686  23.460  0.00  0.00    +0.000 C 
ATOM      9  O   UNL     1       0.801   9.307  22.474  0.00  0.00    +0.000 OA
ENDBRANCH   6   9
ENDBRANCH   5   6
BRANCH   5  10
ATOM     10  C   UNL     1      -0.046   9.672  19.062  0.00  0.00    +0.000 C 
BRANCH  10  11
ATOM     11  C   UNL     1      -0.955  10.799  19.553  0.00  0.00    +0.000 C 
BRANCH  11  12
ATOM     12  C   UNL     1      -0.590  12.149  18.934  0.00  0.00    +0.000 C 
BRANCH  12  13
ATOM     13  N   UNL     1       0.642  12.019  18.186  0.00  0.00    +0.000 N 
ATOM     14  C   UNL     1       1.838  12.534  18.527  0.00  0.00    +0.000 C 
ATOM     15  N   UNL     1       2.145  13.150  19.607  0.00  0.00    +0.000 NA
ATOM     16  N   UNL     1       2.775  12.361  17.577  0.00  0.00    +0.000 N 
ATOM     17  H   UNL     1       0.586  11.536  17.300  0.00  0.00    +0.000 HD
ATOM     18  H   UNL     1       1.321  13.209  20.205  0.00  0.00    +0.000 HD
ATOM     19  H   UNL     1       2.752  11.487  17.074  0.00  0.00    +0.000 HD
ATOM     20  H   UNL     1       3.696  12.566  17.950  0.00  0.00    +0.000 HD
ENDBRANCH  12  13
ENDBRANCH  11  12
ENDBRANCH  10  11
ENDBRANCH   5  10
ENDBRANCH   1   5
BRANCH   2  21
ATOM     21  C   UNL     1       3.465   7.273  17.903  0.00  0.00    +0.000 C 
BRANCH  21  22
ATOM     22  N   UNL     1       2.883   5.937  18.055  0.00  0.00    +0.000 N 
ATOM     23  C   UNL     1       3.373   5.036  18.954  0.00  0.00    +0.000 C 
ATOM     24  O   UNL     1       4.306   5.291  19.705  0.00  0.00    +0.000 OA
ATOM     25  H   UNL     1       2.113   5.664  17.450  0.00  0.00    +0.000 HD
BRANCH  23  26
ATOM     26  O   UNL     1       2.696   3.858  18.893  0.00  0.00    +0.000 OA
BRANCH  26  27
ATOM     27  C   UNL     1       1.822   3.487  19.999  0.00  0.00    +0.000 C 
ATOM     28  C   UNL     1       2.613   2.747  21.086  0.00  0.00    +0.000 C 
ATOM     29  C   UNL     1       1.288   4.797  20.609  0.00  0.00    +0.000 C 
ATOM     30  C   UNL     1       0.610   2.676  19.519  0.00  0.00    +0.000 C 
ENDBRANCH  26  27
ENDBRANCH  23  26
ENDBRANCH  21  22
BRANCH  21  31
ATOM     31  C   UNL     1       4.029   7.509  16.495  0.00  0.00    +0.000 C 
BRANCH  31  32
ATOM     32  C   UNL     1       5.238   6.684  16.218  0.00  0.00    +0.000 A 
ATOM     33  C   UNL     1       6.271   6.363  17.068  0.00  0.00    +0.000 A 
ATOM     34  N   UNL     1       7.071   5.517  16.358  0.00  0.00    +0.000 N 
ATOM     35  C   UNL     1       6.521   5.363  15.108  0.00  0.00    +0.000 A 
ATOM     36  N   UNL     1       5.417   6.074  14.996  0.00  0.00    +0.000 NA
ATOM     37  H   UNL     1       7.908   5.063  16.693  0.00  0.00    +0.000 HD
BRANCH  35  38
ATOM     38  C   UNL     1       7.149   4.477  14.074  0.00  0.00    +0.000 C 
ATOM     39  C   UNL     1       6.090   3.652  13.346  0.00  0.00    +0.000 C 
ATOM     40  C   UNL     1       7.975   5.298  13.086  0.00  0.00    +0.000 C 
ENDBRANCH  35  38
ENDBRANCH  31  32
ENDBRANCH  21  31
ENDBRANCH   2  21
TORSDOF 14
ENDMDL
MODEL 8
REMARK VINA RESULT:      -7.0      2.718      7.212
REMARK  Name = 
REMARK  20 active torsions:
REMARK  status: ('A' for Active; 'I' for Inactive)
REMARK    1  A    between atoms: C_1  and  O_2
REMARK    2  A    between atoms: O_2  and  C_3
REMARK    3  A    between atoms: C_3  and  C_5
REMARK    4  A    between atoms: C_5  and  C_6
REMARK    5  A    between atoms: C_5  and  N_13
REMARK    6  A    between atoms: C_6  and  C_7
REMARK    7  A    between atoms: C_7  and  C_8
REMARK    8  A    between atoms: C_8  and  N_9
REMARK    9  A    between atoms: C_14  and  C_16
REMARK   10  A    between atoms: C_16  and  C_17
REMARK   11  A    between atoms: C_16  and  N_26
REMARK   12  A    between atoms: C_17  and  C_18
REMARK   13  A    between atoms: C_21  and  C_22
REMARK   14  A    between atoms: C_22  and  C_23
REMARK   15  A    between atoms: C_22  and  C_24
REMARK   16  A    between atoms: C_27  and  O_29
REMARK   17  A    between atoms: O_29  and  C_30
REMARK   18  A    between atoms: C_30  and  C_31
REMARK   19  A    between atoms: C_30  and  C_32
REMARK   20  A    between atoms: C_30  and  C_33
REMARK                            x       y       z     vdW  Elec       q    Type
REMARK                         _______ _______ _______ _____ _____    ______ ____
ROOT
ATOM      1  N   UNL     1       3.638   5.986  18.594  0.00  0.00    +0.000 N 
ATOM      2  C   UNL     1       3.839   5.175  17.496  0.00  0.00    +0.000 C 
ATOM      3  O   UNL     1       2.968   4.426  17.066  0.00  0.00    +0.000 OA
ATOM      4  H   UNL     1       4.376   6.597  18.927  0.00  0.00    +0.000 HD
ENDROOT
BRANCH   1   5
ATOM      5  C   UNL     1       2.309   6.167  19.179  0.00  0.00    +0.000 C 
BRANCH   5   6
ATOM      6  C   UNL     1       2.023   7.673  19.288  0.00  0.00    +0.000 C 
ATOM      7  O   UNL     1       1.905   8.281  20.346  0.00  0.00    +0.000 OA
BRANCH   6   9
ATOM      8  C   UNL     1       2.005   9.631  17.938  0.00  0.00    +0.000 C 
ATOM      9  O   UNL     1       1.881   8.210  18.043  0.00  0.00    +0.000 OA
ENDBRANCH   6   9
ENDBRANCH   5   6
BRANCH   5  10
ATOM     10  C   UNL     1       2.237   5.450  20.533  0.00  0.00    +0.000 C 
BRANCH  10  11
ATOM     11  C   UNL     1       3.321   4.386  20.714  0.00  0.00    +0.000 C 
BRANCH  11  12
ATOM     12  C   UNL     1       2.733   2.989  20.917  0.00  0.00    +0.000 C 
BRANCH  12  13
ATOM     13  N   UNL     1       2.238   2.486  19.654  0.00  0.00    +0.000 N 
ATOM     14  C   UNL     1       2.957   1.839  18.718  0.00  0.00    +0.000 C 
ATOM     15  N   UNL     1       4.178   1.460  18.794  0.00  0.00    +0.000 NA
ATOM     16  N   UNL     1       2.262   1.604  17.591  0.00  0.00    +0.000 N 
ATOM     17  H   UNL     1       1.271   2.683  19.435  0.00  0.00    +0.000 HD
ATOM     18  H   UNL     1       4.558   1.732  19.700  0.00  0.00    +0.000 HD
ATOM     19  H   UNL     1       1.289   1.362  17.702  0.00  0.00    +0.000 HD
ATOM     20  H   UNL     1       2.757   0.940  17.005  0.00  0.00    +0.000 HD
ENDBRANCH  12  13
ENDBRANCH  11  12
ENDBRANCH  10  11
ENDBRANCH   5  10
ENDBRANCH   1   5
BRANCH   2  21
ATOM     21  C   UNL     1       5.255   5.228  16.890  0.00  0.00    +0.000 C 
BRANCH  21  22
ATOM     22  N   UNL     1       5.371   4.282  15.777  0.00  0.00    +0.000 N 
ATOM     23  C   UNL     1       6.542   4.103  15.102  0.00  0.00    +0.000 C 
ATOM     24  O   UNL     1       7.572   4.697  15.396  0.00  0.00    +0.000 OA
ATOM     25  H   UNL     1       4.545   3.769  15.480  0.00  0.00    +0.000 HD
BRANCH  23  26
ATOM     26  O   UNL     1       6.400   3.202  14.093  0.00  0.00    +0.000 OA
BRANCH  26  27
ATOM     27  C   UNL     1       6.401   3.679  12.716  0.00  0.00    +0.000 C 
ATOM     28  C   UNL     1       6.933   2.592  11.770  0.00  0.00    +0.000 C 
ATOM     29  C   UNL     1       4.936   3.963  12.336  0.00  0.00    +0.000 C 
ATOM     30  C   UNL     1       7.177   4.996  12.570  0.00  0.00    +0.000 C 
ENDBRANCH  26  27
ENDBRANCH  23  26
ENDBRANCH  21  22
BRANCH  21  31
ATOM     31  C   UNL     1       5.644   6.658  16.485  0.00  0.00    +0.000 C 
BRANCH  31  32
ATOM     32  C   UNL     1       6.728   7.218  17.340  0.00  0.00    +0.000 A 
ATOM     33  C   UNL     1       7.491   6.577  18.288  0.00  0.00    +0.000 A 
ATOM     34  N   UNL     1       8.393   7.507  18.713  0.00  0.00    +0.000 N 
ATOM     35  C   UNL     1       8.147   8.676  18.035  0.00  0.00    +0.000 A 
ATOM     36  N   UNL     1       7.130   8.528  17.208  0.00  0.00    +0.000 NA
ATOM     37  H   UNL     1       9.129   7.362  19.388  0.00  0.00    +0.000 HD
BRANCH  35  38
ATOM     38  C   UNL     1       8.976   9.906  18.255  0.00  0.00    +0.000 C 
ATOM     39  C   UNL     1       8.298  11.137  17.657  0.00  0.00    +0.000 C 
ATOM     40  C   UNL     1       9.261  10.109  19.742  0.00  0.00    +0.000 C 
ENDBRANCH  35  38
ENDBRANCH  31  32
ENDBRANCH  21  31
ENDBRANCH   2  21
TORSDOF 14
ENDMDL
MODEL 9
REMARK VINA RESULT:      -6.9      4.624      8.863
REMARK  Name = 
REMARK  20 active torsions:
REMARK  status: ('A' for Active; 'I' for Inactive)
REMARK    1  A    between atoms: C_1  and  O_2
REMARK    2  A    between atoms: O_2  and  C_3
REMARK    3  A    between atoms: C_3  and  C_5
REMARK    4  A    between atoms: C_5  and  C_6
REMARK    5  A    between atoms: C_5  and  N_13
REMARK    6  A    between atoms: C_6  and  C_7
REMARK    7  A    between atoms: C_7  and  C_8
REMARK    8  A    between atoms: C_8  and  N_9
REMARK    9  A    between atoms: C_14  and  C_16
REMARK   10  A    between atoms: C_16  and  C_17
REMARK   11  A    between atoms: C_16  and  N_26
REMARK   12  A    between atoms: C_17  and  C_18
REMARK   13  A    between atoms: C_21  and  C_22
REMARK   14  A    between atoms: C_22  and  C_23
REMARK   15  A    between atoms: C_22  and  C_24
REMARK   16  A    between atoms: C_27  and  O_29
REMARK   17  A    between atoms: O_29  and  C_30
REMARK   18  A    between atoms: C_30  and  C_31
REMARK   19  A    between atoms: C_30  and  C_32
REMARK   20  A    between atoms: C_30  and  C_33
REMARK                            x       y       z     vdW  Elec       q    Type
REMARK                         _______ _______ _______ _____ _____    ______ ____
ROOT
ATOM      1  N   UNL     1      -0.425   9.716  19.123  0.00  0.00    +0.000 N 
ATOM      2  C   UNL     1       0.882   9.274  19.135  0.00  0.00    +0.000 C 
ATOM      3  O   UNL     1       1.658   9.499  18.214  0.00  0.00    +0.000 OA
ATOM      4  H   UNL     1      -1.046   9.516  19.900  0.00  0.00    +0.000 HD
ENDROOT
BRANCH   1   5
ATOM      5  C   UNL     1      -0.902  10.666  18.117  0.00  0.00    +0.000 C 
BRANCH   5   6
ATOM      6  C   UNL     1      -1.450  11.908  18.837  0.00  0.00    +0.000 C 
ATOM      7  O   UNL     1      -2.391  11.895  19.623  0.00  0.00    +0.000 OA
BRANCH   6   9
ATOM      8  C   UNL     1       0.648  13.016  18.676  0.00  0.00    +0.000 C 
ATOM      9  O   UNL     1      -0.763  13.016  18.439  0.00  0.00    +0.000 OA
ENDBRANCH   6   9
ENDBRANCH   5   6
BRANCH   5  10
ATOM     10  C   UNL     1      -1.948   9.990  17.221  0.00  0.00    +0.000 C 
BRANCH  10  11
ATOM     11  C   UNL     1      -2.490  10.906  16.124  0.00  0.00    +0.000 C 
BRANCH  11  12
ATOM     12  C   UNL     1      -4.019  10.927  16.089  0.00  0.00    +0.000 C 
BRANCH  12  13
ATOM     13  N   UNL     1      -4.531  11.004  17.441  0.00  0.00    +0.000 N 
ATOM     14  C   UNL     1      -5.317  11.976  17.940  0.00  0.00    +0.000 C 
ATOM     15  N   UNL     1      -5.841  12.959  17.308  0.00  0.00    +0.000 NA
ATOM     16  N   UNL     1      -5.530  11.852  19.262  0.00  0.00    +0.000 N 
ATOM     17  H   UNL     1      -4.228  10.284  18.083  0.00  0.00    +0.000 HD
ATOM     18  H   UNL     1      -5.565  12.912  16.328  0.00  0.00    +0.000 HD
ATOM     19  H   UNL     1      -5.640  10.914  19.616  0.00  0.00    +0.000 HD
ATOM     20  H   UNL     1      -6.285  12.464  19.555  0.00  0.00    +0.000 HD
ENDBRANCH  12  13
ENDBRANCH  11  12
ENDBRANCH  10  11
ENDBRANCH   5  10
ENDBRANCH   1   5
BRANCH   2  21
ATOM     21  C   UNL     1       1.275   8.420  20.357  0.00  0.00    +0.000 C 
BRANCH  21  22
ATOM     22  N   UNL     1       2.349   7.487  20.004  0.00  0.00    +0.000 N 
ATOM     23  C   UNL     1       2.217   6.140  20.175  0.00  0.00    +0.000 C 
ATOM     24  O   UNL     1       1.193   5.625  20.605  0.00  0.00    +0.000 OA
ATOM     25  H   UNL     1       3.227   7.858  19.654  0.00  0.00    +0.000 HD
BRANCH  23  26
ATOM     26  O   UNL     1       3.350   5.482  19.810  0.00  0.00    +0.000 OA
BRANCH  26  27
ATOM     27  C   UNL     1       3.551   5.148  18.405  0.00  0.00    +0.000 C 
ATOM     28  C   UNL     1       4.583   4.020  18.262  0.00  0.00    +0.000 C 
ATOM     29  C   UNL     1       2.204   4.631  17.868  0.00  0.00    +0.000 C 
ATOM     30  C   UNL     1       3.933   6.383  17.577  0.00  0.00    +0.000 C 
ENDBRANCH  26  27
ENDBRANCH  23  26
ENDBRANCH  21  22
BRANCH  21  31
ATOM     31  C   UNL     1       1.635   9.295  21.567  0.00  0.00    +0.000 C 
BRANCH  31  32
ATOM     32  C   UNL     1       0.437   9.915  22.199  0.00  0.00    +0.000 A 
ATOM     33  C   UNL     1      -0.523   9.319  22.984  0.00  0.00    +0.000 A 
ATOM     34  N   UNL     1      -1.343  10.334  23.381  0.00  0.00    +0.000 N 
ATOM     35  C   UNL     1      -0.877  11.499  22.821  0.00  0.00    +0.000 A 
ATOM     36  N   UNL     1       0.193  11.265  22.087  0.00  0.00    +0.000 NA
ATOM     37  H   UNL     1      -2.140  10.254  23.996  0.00  0.00    +0.000 HD
BRANCH  35  38
ATOM     38  C   UNL     1      -1.547  12.817  23.070  0.00  0.00    +0.000 C 
ATOM     39  C   UNL     1      -1.001  13.893  22.133  0.00  0.00    +0.000 C 
ATOM     40  C   UNL     1      -3.063  12.691  22.930  0.00  0.00    +0.000 C 
ENDBRANCH  35  38
ENDBRANCH  31  32
ENDBRANCH  21  31
ENDBRANCH   2  21
TORSDOF 14
ENDMDL
