MODEL 1
REMARK VINA RESULT:      -8.2      0.000      0.000
REMARK  Name = 
REMARK  5 active torsions:
REMARK  status: ('A' for Active; 'I' for Inactive)
REMARK    1  A    between atoms: C_1  and  C_2
REMARK    2  A    between atoms: C_8  and  O_9
REMARK    3  A    between atoms: O_9  and  C_10
REMARK    4  A    between atoms: C_10  and  C_11
REMARK    5  A    between atoms: C_14  and  C_15
REMARK                            x       y       z     vdW  Elec       q    Type
REMARK                         _______ _______ _______ _____ _____    ______ ____
ROOT
ATOM      1  C   UNL     1       5.878   4.273  17.984  0.00  0.00    +0.000 A 
ATOM      2  N   UNL     1       7.138   4.594  18.197  0.00  0.00    +0.000 NA
ATOM      3  N   UNL     1       7.720   4.726  16.954  0.00  0.00    +0.000 NA
ATOM      4  C   UNL     1       6.780   4.472  16.065  0.00  0.00    +0.000 A 
ATOM      5  O   UNL     1       5.575   4.173  16.649  0.00  0.00    +0.000 OA
ENDROOT
BRANCH   4   6
ATOM      6  C   UNL     1       6.854   4.450  14.610  0.00  0.00    +0.000 A 
ATOM      7  C   UNL     1       7.729   5.286  13.894  0.00  0.00    +0.000 A 
ATOM      8  C   UNL     1       7.797   5.225  12.498  0.00  0.00    +0.000 A 
ATOM      9  C   UNL     1       6.986   4.333  11.801  0.00  0.00    +0.000 A 
ATOM     10  C   UNL     1       6.111   3.514  12.504  0.00  0.00    +0.000 A 
ATOM     11  F   UNL     1       5.328   2.659  11.834  0.00  0.00    +0.000 F 
ATOM     12  C   UNL     1       6.036   3.566  13.892  0.00  0.00    +0.000 A 
ENDBRANCH   4   6
BRANCH   1  13
ATOM     13  C   UNL     1       4.827   3.881  18.957  0.00  0.00    +0.000 C 
BRANCH  13  14
ATOM     14  O   UNL     1       3.572   4.322  18.462  0.00  0.00    +0.000 OA
BRANCH  14  22
ATOM     15  C   UNL     1       2.029   4.360  21.245  0.00  0.00    +0.000 C 
ATOM     16  C   UNL     1       2.232   5.475  20.255  0.00  0.00    +0.000 A 
ATOM     17  C   UNL     1       1.649   6.715  20.608  0.00  0.00    +0.000 A 
ATOM     18  C   UNL     1       1.754   7.834  19.784  0.00  0.00    +0.000 A 
ATOM     19 CL   UNL     1       1.019   9.316  20.254  0.00  0.00    +0.000 Cl
ATOM     20  C   UNL     1       2.447   7.749  18.590  0.00  0.00    +0.000 A 
ATOM     21  C   UNL     1       3.030   6.535  18.226  0.00  0.00    +0.000 A 
ATOM     22  C   UNL     1       2.934   5.388  19.040  0.00  0.00    +0.000 A 
ENDBRANCH  14  22
ENDBRANCH  13  14
ENDBRANCH   1  13
TORSDOF 4
ENDMDL
MODEL 2
REMARK VINA RESULT:      -8.1      2.304      3.237
REMARK  Name = 
REMARK  5 active torsions:
REMARK  status: ('A' for Active; 'I' for Inactive)
REMARK    1  A    between atoms: C_1  and  C_2
REMARK    2  A    between atoms: C_8  and  O_9
REMARK    3  A    between atoms: O_9  and  C_10
REMARK    4  A    between atoms: C_10  and  C_11
REMARK    5  A    between atoms: C_14  and  C_15
REMARK                            x       y       z     vdW  Elec       q    Type
REMARK                         _______ _______ _______ _____ _____    ______ ____
ROOT
ATOM      1  C   UNL     1       6.927   4.849  16.251  0.00  0.00    +0.000 A 
ATOM      2  N   UNL     1       7.570   5.784  15.583  0.00  0.00    +0.000 NA
ATOM      3  N   UNL     1       7.406   5.487  14.246  0.00  0.00    +0.000 NA
ATOM      4  C   UNL     1       6.676   4.391  14.187  0.00  0.00    +0.000 A 
ATOM      5  O   UNL     1       6.334   3.922  15.430  0.00  0.00    +0.000 OA
ENDROOT
BRANCH   4   6
ATOM      6  C   UNL     1       6.224   3.633  13.027  0.00  0.00    +0.000 A 
ATOM      7  C   UNL     1       7.092   2.806  12.291  0.00  0.00    +0.000 A 
ATOM      8  C   UNL     1       6.624   2.070  11.196  0.00  0.00    +0.000 A 
ATOM      9  C   UNL     1       5.286   2.158  10.821  0.00  0.00    +0.000 A 
ATOM     10  C   UNL     1       4.429   2.984  11.539  0.00  0.00    +0.000 A 
ATOM     11  F   UNL     1       3.143   3.071  11.175  0.00  0.00    +0.000 F 
ATOM     12  C   UNL     1       4.883   3.718  12.629  0.00  0.00    +0.000 A 
ENDBRANCH   4   6
BRANCH   1  13
ATOM     13  C   UNL     1       6.881   4.596  17.714  0.00  0.00    +0.000 C 
BRANCH  13  14
ATOM     14  O   UNL     1       5.834   5.375  18.272  0.00  0.00    +0.000 OA
BRANCH  14  22
ATOM     15  C   UNL     1       3.127   7.004  17.892  0.00  0.00    +0.000 C 
ATOM     16  C   UNL     1       3.323   5.540  18.176  0.00  0.00    +0.000 A 
ATOM     17  C   UNL     1       2.136   4.779  18.298  0.00  0.00    +0.000 A 
ATOM     18  C   UNL     1       2.167   3.412  18.565  0.00  0.00    +0.000 A 
ATOM     19 CL   UNL     1       0.696   2.535  18.713  0.00  0.00    +0.000 Cl
ATOM     20  C   UNL     1       3.381   2.764  18.710  0.00  0.00    +0.000 A 
ATOM     21  C   UNL     1       4.562   3.498  18.591  0.00  0.00    +0.000 A 
ATOM     22  C   UNL     1       4.556   4.882  18.327  0.00  0.00    +0.000 A 
ENDBRANCH  14  22
ENDBRANCH  13  14
ENDBRANCH   1  13
TORSDOF 4
ENDMDL
MODEL 3
REMARK VINA RESULT:      -8.1      0.510      1.544
REMARK  Name = 
REMARK  5 active torsions:
REMARK  status: ('A' for Active; 'I' for Inactive)
REMARK    1  A    between atoms: C_1  and  C_2
REMARK    2  A    between atoms: C_8  and  O_9
REMARK    3  A    between atoms: O_9  and  C_10
REMARK    4  A    between atoms: C_10  and  C_11
REMARK    5  A    between atoms: C_14  and  C_15
REMARK                            x       y       z     vdW  Elec       q    Type
REMARK                         _______ _______ _______ _____ _____    ______ ____
ROOT
ATOM      1  C   UNL     1       5.917   4.250  18.049  0.00  0.00    +0.000 A 
ATOM      2  N   UNL     1       7.170   4.603  18.250  0.00  0.00    +0.000 NA
ATOM      3  N   UNL     1       7.737   4.746  17.001  0.00  0.00    +0.000 NA
ATOM      4  C   UNL     1       6.795   4.467  16.122  0.00  0.00    +0.000 A 
ATOM      5  O   UNL     1       5.604   4.138  16.718  0.00  0.00    +0.000 OA
ENDROOT
BRANCH   4   6
ATOM      6  C   UNL     1       6.856   4.442  14.666  0.00  0.00    +0.000 A 
ATOM      7  C   UNL     1       7.715   5.287  13.940  0.00  0.00    +0.000 A 
ATOM      8  C   UNL     1       7.771   5.224  12.544  0.00  0.00    +0.000 A 
ATOM      9  C   UNL     1       6.964   4.321  11.856  0.00  0.00    +0.000 A 
ATOM     10  C   UNL     1       6.105   3.494  12.569  0.00  0.00    +0.000 A 
ATOM     11  F   UNL     1       5.325   2.629  11.908  0.00  0.00    +0.000 F 
ATOM     12  C   UNL     1       6.042   3.548  13.957  0.00  0.00    +0.000 A 
ENDBRANCH   4   6
BRANCH   1  13
ATOM     13  C   UNL     1       4.885   3.834  19.033  0.00  0.00    +0.000 C 
BRANCH  13  14
ATOM     14  O   UNL     1       3.613   4.234  18.545  0.00  0.00    +0.000 OA
BRANCH  14  22
ATOM     15  C   UNL     1       3.766   7.221  17.459  0.00  0.00    +0.000 C 
ATOM     16  C   UNL     1       3.013   6.677  18.642  0.00  0.00    +0.000 A 
ATOM     17  C   UNL     1       2.272   7.629  19.382  0.00  0.00    +0.000 A 
ATOM     18  C   UNL     1       1.531   7.268  20.505  0.00  0.00    +0.000 A 
ATOM     19 CL   UNL     1       0.656   8.466  21.375  0.00  0.00    +0.000 Cl
ATOM     20  C   UNL     1       1.502   5.948  20.918  0.00  0.00    +0.000 A 
ATOM     21  C   UNL     1       2.225   4.995  20.199  0.00  0.00    +0.000 A 
ATOM     22  C   UNL     1       2.986   5.336  19.064  0.00  0.00    +0.000 A 
ENDBRANCH  14  22
ENDBRANCH  13  14
ENDBRANCH   1  13
TORSDOF 4
ENDMDL
MODEL 4
REMARK VINA RESULT:      -8.1      2.301      3.330
REMARK  Name = 
REMARK  5 active torsions:
REMARK  status: ('A' for Active; 'I' for Inactive)
REMARK    1  A    between atoms: C_1  and  C_2
REMARK    2  A    between atoms: C_8  and  O_9
REMARK    3  A    between atoms: O_9  and  C_10
REMARK    4  A    between atoms: C_10  and  C_11
REMARK    5  A    between atoms: C_14  and  C_15
REMARK                            x       y       z     vdW  Elec       q    Type
REMARK                         _______ _______ _______ _____ _____    ______ ____
ROOT
ATOM      1  C   UNL     1       6.753   4.863  16.124  0.00  0.00    +0.000 A 
ATOM      2  N   UNL     1       7.596   5.589  15.419  0.00  0.00    +0.000 NA
ATOM      3  N   UNL     1       7.391   5.249  14.098  0.00  0.00    +0.000 NA
ATOM      4  C   UNL     1       6.440   4.336  14.085  0.00  0.00    +0.000 A 
ATOM      5  O   UNL     1       5.985   4.036  15.344  0.00  0.00    +0.000 OA
ENDROOT
BRANCH   4   6
ATOM      6  C   UNL     1       5.850   3.620  12.961  0.00  0.00    +0.000 A 
ATOM      7  C   UNL     1       4.594   3.966  12.431  0.00  0.00    +0.000 A 
ATOM      8  C   UNL     1       4.063   3.277  11.335  0.00  0.00    +0.000 A 
ATOM      9  C   UNL     1       4.779   2.230  10.760  0.00  0.00    +0.000 A 
ATOM     10  C   UNL     1       6.015   1.877  11.289  0.00  0.00    +0.000 A 
ATOM     11  F   UNL     1       6.701   0.867  10.739  0.00  0.00    +0.000 F 
ATOM     12  C   UNL     1       6.552   2.556  12.377  0.00  0.00    +0.000 A 
ENDBRANCH   4   6
BRANCH   1  13
ATOM     13  C   UNL     1       6.632   4.724  17.597  0.00  0.00    +0.000 C 
BRANCH  13  14
ATOM     14  O   UNL     1       5.530   5.506  18.033  0.00  0.00    +0.000 OA
BRANCH  14  22
ATOM     15  C   UNL     1       2.724   7.002  18.122  0.00  0.00    +0.000 C 
ATOM     16  C   UNL     1       3.022   5.532  18.244  0.00  0.00    +0.000 A 
ATOM     17  C   UNL     1       1.895   4.697  18.432  0.00  0.00    +0.000 A 
ATOM     18  C   UNL     1       2.023   3.316  18.565  0.00  0.00    +0.000 A 
ATOM     19 CL   UNL     1       0.623   2.345  18.801  0.00  0.00    +0.000 Cl
ATOM     20  C   UNL     1       3.275   2.729  18.508  0.00  0.00    +0.000 A 
ATOM     21  C   UNL     1       4.397   3.538  18.322  0.00  0.00    +0.000 A 
ATOM     22  C   UNL     1       4.294   4.937  18.190  0.00  0.00    +0.000 A 
ENDBRANCH  14  22
ENDBRANCH  13  14
ENDBRANCH   1  13
TORSDOF 4
ENDMDL
MODEL 5
REMARK VINA RESULT:      -7.9      2.099      2.956
REMARK  Name = 
REMARK  5 active torsions:
REMARK  status: ('A' for Active; 'I' for Inactive)
REMARK    1  A    between atoms: C_1  and  C_2
REMARK    2  A    between atoms: C_8  and  O_9
REMARK    3  A    between atoms: O_9  and  C_10
REMARK    4  A    between atoms: C_10  and  C_11
REMARK    5  A    between atoms: C_14  and  C_15
REMARK                            x       y       z     vdW  Elec       q    Type
REMARK                         _______ _______ _______ _____ _____    ______ ____
ROOT
ATOM      1  C   UNL     1       5.967   6.066  16.301  0.00  0.00    +0.000 A 
ATOM      2  N   UNL     1       7.277   6.016  16.177  0.00  0.00    +0.000 NA
ATOM      3  N   UNL     1       7.531   5.257  15.053  0.00  0.00    +0.000 NA
ATOM      4  C   UNL     1       6.360   4.892  14.569  0.00  0.00    +0.000 A 
ATOM      5  O   UNL     1       5.313   5.370  15.316  0.00  0.00    +0.000 OA
ENDROOT
BRANCH   4   6
ATOM      6  C   UNL     1       6.047   4.068  13.409  0.00  0.00    +0.000 A 
ATOM      7  C   UNL     1       4.730   3.903  12.944  0.00  0.00    +0.000 A 
ATOM      8  C   UNL     1       4.461   3.125  11.812  0.00  0.00    +0.000 A 
ATOM      9  C   UNL     1       5.505   2.498  11.136  0.00  0.00    +0.000 A 
ATOM     10  C   UNL     1       6.806   2.649  11.600  0.00  0.00    +0.000 A 
ATOM     11  F   UNL     1       7.810   2.043  10.953  0.00  0.00    +0.000 F 
ATOM     12  C   UNL     1       7.084   3.420  12.723  0.00  0.00    +0.000 A 
ENDBRANCH   4   6
BRANCH   1  13
ATOM     13  C   UNL     1       5.145   6.631  17.401  0.00  0.00    +0.000 C 
BRANCH  13  14
ATOM     14  O   UNL     1       3.848   6.058  17.332  0.00  0.00    +0.000 OA
BRANCH  14  22
ATOM     15  C   UNL     1       2.158   7.437  19.649  0.00  0.00    +0.000 C 
ATOM     16  C   UNL     1       2.551   5.993  19.489  0.00  0.00    +0.000 A 
ATOM     17  C   UNL     1       2.112   5.126  20.518  0.00  0.00    +0.000 A 
ATOM     18  C   UNL     1       2.407   3.764  20.502  0.00  0.00    +0.000 A 
ATOM     19 CL   UNL     1       1.859   2.755  21.781  0.00  0.00    +0.000 Cl
ATOM     20  C   UNL     1       3.140   3.228  19.458  0.00  0.00    +0.000 A 
ATOM     21  C   UNL     1       3.579   4.068  18.434  0.00  0.00    +0.000 A 
ATOM     22  C   UNL     1       3.298   5.450  18.430  0.00  0.00    +0.000 A 
ENDBRANCH  14  22
ENDBRANCH  13  14
ENDBRANCH   1  13
TORSDOF 4
ENDMDL
MODEL 6
REMARK VINA RESULT:      -7.9      1.960      2.648
REMARK  Name = 
REMARK  5 active torsions:
REMARK  status: ('A' for Active; 'I' for Inactive)
REMARK    1  A    between atoms: C_1  and  C_2
REMARK    2  A    between atoms: C_8  and  O_9
REMARK    3  A    between atoms: O_9  and  C_10
REMARK    4  A    between atoms: C_10  and  C_11
REMARK    5  A    between atoms: C_14  and  C_15
REMARK                            x       y       z     vdW  Elec       q    Type
REMARK                         _______ _______ _______ _____ _____    ______ ____
ROOT
ATOM      1  C   UNL     1       5.624   6.126  17.226  0.00  0.00    +0.000 A 
ATOM      2  N   UNL     1       6.712   5.544  17.687  0.00  0.00    +0.000 NA
ATOM      3  N   UNL     1       7.310   4.929  16.606  0.00  0.00    +0.000 NA
ATOM      4  C   UNL     1       6.547   5.174  15.560  0.00  0.00    +0.000 A 
ATOM      5  O   UNL     1       5.449   5.932  15.878  0.00  0.00    +0.000 OA
ENDROOT
BRANCH   4   6
ATOM      6  C   UNL     1       6.699   4.747  14.174  0.00  0.00    +0.000 A 
ATOM      7  C   UNL     1       7.651   5.325  13.315  0.00  0.00    +0.000 A 
ATOM      8  C   UNL     1       7.792   4.878  11.997  0.00  0.00    +0.000 A 
ATOM      9  C   UNL     1       6.979   3.852  11.520  0.00  0.00    +0.000 A 
ATOM     10  C   UNL     1       6.029   3.288  12.363  0.00  0.00    +0.000 A 
ATOM     11  F   UNL     1       5.243   2.306  11.903  0.00  0.00    +0.000 F 
ATOM     12  C   UNL     1       5.881   3.725  13.675  0.00  0.00    +0.000 A 
ENDBRANCH   4   6
BRANCH   1  13
ATOM     13  C   UNL     1       4.536   6.813  17.966  0.00  0.00    +0.000 C 
BRANCH  13  14
ATOM     14  O   UNL     1       3.327   6.101  17.750  0.00  0.00    +0.000 OA
BRANCH  14  22
ATOM     15  C   UNL     1       3.828   2.972  17.463  0.00  0.00    +0.000 C 
ATOM     16  C   UNL     1       3.116   3.725  18.554  0.00  0.00    +0.000 A 
ATOM     17  C   UNL     1       2.589   2.928  19.598  0.00  0.00    +0.000 A 
ATOM     18  C   UNL     1       1.901   3.491  20.671  0.00  0.00    +0.000 A 
ATOM     19 CL   UNL     1       1.271   2.478  21.910  0.00  0.00    +0.000 Cl
ATOM     20  C   UNL     1       1.726   4.862  20.737  0.00  0.00    +0.000 A 
ATOM     21  C   UNL     1       2.241   5.663  19.717  0.00  0.00    +0.000 A 
ATOM     22  C   UNL     1       2.936   5.117  18.619  0.00  0.00    +0.000 A 
ENDBRANCH  14  22
ENDBRANCH  13  14
ENDBRANCH   1  13
TORSDOF 4
ENDMDL
MODEL 7
REMARK VINA RESULT:      -7.9      1.135      2.109
REMARK  Name = 
REMARK  5 active torsions:
REMARK  status: ('A' for Active; 'I' for Inactive)
REMARK    1  A    between atoms: C_1  and  C_2
REMARK    2  A    between atoms: C_8  and  O_9
REMARK    3  A    between atoms: O_9  and  C_10
REMARK    4  A    between atoms: C_10  and  C_11
REMARK    5  A    between atoms: C_14  and  C_15
REMARK                            x       y       z     vdW  Elec       q    Type
REMARK                         _______ _______ _______ _____ _____    ______ ____
ROOT
ATOM      1  C   UNL     1       5.890   4.208  18.075  0.00  0.00    +0.000 A 
ATOM      2  N   UNL     1       7.126   4.615  18.278  0.00  0.00    +0.000 NA
ATOM      3  N   UNL     1       7.692   4.771  17.030  0.00  0.00    +0.000 NA
ATOM      4  C   UNL     1       6.766   4.446  16.149  0.00  0.00    +0.000 A 
ATOM      5  O   UNL     1       5.587   4.073  16.743  0.00  0.00    +0.000 OA
ENDROOT
BRANCH   4   6
ATOM      6  C   UNL     1       6.834   4.413  14.694  0.00  0.00    +0.000 A 
ATOM      7  C   UNL     1       6.103   3.483  13.933  0.00  0.00    +0.000 A 
ATOM      8  C   UNL     1       6.168   3.490  12.536  0.00  0.00    +0.000 A 
ATOM      9  C   UNL     1       6.969   4.424  11.882  0.00  0.00    +0.000 A 
ATOM     10  C   UNL     1       7.702   5.336  12.631  0.00  0.00    +0.000 A 
ATOM     11  F   UNL     1       8.477   6.230  12.003  0.00  0.00    +0.000 F 
ATOM     12  C   UNL     1       7.644   5.338  14.021  0.00  0.00    +0.000 A 
ENDBRANCH   4   6
BRANCH   1  13
ATOM     13  C   UNL     1       4.872   3.757  19.058  0.00  0.00    +0.000 C 
BRANCH  13  14
ATOM     14  O   UNL     1       3.591   4.151  18.589  0.00  0.00    +0.000 OA
BRANCH  14  22
ATOM     15  C   UNL     1       3.807   7.104  17.425  0.00  0.00    +0.000 C 
ATOM     16  C   UNL     1       3.045   6.608  18.624  0.00  0.00    +0.000 A 
ATOM     17  C   UNL     1       2.328   7.596  19.339  0.00  0.00    +0.000 A 
ATOM     18  C   UNL     1       1.581   7.281  20.473  0.00  0.00    +0.000 A 
ATOM     19 CL   UNL     1       0.735   8.520  21.312  0.00  0.00    +0.000 Cl
ATOM     20  C   UNL     1       1.524   5.973  20.920  0.00  0.00    +0.000 A 
ATOM     21  C   UNL     1       2.224   4.986  20.226  0.00  0.00    +0.000 A 
ATOM     22  C   UNL     1       2.989   5.280  19.080  0.00  0.00    +0.000 A 
ENDBRANCH  14  22
ENDBRANCH  13  14
ENDBRANCH   1  13
TORSDOF 4
ENDMDL
MODEL 8
REMARK VINA RESULT:      -7.8      5.677      6.753
REMARK  Name = 
REMARK  5 active torsions:
REMARK  status: ('A' for Active; 'I' for Inactive)
REMARK    1  A    between atoms: C_1  and  C_2
REMARK    2  A    between atoms: C_8  and  O_9
REMARK    3  A    between atoms: O_9  and  C_10
REMARK    4  A    between atoms: C_10  and  C_11
REMARK    5  A    between atoms: C_14  and  C_15
REMARK                            x       y       z     vdW  Elec       q    Type
REMARK                         _______ _______ _______ _____ _____    ______ ____
ROOT
ATOM      1  C   UNL     1       7.644   6.866  18.137  0.00  0.00    +0.000 A 
ATOM      2  N   UNL     1       7.120   7.482  17.097  0.00  0.00    +0.000 NA
ATOM      3  N   UNL     1       7.599   8.775  17.132  0.00  0.00    +0.000 NA
ATOM      4  C   UNL     1       8.379   8.864  18.190  0.00  0.00    +0.000 A 
ATOM      5  O   UNL     1       8.456   7.682  18.884  0.00  0.00    +0.000 OA
ENDROOT
BRANCH   4   6
ATOM      6  C   UNL     1       9.122  10.005  18.709  0.00  0.00    +0.000 A 
ATOM      7  C   UNL     1       9.200  10.282  20.086  0.00  0.00    +0.000 A 
ATOM      8  C   UNL     1       9.940  11.372  20.557  0.00  0.00    +0.000 A 
ATOM      9  C   UNL     1      10.607  12.200  19.658  0.00  0.00    +0.000 A 
ATOM     10  C   UNL     1      10.522  11.936  18.296  0.00  0.00    +0.000 A 
ATOM     11  F   UNL     1      11.160  12.735  17.431  0.00  0.00    +0.000 F 
ATOM     12  C   UNL     1       9.789  10.856  17.817  0.00  0.00    +0.000 A 
ENDBRANCH   4   6
BRANCH   1  13
ATOM     13  C   UNL     1       7.370   5.505  18.663  0.00  0.00    +0.000 C 
BRANCH  13  14
ATOM     14  O   UNL     1       6.224   5.569  19.498  0.00  0.00    +0.000 OA
BRANCH  14  22
ATOM     15  C   UNL     1       3.831   6.893  17.872  0.00  0.00    +0.000 C 
ATOM     16  C   UNL     1       3.957   5.492  18.405  0.00  0.00    +0.000 A 
ATOM     17  C   UNL     1       2.852   4.644  18.154  0.00  0.00    +0.000 A 
ATOM     18  C   UNL     1       2.829   3.323  18.594  0.00  0.00    +0.000 A 
ATOM     19 CL   UNL     1       1.459   2.336  18.271  0.00  0.00    +0.000 Cl
ATOM     20  C   UNL     1       3.909   2.808  19.290  0.00  0.00    +0.000 A 
ATOM     21  C   UNL     1       5.008   3.629  19.545  0.00  0.00    +0.000 A 
ATOM     22  C   UNL     1       5.052   4.970  19.115  0.00  0.00    +0.000 A 
ENDBRANCH  14  22
ENDBRANCH  13  14
ENDBRANCH   1  13
TORSDOF 4
ENDMDL
MODEL 9
REMARK VINA RESULT:      -7.8      3.574      7.521
REMARK  Name = 
REMARK  5 active torsions:
REMARK  status: ('A' for Active; 'I' for Inactive)
REMARK    1  A    between atoms: C_1  and  C_2
REMARK    2  A    between atoms: C_8  and  O_9
REMARK    3  A    between atoms: O_9  and  C_10
REMARK    4  A    between atoms: C_10  and  C_11
REMARK    5  A    between atoms: C_14  and  C_15
REMARK                            x       y       z     vdW  Elec       q    Type
REMARK                         _______ _______ _______ _____ _____    ______ ____
ROOT
ATOM      1  C   UNL     1       5.794   5.638  17.367  0.00  0.00    +0.000 A 
ATOM      2  N   UNL     1       5.049   6.682  17.066  0.00  0.00    +0.000 NA
ATOM      3  N   UNL     1       3.820   6.463  17.653  0.00  0.00    +0.000 NA
ATOM      4  C   UNL     1       3.895   5.300  18.269  0.00  0.00    +0.000 A 
ATOM      5  O   UNL     1       5.126   4.712  18.129  0.00  0.00    +0.000 OA
ENDROOT
BRANCH   4   6
ATOM      6  C   UNL     1       2.880   4.580  19.028  0.00  0.00    +0.000 A 
ATOM      7  C   UNL     1       2.710   4.768  20.412  0.00  0.00    +0.000 A 
ATOM      8  C   UNL     1       1.710   4.082  21.111  0.00  0.00    +0.000 A 
ATOM      9  C   UNL     1       0.874   3.196  20.436  0.00  0.00    +0.000 A 
ATOM     10  C   UNL     1       1.048   2.998  19.072  0.00  0.00    +0.000 A 
ATOM     11  F   UNL     1       0.247   2.143  18.423  0.00  0.00    +0.000 F 
ATOM     12  C   UNL     1       2.038   3.676  18.367  0.00  0.00    +0.000 A 
ENDBRANCH   4   6
BRANCH   1  13
ATOM     13  C   UNL     1       7.154   5.281  16.891  0.00  0.00    +0.000 C 
BRANCH  13  14
ATOM     14  O   UNL     1       7.325   5.811  15.585  0.00  0.00    +0.000 OA
BRANCH  14  22
ATOM     15  C   UNL     1       8.680   5.941  12.709  0.00  0.00    +0.000 C 
ATOM     16  C   UNL     1       7.552   5.069  13.190  0.00  0.00    +0.000 A 
ATOM     17  C   UNL     1       7.013   4.186  12.225  0.00  0.00    +0.000 A 
ATOM     18  C   UNL     1       5.961   3.324  12.529  0.00  0.00    +0.000 A 
ATOM     19 CL   UNL     1       5.335   2.276  11.318  0.00  0.00    +0.000 Cl
ATOM     20  C   UNL     1       5.424   3.313  13.804  0.00  0.00    +0.000 A 
ATOM     21  C   UNL     1       5.945   4.176  14.769  0.00  0.00    +0.000 A 
ATOM     22  C   UNL     1       7.004   5.061  14.484  0.00  0.00    +0.000 A 
ENDBRANCH  14  22
ENDBRANCH  13  14
ENDBRANCH   1  13
TORSDOF 4
ENDMDL
