MODEL 1
REMARK VINA RESULT:      -9.6      0.000      0.000
REMARK  Name = 
REMARK  4 active torsions:
REMARK  status: ('A' for Active; 'I' for Inactive)
REMARK    1  A    between atoms: C_1  and  C_2
REMARK    2  A    between atoms: C_6  and  N_7
REMARK    3  A    between atoms: N_16  and  C_17
REMARK    4  A    between atoms: C_17  and  C_19
REMARK                            x       y       z     vdW  Elec       q    Type
REMARK                         _______ _______ _______ _____ _____    ______ ____
ROOT
ATOM      1  N   UNL     1       2.429   5.340  17.987  0.00  0.00    +0.000 N 
ATOM      2  C   UNL     1       1.365   4.335  17.885  0.00  0.00    +0.000 C 
ATOM      3  C   UNL     1       1.785   3.362  18.948  0.00  0.00    +0.000 A 
ATOM      4  C   UNL     1       0.858   2.701  19.750  0.00  0.00    +0.000 A 
ATOM      5  C   UNL     1       1.225   2.459  21.061  0.00  0.00    +0.000 A 
ATOM      6  C   UNL     1       2.516   2.822  21.502  0.00  0.00    +0.000 A 
ATOM      7  C   UNL     1       3.488   3.367  20.623  0.00  0.00    +0.000 A 
ATOM      8  C   UNL     1       3.143   3.587  19.301  0.00  0.00    +0.000 A 
ATOM      9  C   UNL     1       3.593   4.669  18.371  0.00  0.00    +0.000 C 
ATOM     10  N   UNL     1       4.655   5.088  17.768  0.00  0.00    +0.000 NA
ENDROOT
BRANCH   1  16
ATOM     11  C   UNL     1       1.768  10.189  17.932  0.00  0.00    +0.000 C 
ATOM     12  C   UNL     1       1.851   8.931  18.726  0.00  0.00    +0.000 A 
ATOM     13  C   UNL     1       1.479   8.880  20.067  0.00  0.00    +0.000 A 
ATOM     14  C   UNL     1       1.582   7.688  20.781  0.00  0.00    +0.000 A 
ATOM     15  C   UNL     1       1.945   6.510  20.134  0.00  0.00    +0.000 A 
ATOM     16  C   UNL     1       2.186   6.507  18.756  0.00  0.00    +0.000 A 
ATOM     17  C   UNL     1       2.230   7.743  18.094  0.00  0.00    +0.000 A 
ENDBRANCH   1  16
BRANCH  10  18
ATOM     18  C   UNL     1       5.939   4.711  17.649  0.00  0.00    +0.000 C 
ATOM     19  O   UNL     1       6.721   4.441  18.545  0.00  0.00    +0.000 OA
BRANCH  18  20
ATOM     20  C   UNL     1       6.326   4.639  16.181  0.00  0.00    +0.000 A 
ATOM     21  C   UNL     1       5.634   3.830  15.253  0.00  0.00    +0.000 A 
ATOM     22  C   UNL     1       5.989   3.830  13.897  0.00  0.00    +0.000 A 
ATOM     23  C   UNL     1       7.047   4.632  13.515  0.00  0.00    +0.000 A 
ATOM     24 CL   UNL     1       7.539   4.708  11.873  0.00  0.00    +0.000 Cl
ATOM     25  N   UNL     1       7.751   5.411  14.371  0.00  0.00    +0.000 NA
ATOM     26  C   UNL     1       7.378   5.388  15.677  0.00  0.00    +0.000 A 
ENDBRANCH  18  20
ENDBRANCH  10  18
TORSDOF 3
ENDMDL
MODEL 2
REMARK VINA RESULT:      -8.9      3.663      6.999
REMARK  Name = 
REMARK  4 active torsions:
REMARK  status: ('A' for Active; 'I' for Inactive)
REMARK    1  A    between atoms: C_1  and  C_2
REMARK    2  A    between atoms: C_6  and  N_7
REMARK    3  A    between atoms: N_16  and  C_17
REMARK    4  A    between atoms: C_17  and  C_19
REMARK                            x       y       z     vdW  Elec       q    Type
REMARK                         _______ _______ _______ _____ _____    ______ ____
ROOT
ATOM      1  N   UNL     1       2.797   4.752  17.697  0.00  0.00    +0.000 N 
ATOM      2  C   UNL     1       3.583   4.137  16.621  0.00  0.00    +0.000 C 
ATOM      3  C   UNL     1       4.900   4.836  16.792  0.00  0.00    +0.000 A 
ATOM      4  C   UNL     1       6.114   4.181  16.595  0.00  0.00    +0.000 A 
ATOM      5  C   UNL     1       7.165   4.551  17.413  0.00  0.00    +0.000 A 
ATOM      6  C   UNL     1       6.989   5.596  18.345  0.00  0.00    +0.000 A 
ATOM      7  C   UNL     1       5.783   6.339  18.426  0.00  0.00    +0.000 A 
ATOM      8  C   UNL     1       4.732   5.998  17.592  0.00  0.00    +0.000 A 
ATOM      9  C   UNL     1       3.259   6.062  17.848  0.00  0.00    +0.000 C 
ATOM     10  N   UNL     1       2.319   6.922  18.054  0.00  0.00    +0.000 NA
ENDROOT
BRANCH   1  16
ATOM     11  C   UNL     1       4.872   1.580  20.794  0.00  0.00    +0.000 C 
ATOM     12  C   UNL     1       3.726   2.479  20.481  0.00  0.00    +0.000 A 
ATOM     13  C   UNL     1       2.757   2.794  21.430  0.00  0.00    +0.000 A 
ATOM     14  C   UNL     1       1.692   3.629  21.097  0.00  0.00    +0.000 A 
ATOM     15  C   UNL     1       1.648   4.251  19.852  0.00  0.00    +0.000 A 
ATOM     16  C   UNL     1       2.684   4.062  18.932  0.00  0.00    +0.000 A 
ATOM     17  C   UNL     1       3.659   3.097  19.229  0.00  0.00    +0.000 A 
ENDBRANCH   1  16
BRANCH  10  18
ATOM     18  C   UNL     1       2.195   8.259  18.106  0.00  0.00    +0.000 C 
ATOM     19  O   UNL     1       2.563   9.073  17.277  0.00  0.00    +0.000 OA
BRANCH  18  20
ATOM     20  C   UNL     1       1.483   8.665  19.387  0.00  0.00    +0.000 A 
ATOM     21  C   UNL     1       1.653   7.968  20.603  0.00  0.00    +0.000 A 
ATOM     22  C   UNL     1       1.020   8.404  21.775  0.00  0.00    +0.000 A 
ATOM     23  C   UNL     1       0.215   9.524  21.685  0.00  0.00    +0.000 A 
ATOM     24 CL   UNL     1      -0.584  10.141  23.073  0.00  0.00    +0.000 Cl
ATOM     25  N   UNL     1       0.009  10.216  20.539  0.00  0.00    +0.000 NA
ATOM     26  C   UNL     1       0.640   9.765  19.423  0.00  0.00    +0.000 A 
ENDBRANCH  18  20
ENDBRANCH  10  18
TORSDOF 3
ENDMDL
MODEL 3
REMARK VINA RESULT:      -8.6      3.517      6.969
REMARK  Name = 
REMARK  4 active torsions:
REMARK  status: ('A' for Active; 'I' for Inactive)
REMARK    1  A    between atoms: C_1  and  C_2
REMARK    2  A    between atoms: C_6  and  N_7
REMARK    3  A    between atoms: N_16  and  C_17
REMARK    4  A    between atoms: C_17  and  C_19
REMARK                            x       y       z     vdW  Elec       q    Type
REMARK                         _______ _______ _______ _____ _____    ______ ____
ROOT
ATOM      1  N   UNL     1       3.209   4.564  17.515  0.00  0.00    +0.000 N 
ATOM      2  C   UNL     1       3.848   4.003  16.319  0.00  0.00    +0.000 C 
ATOM      3  C   UNL     1       5.113   4.810  16.263  0.00  0.00    +0.000 A 
ATOM      4  C   UNL     1       6.324   4.254  15.858  0.00  0.00    +0.000 A 
ATOM      5  C   UNL     1       7.466   4.718  16.485  0.00  0.00    +0.000 A 
ATOM      6  C   UNL     1       7.366   5.756  17.436  0.00  0.00    +0.000 A 
ATOM      7  C   UNL     1       6.134   6.399  17.725  0.00  0.00    +0.000 A 
ATOM      8  C   UNL     1       4.988   5.963  17.083  0.00  0.00    +0.000 A 
ATOM      9  C   UNL     1       3.580   5.909  17.588  0.00  0.00    +0.000 C 
ATOM     10  N   UNL     1       2.622   6.691  17.955  0.00  0.00    +0.000 NA
ENDROOT
BRANCH   1  16
ATOM     11  C   UNL     1       1.021   2.943  21.583  0.00  0.00    +0.000 C 
ATOM     12  C   UNL     1       2.270   3.068  20.780  0.00  0.00    +0.000 A 
ATOM     13  C   UNL     1       3.427   2.363  21.103  0.00  0.00    +0.000 A 
ATOM     14  C   UNL     1       4.580   2.514  20.336  0.00  0.00    +0.000 A 
ATOM     15  C   UNL     1       4.556   3.278  19.172  0.00  0.00    +0.000 A 
ATOM     16  C   UNL     1       3.367   3.881  18.749  0.00  0.00    +0.000 A 
ATOM     17  C   UNL     1       2.266   3.844  19.618  0.00  0.00    +0.000 A 
ENDBRANCH   1  16
BRANCH  10  18
ATOM     18  C   UNL     1       2.398   8.014  18.031  0.00  0.00    +0.000 C 
ATOM     19  O   UNL     1       2.678   8.865  17.204  0.00  0.00    +0.000 OA
BRANCH  18  20
ATOM     20  C   UNL     1       1.697   8.348  19.339  0.00  0.00    +0.000 A 
ATOM     21  C   UNL     1       1.726   7.486  20.456  0.00  0.00    +0.000 A 
ATOM     22  C   UNL     1       1.110   7.853  21.661  0.00  0.00    +0.000 A 
ATOM     23  C   UNL     1       0.464   9.074  21.701  0.00  0.00    +0.000 A 
ATOM     24 CL   UNL     1      -0.300   9.613  23.139  0.00  0.00    +0.000 Cl
ATOM     25  N   UNL     1       0.397   9.926  20.650  0.00  0.00    +0.000 NA
ATOM     26  C   UNL     1       1.005   9.539  19.500  0.00  0.00    +0.000 A 
ENDBRANCH  18  20
ENDBRANCH  10  18
TORSDOF 3
ENDMDL
MODEL 4
REMARK VINA RESULT:      -8.6      2.430      2.925
REMARK  Name = 
REMARK  4 active torsions:
REMARK  status: ('A' for Active; 'I' for Inactive)
REMARK    1  A    between atoms: C_1  and  C_2
REMARK    2  A    between atoms: C_6  and  N_7
REMARK    3  A    between atoms: N_16  and  C_17
REMARK    4  A    between atoms: C_17  and  C_19
REMARK                            x       y       z     vdW  Elec       q    Type
REMARK                         _______ _______ _______ _____ _____    ______ ____
ROOT
ATOM      1  N   UNL     1       2.479   5.419  17.820  0.00  0.00    +0.000 N 
ATOM      2  C   UNL     1       1.474   4.357  17.702  0.00  0.00    +0.000 C 
ATOM      3  C   UNL     1       1.981   3.367  18.710  0.00  0.00    +0.000 A 
ATOM      4  C   UNL     1       1.118   2.618  19.506  0.00  0.00    +0.000 A 
ATOM      5  C   UNL     1       1.536   2.343  20.795  0.00  0.00    +0.000 A 
ATOM      6  C   UNL     1       2.815   2.764  21.218  0.00  0.00    +0.000 A 
ATOM      7  C   UNL     1       3.728   3.403  20.338  0.00  0.00    +0.000 A 
ATOM      8  C   UNL     1       3.333   3.658  19.037  0.00  0.00    +0.000 A 
ATOM      9  C   UNL     1       3.691   4.804  18.144  0.00  0.00    +0.000 C 
ATOM     10  N   UNL     1       4.709   5.311  17.533  0.00  0.00    +0.000 NA
ENDROOT
BRANCH   1  16
ATOM     11  C   UNL     1       1.661  10.241  18.011  0.00  0.00    +0.000 C 
ATOM     12  C   UNL     1       1.777   8.946  18.739  0.00  0.00    +0.000 A 
ATOM     13  C   UNL     1       1.392   8.813  20.071  0.00  0.00    +0.000 A 
ATOM     14  C   UNL     1       1.526   7.589  20.722  0.00  0.00    +0.000 A 
ATOM     15  C   UNL     1       1.934   6.458  20.020  0.00  0.00    +0.000 A 
ATOM     16  C   UNL     1       2.190   6.535  18.646  0.00  0.00    +0.000 A 
ATOM     17  C   UNL     1       2.201   7.806  18.050  0.00  0.00    +0.000 A 
ENDBRANCH   1  16
BRANCH  10  18
ATOM     18  C   UNL     1       6.009   5.018  17.364  0.00  0.00    +0.000 C 
ATOM     19  O   UNL     1       6.490   3.970  16.967  0.00  0.00    +0.000 OA
BRANCH  18  20
ATOM     20  C   UNL     1       6.866   6.220  17.729  0.00  0.00    +0.000 A 
ATOM     21  C   UNL     1       6.754   7.461  17.064  0.00  0.00    +0.000 A 
ATOM     22  C   UNL     1       7.525   8.560  17.464  0.00  0.00    +0.000 A 
ATOM     23  C   UNL     1       8.405   8.375  18.513  0.00  0.00    +0.000 A 
ATOM     24 CL   UNL     1       9.375   9.671  19.081  0.00  0.00    +0.000 Cl
ATOM     25  N   UNL     1       8.558   7.200  19.170  0.00  0.00    +0.000 NA
ATOM     26  C   UNL     1       7.794   6.156  18.757  0.00  0.00    +0.000 A 
ENDBRANCH  18  20
ENDBRANCH  10  18
TORSDOF 3
ENDMDL
MODEL 5
REMARK VINA RESULT:      -8.4      3.688      6.823
REMARK  Name = 
REMARK  4 active torsions:
REMARK  status: ('A' for Active; 'I' for Inactive)
REMARK    1  A    between atoms: C_1  and  C_2
REMARK    2  A    between atoms: C_6  and  N_7
REMARK    3  A    between atoms: N_16  and  C_17
REMARK    4  A    between atoms: C_17  and  C_19
REMARK                            x       y       z     vdW  Elec       q    Type
REMARK                         _______ _______ _______ _____ _____    ______ ____
ROOT
ATOM      1  N   UNL     1       4.141   5.579  19.601  0.00  0.00    +0.000 N 
ATOM      2  C   UNL     1       3.682   4.581  20.575  0.00  0.00    +0.000 C 
ATOM      3  C   UNL     1       2.462   4.046  19.885  0.00  0.00    +0.000 A 
ATOM      4  C   UNL     1       2.108   2.700  19.950  0.00  0.00    +0.000 A 
ATOM      5  C   UNL     1       1.526   2.150  18.823  0.00  0.00    +0.000 A 
ATOM      6  C   UNL     1       1.259   2.970  17.706  0.00  0.00    +0.000 A 
ATOM      7  C   UNL     1       1.502   4.368  17.721  0.00  0.00    +0.000 A 
ATOM      8  C   UNL     1       2.058   4.937  18.854  0.00  0.00    +0.000 A 
ATOM      9  C   UNL     1       3.004   6.090  18.970  0.00  0.00    +0.000 C 
ATOM     10  N   UNL     1       3.052   7.364  18.768  0.00  0.00    +0.000 NA
ENDROOT
BRANCH   1  16
ATOM     11  C   UNL     1       5.233   4.370  14.986  0.00  0.00    +0.000 C 
ATOM     12  C   UNL     1       5.706   4.613  16.378  0.00  0.00    +0.000 A 
ATOM     13  C   UNL     1       7.061   4.710  16.689  0.00  0.00    +0.000 A 
ATOM     14  C   UNL     1       7.466   4.926  18.004  0.00  0.00    +0.000 A 
ATOM     15  C   UNL     1       6.524   5.165  19.001  0.00  0.00    +0.000 A 
ATOM     16  C   UNL     1       5.162   5.213  18.687  0.00  0.00    +0.000 A 
ATOM     17  C   UNL     1       4.772   4.838  17.393  0.00  0.00    +0.000 A 
ENDBRANCH   1  16
BRANCH  10  18
ATOM     18  C   UNL     1       2.214   8.335  18.367  0.00  0.00    +0.000 C 
ATOM     19  O   UNL     1       2.060   8.764  17.236  0.00  0.00    +0.000 OA
BRANCH  18  20
ATOM     20  C   UNL     1       1.419   8.859  19.552  0.00  0.00    +0.000 A 
ATOM     21  C   UNL     1       1.481   8.264  20.830  0.00  0.00    +0.000 A 
ATOM     22  C   UNL     1       0.772   8.807  21.910  0.00  0.00    +0.000 A 
ATOM     23  C   UNL     1       0.003   9.929  21.668  0.00  0.00    +0.000 A 
ATOM     24 CL   UNL     1      -0.883  10.673  22.935  0.00  0.00    +0.000 Cl
ATOM     25  N   UNL     1      -0.100  10.526  20.456  0.00  0.00    +0.000 NA
ATOM     26  C   UNL     1       0.601   9.973  19.433  0.00  0.00    +0.000 A 
ENDBRANCH  18  20
ENDBRANCH  10  18
TORSDOF 3
ENDMDL
MODEL 6
REMARK VINA RESULT:      -8.1      3.999      7.083
REMARK  Name = 
REMARK  4 active torsions:
REMARK  status: ('A' for Active; 'I' for Inactive)
REMARK    1  A    between atoms: C_1  and  C_2
REMARK    2  A    between atoms: C_6  and  N_7
REMARK    3  A    between atoms: N_16  and  C_17
REMARK    4  A    between atoms: C_17  and  C_19
REMARK                            x       y       z     vdW  Elec       q    Type
REMARK                         _______ _______ _______ _____ _____    ______ ____
ROOT
ATOM      1  N   UNL     1       1.140  10.963  19.756  0.00  0.00    +0.000 N 
ATOM      2  C   UNL     1       0.662  12.193  19.113  0.00  0.00    +0.000 C 
ATOM      3  C   UNL     1      -0.395  11.646  18.199  0.00  0.00    +0.000 A 
ATOM      4  C   UNL     1      -1.582  12.332  17.952  0.00  0.00    +0.000 A 
ATOM      5  C   UNL     1      -2.721  11.568  17.776  0.00  0.00    +0.000 A 
ATOM      6  C   UNL     1      -2.624  10.160  17.785  0.00  0.00    +0.000 A 
ATOM      7  C   UNL     1      -1.378   9.490  17.899  0.00  0.00    +0.000 A 
ATOM      8  C   UNL     1      -0.227  10.243  18.047  0.00  0.00    +0.000 A 
ATOM      9  C   UNL     1       1.017   9.934  18.820  0.00  0.00    +0.000 C 
ATOM     10  N   UNL     1       2.010   9.110  18.822  0.00  0.00    +0.000 NA
ENDROOT
BRANCH   1  16
ATOM     11  C   UNL     1      -2.261  11.896  23.150  0.00  0.00    +0.000 C 
ATOM     12  C   UNL     1      -1.088  11.082  22.722  0.00  0.00    +0.000 A 
ATOM     13  C   UNL     1      -0.703   9.930  23.403  0.00  0.00    +0.000 A 
ATOM     14  C   UNL     1       0.406   9.201  22.980  0.00  0.00    +0.000 A 
ATOM     15  C   UNL     1       1.071   9.548  21.807  0.00  0.00    +0.000 A 
ATOM     16  C   UNL     1       0.616  10.617  21.028  0.00  0.00    +0.000 A 
ATOM     17  C   UNL     1      -0.401  11.428  21.555  0.00  0.00    +0.000 A 
ENDBRANCH   1  16
BRANCH  10  18
ATOM     18  C   UNL     1       2.453   8.092  18.064  0.00  0.00    +0.000 C 
ATOM     19  O   UNL     1       2.978   8.156  16.966  0.00  0.00    +0.000 OA
BRANCH  18  20
ATOM     20  C   UNL     1       2.228   6.771  18.784  0.00  0.00    +0.000 A 
ATOM     21  C   UNL     1       1.959   6.698  20.168  0.00  0.00    +0.000 A 
ATOM     22  C   UNL     1       1.708   5.465  20.785  0.00  0.00    +0.000 A 
ATOM     23  C   UNL     1       1.752   4.334  19.993  0.00  0.00    +0.000 A 
ATOM     24 CL   UNL     1       1.438   2.785  20.660  0.00  0.00    +0.000 Cl
ATOM     25  N   UNL     1       2.022   4.354  18.665  0.00  0.00    +0.000 NA
ATOM     26  C   UNL     1       2.260   5.566  18.100  0.00  0.00    +0.000 A 
ENDBRANCH  18  20
ENDBRANCH  10  18
TORSDOF 3
ENDMDL
MODEL 7
REMARK VINA RESULT:      -8.1      0.451      1.344
REMARK  Name = 
REMARK  4 active torsions:
REMARK  status: ('A' for Active; 'I' for Inactive)
REMARK    1  A    between atoms: C_1  and  C_2
REMARK    2  A    between atoms: C_6  and  N_7
REMARK    3  A    between atoms: N_16  and  C_17
REMARK    4  A    between atoms: C_17  and  C_19
REMARK                            x       y       z     vdW  Elec       q    Type
REMARK                         _______ _______ _______ _____ _____    ______ ____
ROOT
ATOM      1  N   UNL     1       2.331   5.350  17.729  0.00  0.00    +0.000 N 
ATOM      2  C   UNL     1       1.272   4.338  17.818  0.00  0.00    +0.000 C 
ATOM      3  C   UNL     1       1.709   3.571  19.032  0.00  0.00    +0.000 A 
ATOM      4  C   UNL     1       0.794   3.059  19.949  0.00  0.00    +0.000 A 
ATOM      5  C   UNL     1       1.175   3.055  21.278  0.00  0.00    +0.000 A 
ATOM      6  C   UNL     1       2.467   3.496  21.634  0.00  0.00    +0.000 A 
ATOM      7  C   UNL     1       3.427   3.881  20.662  0.00  0.00    +0.000 A 
ATOM      8  C   UNL     1       3.068   3.862  19.326  0.00  0.00    +0.000 A 
ATOM      9  C   UNL     1       3.503   4.764  18.213  0.00  0.00    +0.000 C 
ATOM     10  N   UNL     1       4.556   5.074  17.535  0.00  0.00    +0.000 NA
ENDROOT
BRANCH   1  16
ATOM     11  C   UNL     1       1.238   7.911  21.755  0.00  0.00    +0.000 C 
ATOM     12  C   UNL     1       1.545   7.912  20.296  0.00  0.00    +0.000 A 
ATOM     13  C   UNL     1       1.809   9.090  19.601  0.00  0.00    +0.000 A 
ATOM     14  C   UNL     1       2.081   9.054  18.235  0.00  0.00    +0.000 A 
ATOM     15  C   UNL     1       2.208   7.835  17.574  0.00  0.00    +0.000 A 
ATOM     16  C   UNL     1       2.087   6.634  18.281  0.00  0.00    +0.000 A 
ATOM     17  C   UNL     1       1.659   6.697  19.616  0.00  0.00    +0.000 A 
ENDBRANCH   1  16
BRANCH  10  18
ATOM     18  C   UNL     1       5.841   4.688  17.471  0.00  0.00    +0.000 C 
ATOM     19  O   UNL     1       6.578   4.400  18.398  0.00  0.00    +0.000 OA
BRANCH  18  20
ATOM     20  C   UNL     1       6.296   4.631  16.021  0.00  0.00    +0.000 A 
ATOM     21  C   UNL     1       5.673   3.802  15.063  0.00  0.00    +0.000 A 
ATOM     22  C   UNL     1       6.088   3.816  13.724  0.00  0.00    +0.000 A 
ATOM     23  C   UNL     1       7.136   4.653  13.390  0.00  0.00    +0.000 A 
ATOM     24 CL   UNL     1       7.698   4.749  11.772  0.00  0.00    +0.000 Cl
ATOM     25  N   UNL     1       7.774   5.453  14.278  0.00  0.00    +0.000 NA
ATOM     26  C   UNL     1       7.344   5.415  15.565  0.00  0.00    +0.000 A 
ENDBRANCH  18  20
ENDBRANCH  10  18
TORSDOF 3
ENDMDL
MODEL 8
REMARK VINA RESULT:      -8.0      3.348      6.311
REMARK  Name = 
REMARK  4 active torsions:
REMARK  status: ('A' for Active; 'I' for Inactive)
REMARK    1  A    between atoms: C_1  and  C_2
REMARK    2  A    between atoms: C_6  and  N_7
REMARK    3  A    between atoms: N_16  and  C_17
REMARK    4  A    between atoms: C_17  and  C_19
REMARK                            x       y       z     vdW  Elec       q    Type
REMARK                         _______ _______ _______ _____ _____    ______ ____
ROOT
ATOM      1  N   UNL     1       4.605   5.428  19.174  0.00  0.00    +0.000 N 
ATOM      2  C   UNL     1       5.119   4.172  19.734  0.00  0.00    +0.000 C 
ATOM      3  C   UNL     1       3.919   3.281  19.589  0.00  0.00    +0.000 A 
ATOM      4  C   UNL     1       4.037   1.933  19.259  0.00  0.00    +0.000 A 
ATOM      5  C   UNL     1       3.047   1.395  18.458  0.00  0.00    +0.000 A 
ATOM      6  C   UNL     1       1.950   2.196  18.074  0.00  0.00    +0.000 A 
ATOM      7  C   UNL     1       1.786   3.526  18.542  0.00  0.00    +0.000 A 
ATOM      8  C   UNL     1       2.756   4.067  19.367  0.00  0.00    +0.000 A 
ATOM      9  C   UNL     1       3.240   5.480  19.464  0.00  0.00    +0.000 C 
ATOM     10  N   UNL     1       2.828   6.652  19.811  0.00  0.00    +0.000 NA
ENDROOT
BRANCH   1  16
ATOM     11  C   UNL     1       6.228   3.736  14.877  0.00  0.00    +0.000 C 
ATOM     12  C   UNL     1       5.701   4.882  15.670  0.00  0.00    +0.000 A 
ATOM     13  C   UNL     1       5.299   6.072  15.067  0.00  0.00    +0.000 A 
ATOM     14  C   UNL     1       4.822   7.127  15.842  0.00  0.00    +0.000 A 
ATOM     15  C   UNL     1       4.631   6.964  17.212  0.00  0.00    +0.000 A 
ATOM     16  C   UNL     1       4.893   5.731  17.819  0.00  0.00    +0.000 A 
ATOM     17  C   UNL     1       5.519   4.739  17.049  0.00  0.00    +0.000 A 
ENDBRANCH   1  16
BRANCH  10  18
ATOM     18  C   UNL     1       1.711   7.199  20.319  0.00  0.00    +0.000 C 
ATOM     19  O   UNL     1       0.920   6.691  21.096  0.00  0.00    +0.000 OA
BRANCH  18  20
ATOM     20  C   UNL     1       1.542   8.617  19.796  0.00  0.00    +0.000 A 
ATOM     21  C   UNL     1       1.891   8.987  18.480  0.00  0.00    +0.000 A 
ATOM     22  C   UNL     1       1.672  10.292  18.019  0.00  0.00    +0.000 A 
ATOM     23  C   UNL     1       1.123  11.198  18.906  0.00  0.00    +0.000 A 
ATOM     24 CL   UNL     1       0.803  12.813  18.423  0.00  0.00    +0.000 Cl
ATOM     25  N   UNL     1       0.787  10.894  20.183  0.00  0.00    +0.000 NA
ATOM     26  C   UNL     1       1.012   9.619  20.595  0.00  0.00    +0.000 A 
ENDBRANCH  18  20
ENDBRANCH  10  18
TORSDOF 3
ENDMDL
MODEL 9
REMARK VINA RESULT:      -7.9      3.496      6.762
REMARK  Name = 
REMARK  4 active torsions:
REMARK  status: ('A' for Active; 'I' for Inactive)
REMARK    1  A    between atoms: C_1  and  C_2
REMARK    2  A    between atoms: C_6  and  N_7
REMARK    3  A    between atoms: N_16  and  C_17
REMARK    4  A    between atoms: C_17  and  C_19
REMARK                            x       y       z     vdW  Elec       q    Type
REMARK                         _______ _______ _______ _____ _____    ______ ____
ROOT
ATOM      1  N   UNL     1       3.528   4.841  16.973  0.00  0.00    +0.000 N 
ATOM      2  C   UNL     1       4.613   4.432  16.074  0.00  0.00    +0.000 C 
ATOM      3  C   UNL     1       5.799   5.053  16.754  0.00  0.00    +0.000 A 
ATOM      4  C   UNL     1       7.040   4.422  16.795  0.00  0.00    +0.000 A 
ATOM      5  C   UNL     1       7.795   4.600  17.939  0.00  0.00    +0.000 A 
ATOM      6  C   UNL     1       7.319   5.445  18.964  0.00  0.00    +0.000 A 
ATOM      7  C   UNL     1       6.115   6.185  18.833  0.00  0.00    +0.000 A 
ATOM      8  C   UNL     1       5.364   6.039  17.680  0.00  0.00    +0.000 A 
ATOM      9  C   UNL     1       3.879   6.085  17.503  0.00  0.00    +0.000 C 
ATOM     10  N   UNL     1       2.890   6.909  17.590  0.00  0.00    +0.000 NA
ENDROOT
BRANCH   1  16
ATOM     11  C   UNL     1       2.361   4.179  21.680  0.00  0.00    +0.000 C 
ATOM     12  C   UNL     1       2.500   3.597  20.315  0.00  0.00    +0.000 A 
ATOM     13  C   UNL     1       2.006   2.334  20.000  0.00  0.00    +0.000 A 
ATOM     14  C   UNL     1       2.165   1.817  18.716  0.00  0.00    +0.000 A 
ATOM     15  C   UNL     1       2.713   2.602  17.704  0.00  0.00    +0.000 A 
ATOM     16  C   UNL     1       3.087   3.925  17.962  0.00  0.00    +0.000 A 
ATOM     17  C   UNL     1       3.064   4.367  19.294  0.00  0.00    +0.000 A 
ENDBRANCH   1  16
BRANCH  10  18
ATOM     18  C   UNL     1       2.708   8.212  17.863  0.00  0.00    +0.000 C 
ATOM     19  O   UNL     1       3.122   9.169  17.232  0.00  0.00    +0.000 OA
BRANCH  18  20
ATOM     20  C   UNL     1       1.860   8.368  19.116  0.00  0.00    +0.000 A 
ATOM     21  C   UNL     1       1.925   7.458  20.194  0.00  0.00    +0.000 A 
ATOM     22  C   UNL     1       1.165   7.664  21.353  0.00  0.00    +0.000 A 
ATOM     23  C   UNL     1       0.343   8.775  21.388  0.00  0.00    +0.000 A 
ATOM     24 CL   UNL     1      -0.608   9.116  22.774  0.00  0.00    +0.000 Cl
ATOM     25  N   UNL     1       0.236   9.665  20.373  0.00  0.00    +0.000 NA
ATOM     26  C   UNL     1       0.988   9.435  19.266  0.00  0.00    +0.000 A 
ENDBRANCH  18  20
ENDBRANCH  10  18
TORSDOF 3
ENDMDL
