MODEL 1
REMARK VINA RESULT:      -7.2      0.000      0.000
REMARK  Name = 
REMARK  5 active torsions:
REMARK  status: ('A' for Active; 'I' for Inactive)
REMARK    1  A    between atoms: C_1  and  C_2
REMARK    2  A    between atoms: C_6  and  C_7
REMARK    3  A    between atoms: C_7  and  C_8
REMARK    4  A    between atoms: C_8  and  C_9
REMARK    5  A    between atoms: C_17  and  N_18
REMARK                            x       y       z     vdW  Elec       q    Type
REMARK                         _______ _______ _______ _____ _____    ______ ____
ROOT
ATOM      1  C   UNL     1       2.355   5.286  20.497  0.00  0.00    +0.000 C 
ATOM      2  O   UNL     1       2.580   4.336  21.257  0.00  0.00    +0.000 OA
ATOM      3  N   UNL     1       3.247   5.587  19.466  0.00  0.00    +0.000 N 
ATOM      4  C   UNL     1       4.383   4.699  19.345  0.00  0.00    +0.000 C 
ATOM      5  C   UNL     1       3.938   3.788  18.190  0.00  0.00    +0.000 C 
ATOM      6  C   UNL     1       2.984   4.647  17.342  0.00  0.00    +0.000 C 
ATOM      7  C   UNL     1       2.945   5.990  18.083  0.00  0.00    +0.000 C 
ATOM      8  C   UNL     1       4.088   6.876  17.498  0.00  0.00    +0.000 C 
ATOM      9  C   UNL     1       5.542   6.380  17.802  0.00  0.00    +0.000 C 
ATOM     10  C   UNL     1       5.591   5.607  19.127  0.00  0.00    +0.000 C 
ENDROOT
BRANCH   9  11
ATOM     11  N   UNL     1       6.298   5.671  16.767  0.00  0.00    +0.000 N 
ATOM     12  C   UNL     1       5.880   5.452  15.476  0.00  0.00    +0.000 A 
ATOM     13  C   UNL     1       6.826   4.625  14.950  0.00  0.00    +0.000 A 
ATOM     14  N   UNL     1       7.771   4.352  15.898  0.00  0.00    +0.000 NA
ATOM     15  N   UNL     1       7.431   4.987  17.017  0.00  0.00    +0.000 NA
ENDBRANCH   9  11
BRANCH   1  16
ATOM     16  C   UNL     1       1.145   6.166  20.742  0.00  0.00    +0.000 C 
BRANCH  16  17
ATOM     17  C   UNL     1       1.656   7.554  21.209  0.00  0.00    +0.000 C 
BRANCH  17  23
ATOM     18  C   UNL     1      -0.438   9.473  22.775  0.00  0.00    +0.000 C 
ATOM     19  C   UNL     1       0.033   9.612  21.360  0.00  0.00    +0.000 A 
ATOM     20  C   UNL     1      -0.368  10.709  20.521  0.00  0.00    +0.000 A 
ATOM     21  C   UNL     1       0.216  10.670  19.280  0.00  0.00    +0.000 A 
ATOM     22  S   UNL     1       1.246   9.326  19.102  0.00  0.00    +0.000 S 
ATOM     23  C   UNL     1       0.912   8.762  20.689  0.00  0.00    +0.000 A 
ENDBRANCH  17  23
ENDBRANCH  16  17
ENDBRANCH   1  16
TORSDOF 4
ENDMDL
MODEL 2
REMARK VINA RESULT:      -7.1      0.894      1.375
REMARK  Name = 
REMARK  5 active torsions:
REMARK  status: ('A' for Active; 'I' for Inactive)
REMARK    1  A    between atoms: C_1  and  C_2
REMARK    2  A    between atoms: C_6  and  C_7
REMARK    3  A    between atoms: C_7  and  C_8
REMARK    4  A    between atoms: C_8  and  C_9
REMARK    5  A    between atoms: C_17  and  N_18
REMARK                            x       y       z     vdW  Elec       q    Type
REMARK                         _______ _______ _______ _____ _____    ______ ____
ROOT
ATOM      1  C   UNL     1       2.319   5.494  20.484  0.00  0.00    +0.000 C 
ATOM      2  O   UNL     1       2.476   4.533  21.247  0.00  0.00    +0.000 OA
ATOM      3  N   UNL     1       3.237   5.736  19.460  0.00  0.00    +0.000 N 
ATOM      4  C   UNL     1       4.316   4.779  19.351  0.00  0.00    +0.000 C 
ATOM      5  C   UNL     1       3.825   3.895  18.192  0.00  0.00    +0.000 C 
ATOM      6  C   UNL     1       2.934   4.811  17.335  0.00  0.00    +0.000 C 
ATOM      7  C   UNL     1       2.974   6.155  18.075  0.00  0.00    +0.000 C 
ATOM      8  C   UNL     1       4.175   6.967  17.499  0.00  0.00    +0.000 C 
ATOM      9  C   UNL     1       5.592   6.380  17.817  0.00  0.00    +0.000 C 
ATOM     10  C   UNL     1       5.581   5.608  19.143  0.00  0.00    +0.000 C 
ENDROOT
BRANCH   9  11
ATOM     11  N   UNL     1       6.312   5.624  16.789  0.00  0.00    +0.000 N 
ATOM     12  C   UNL     1       5.888   5.424  15.496  0.00  0.00    +0.000 A 
ATOM     13  C   UNL     1       6.788   4.540  14.980  0.00  0.00    +0.000 A 
ATOM     14  N   UNL     1       7.709   4.217  15.934  0.00  0.00    +0.000 NA
ATOM     15  N   UNL     1       7.400   4.875  17.049  0.00  0.00    +0.000 NA
ENDBRANCH   9  11
BRANCH   1  16
ATOM     16  C   UNL     1       1.164   6.449  20.717  0.00  0.00    +0.000 C 
BRANCH  16  17
ATOM     17  C   UNL     1       1.762   7.852  21.003  0.00  0.00    +0.000 C 
BRANCH  17  23
ATOM     18  C   UNL     1       1.327   9.349  18.159  0.00  0.00    +0.000 C 
ATOM     19  C   UNL     1       0.666   9.675  19.463  0.00  0.00    +0.000 A 
ATOM     20  C   UNL     1      -0.334  10.701  19.583  0.00  0.00    +0.000 A 
ATOM     21  C   UNL     1      -0.842  10.802  20.853  0.00  0.00    +0.000 A 
ATOM     22  S   UNL     1      -0.134   9.676  21.915  0.00  0.00    +0.000 S 
ATOM     23  C   UNL     1       0.884   9.041  20.687  0.00  0.00    +0.000 A 
ENDBRANCH  17  23
ENDBRANCH  16  17
ENDBRANCH   1  16
TORSDOF 4
ENDMDL
MODEL 3
REMARK VINA RESULT:      -6.8      3.433      4.930
REMARK  Name = 
REMARK  5 active torsions:
REMARK  status: ('A' for Active; 'I' for Inactive)
REMARK    1  A    between atoms: C_1  and  C_2
REMARK    2  A    between atoms: C_6  and  C_7
REMARK    3  A    between atoms: C_7  and  C_8
REMARK    4  A    between atoms: C_8  and  C_9
REMARK    5  A    between atoms: C_17  and  N_18
REMARK                            x       y       z     vdW  Elec       q    Type
REMARK                         _______ _______ _______ _____ _____    ______ ____
ROOT
ATOM      1  C   UNL     1       3.285   5.820  18.748  0.00  0.00    +0.000 C 
ATOM      2  O   UNL     1       2.212   6.203  18.266  0.00  0.00    +0.000 OA
ATOM      3  N   UNL     1       4.335   5.438  17.910  0.00  0.00    +0.000 N 
ATOM      4  C   UNL     1       4.080   5.567  16.493  0.00  0.00    +0.000 C 
ATOM      5  C   UNL     1       4.799   6.887  16.171  0.00  0.00    +0.000 C 
ATOM      6  C   UNL     1       5.932   6.992  17.207  0.00  0.00    +0.000 C 
ATOM      7  C   UNL     1       5.771   5.723  18.054  0.00  0.00    +0.000 C 
ATOM      8  C   UNL     1       6.632   4.607  17.387  0.00  0.00    +0.000 C 
ATOM      9  C   UNL     1       6.130   4.124  15.984  0.00  0.00    +0.000 C 
ATOM     10  C   UNL     1       4.609   4.282  15.862  0.00  0.00    +0.000 C 
ENDROOT
BRANCH   9  11
ATOM     11  N   UNL     1       6.795   4.607  14.771  0.00  0.00    +0.000 N 
ATOM     12  C   UNL     1       6.623   4.098  13.505  0.00  0.00    +0.000 A 
ATOM     13  C   UNL     1       7.554   4.747  12.751  0.00  0.00    +0.000 A 
ATOM     14  N   UNL     1       8.263   5.606  13.542  0.00  0.00    +0.000 NA
ATOM     15  N   UNL     1       7.800   5.503  14.785  0.00  0.00    +0.000 NA
ENDBRANCH   9  11
BRANCH   1  16
ATOM     16  C   UNL     1       3.424   5.696  20.253  0.00  0.00    +0.000 C 
BRANCH  16  17
ATOM     17  C   UNL     1       2.637   4.436  20.699  0.00  0.00    +0.000 C 
BRANCH  17  23
ATOM     18  C   UNL     1       0.531   2.975  18.711  0.00  0.00    +0.000 C 
ATOM     19  C   UNL     1       1.945   2.566  18.990  0.00  0.00    +0.000 A 
ATOM     20  C   UNL     1       2.571   1.458  18.321  0.00  0.00    +0.000 A 
ATOM     21  C   UNL     1       3.882   1.287  18.689  0.00  0.00    +0.000 A 
ATOM     22  S   UNL     1       4.378   2.442  19.836  0.00  0.00    +0.000 S 
ATOM     23  C   UNL     1       2.832   3.186  19.871  0.00  0.00    +0.000 A 
ENDBRANCH  17  23
ENDBRANCH  16  17
ENDBRANCH   1  16
TORSDOF 4
ENDMDL
MODEL 4
REMARK VINA RESULT:      -6.8      4.744      6.967
REMARK  Name = 
REMARK  5 active torsions:
REMARK  status: ('A' for Active; 'I' for Inactive)
REMARK    1  A    between atoms: C_1  and  C_2
REMARK    2  A    between atoms: C_6  and  C_7
REMARK    3  A    between atoms: C_7  and  C_8
REMARK    4  A    between atoms: C_8  and  C_9
REMARK    5  A    between atoms: C_17  and  N_18
REMARK                            x       y       z     vdW  Elec       q    Type
REMARK                         _______ _______ _______ _____ _____    ______ ____
ROOT
ATOM      1  C   UNL     1       7.530   7.864  17.721  0.00  0.00    +0.000 C 
ATOM      2  O   UNL     1       7.359   8.380  16.611  0.00  0.00    +0.000 OA
ATOM      3  N   UNL     1       6.721   6.803  18.135  0.00  0.00    +0.000 N 
ATOM      4  C   UNL     1       5.741   6.354  17.171  0.00  0.00    +0.000 C 
ATOM      5  C   UNL     1       6.432   5.110  16.588  0.00  0.00    +0.000 C 
ATOM      6  C   UNL     1       7.343   4.589  17.713  0.00  0.00    +0.000 C 
ATOM      7  C   UNL     1       7.112   5.583  18.859  0.00  0.00    +0.000 C 
ATOM      8  C   UNL     1       5.927   5.038  19.715  0.00  0.00    +0.000 C 
ATOM      9  C   UNL     1       4.532   5.037  19.002  0.00  0.00    +0.000 C 
ATOM     10  C   UNL     1       4.448   6.161  17.960  0.00  0.00    +0.000 C 
ENDROOT
BRANCH   9  11
ATOM     11  N   UNL     1       4.000   3.788  18.452  0.00  0.00    +0.000 N 
ATOM     12  C   UNL     1       3.059   3.688  17.454  0.00  0.00    +0.000 A 
ATOM     13  C   UNL     1       2.765   2.358  17.401  0.00  0.00    +0.000 A 
ATOM     14  N   UNL     1       3.496   1.691  18.341  0.00  0.00    +0.000 NA
ATOM     15  N   UNL     1       4.242   2.580  18.994  0.00  0.00    +0.000 NA
ENDBRANCH   9  11
BRANCH   1  16
ATOM     16  C   UNL     1       8.571   8.443  18.661  0.00  0.00    +0.000 C 
BRANCH  16  17
ATOM     17  C   UNL     1       8.789   9.927  18.268  0.00  0.00    +0.000 C 
BRANCH  17  23
ATOM     18  C   UNL     1      11.441  11.689  17.647  0.00  0.00    +0.000 C 
ATOM     19  C   UNL     1      10.732  11.553  18.960  0.00  0.00    +0.000 A 
ATOM     20  C   UNL     1      11.138  12.280  20.132  0.00  0.00    +0.000 A 
ATOM     21  C   UNL     1      10.324  12.046  21.211  0.00  0.00    +0.000 A 
ATOM     22  S   UNL     1       9.069  10.957  20.840  0.00  0.00    +0.000 S 
ATOM     23  C   UNL     1       9.608  10.768  19.220  0.00  0.00    +0.000 A 
ENDBRANCH  17  23
ENDBRANCH  16  17
ENDBRANCH   1  16
TORSDOF 4
ENDMDL
MODEL 5
REMARK VINA RESULT:      -6.7      3.736      7.650
REMARK  Name = 
REMARK  5 active torsions:
REMARK  status: ('A' for Active; 'I' for Inactive)
REMARK    1  A    between atoms: C_1  and  C_2
REMARK    2  A    between atoms: C_6  and  C_7
REMARK    3  A    between atoms: C_7  and  C_8
REMARK    4  A    between atoms: C_8  and  C_9
REMARK    5  A    between atoms: C_17  and  N_18
REMARK                            x       y       z     vdW  Elec       q    Type
REMARK                         _______ _______ _______ _____ _____    ______ ____
ROOT
ATOM      1  C   UNL     1       5.271   6.423  16.960  0.00  0.00    +0.000 C 
ATOM      2  O   UNL     1       5.684   7.376  17.631  0.00  0.00    +0.000 OA
ATOM      3  N   UNL     1       4.648   5.341  17.585  0.00  0.00    +0.000 N 
ATOM      4  C   UNL     1       4.496   5.453  19.020  0.00  0.00    +0.000 C 
ATOM      5  C   UNL     1       3.027   5.888  19.140  0.00  0.00    +0.000 C 
ATOM      6  C   UNL     1       2.331   5.309  17.895  0.00  0.00    +0.000 C 
ATOM      7  C   UNL     1       3.461   4.589  17.147  0.00  0.00    +0.000 C 
ATOM      8  C   UNL     1       3.504   3.121  17.672  0.00  0.00    +0.000 C 
ATOM      9  C   UNL     1       3.950   2.957  19.164  0.00  0.00    +0.000 C 
ATOM     10  C   UNL     1       4.897   4.091  19.582  0.00  0.00    +0.000 C 
ENDROOT
BRANCH   9  11
ATOM     11  N   UNL     1       2.941   2.725  20.201  0.00  0.00    +0.000 N 
ATOM     12  C   UNL     1       1.580   2.699  20.005  0.00  0.00    +0.000 A 
ATOM     13  C   UNL     1       1.060   2.617  21.262  0.00  0.00    +0.000 A 
ATOM     14  N   UNL     1       2.075   2.605  22.175  0.00  0.00    +0.000 NA
ATOM     15  N   UNL     1       3.228   2.687  21.516  0.00  0.00    +0.000 NA
ENDBRANCH   9  11
BRANCH   1  16
ATOM     16  C   UNL     1       5.515   6.403  15.463  0.00  0.00    +0.000 C 
BRANCH  16  17
ATOM     17  C   UNL     1       6.622   5.354  15.178  0.00  0.00    +0.000 C 
BRANCH  17  23
ATOM     18  C   UNL     1       8.639   5.858  12.688  0.00  0.00    +0.000 C 
ATOM     19  C   UNL     1       7.491   4.897  12.743  0.00  0.00    +0.000 A 
ATOM     20  C   UNL     1       7.186   4.002  11.660  0.00  0.00    +0.000 A 
ATOM     21  C   UNL     1       6.127   3.175  11.936  0.00  0.00    +0.000 A 
ATOM     22  S   UNL     1       5.485   3.458  13.487  0.00  0.00    +0.000 S 
ATOM     23  C   UNL     1       6.613   4.711  13.811  0.00  0.00    +0.000 A 
ENDBRANCH  17  23
ENDBRANCH  16  17
ENDBRANCH   1  16
TORSDOF 4
ENDMDL
MODEL 6
REMARK VINA RESULT:      -6.6      4.871      6.878
REMARK  Name = 
REMARK  5 active torsions:
REMARK  status: ('A' for Active; 'I' for Inactive)
REMARK    1  A    between atoms: C_1  and  C_2
REMARK    2  A    between atoms: C_6  and  C_7
REMARK    3  A    between atoms: C_7  and  C_8
REMARK    4  A    between atoms: C_8  and  C_9
REMARK    5  A    between atoms: C_17  and  N_18
REMARK                            x       y       z     vdW  Elec       q    Type
REMARK                         _______ _______ _______ _____ _____    ______ ____
ROOT
ATOM      1  C   UNL     1       7.697   7.901  17.668  0.00  0.00    +0.000 C 
ATOM      2  O   UNL     1       7.606   8.326  16.510  0.00  0.00    +0.000 OA
ATOM      3  N   UNL     1       6.873   6.861  18.101  0.00  0.00    +0.000 N 
ATOM      4  C   UNL     1       5.976   6.319  17.104  0.00  0.00    +0.000 C 
ATOM      5  C   UNL     1       6.726   5.047  16.676  0.00  0.00    +0.000 C 
ATOM      6  C   UNL     1       7.554   4.633  17.905  0.00  0.00    +0.000 C 
ATOM      7  C   UNL     1       7.223   5.709  18.947  0.00  0.00    +0.000 C 
ATOM      8  C   UNL     1       5.983   5.210  19.751  0.00  0.00    +0.000 C 
ATOM      9  C   UNL     1       4.647   5.127  18.937  0.00  0.00    +0.000 C 
ATOM     10  C   UNL     1       4.629   6.164  17.806  0.00  0.00    +0.000 C 
ENDROOT
BRANCH   9  11
ATOM     11  N   UNL     1       4.175   3.828  18.449  0.00  0.00    +0.000 N 
ATOM     12  C   UNL     1       3.335   3.631  17.379  0.00  0.00    +0.000 A 
ATOM     13  C   UNL     1       3.052   2.298  17.413  0.00  0.00    +0.000 A 
ATOM     14  N   UNL     1       3.693   1.724  18.473  0.00  0.00    +0.000 NA
ATOM     15  N   UNL     1       4.369   2.674  19.114  0.00  0.00    +0.000 NA
ENDBRANCH   9  11
BRANCH   1  16
ATOM     16  C   UNL     1       8.655   8.571  18.634  0.00  0.00    +0.000 C 
BRANCH  16  17
ATOM     17  C   UNL     1       8.597  10.100  18.375  0.00  0.00    +0.000 C 
BRANCH  17  23
ATOM     18  C   UNL     1       9.012  11.084  21.438  0.00  0.00    +0.000 C 
ATOM     19  C   UNL     1       9.924  11.334  20.275  0.00  0.00    +0.000 A 
ATOM     20  C   UNL     1      11.179  12.020  20.417  0.00  0.00    +0.000 A 
ATOM     21  C   UNL     1      11.878  12.099  19.239  0.00  0.00    +0.000 A 
ATOM     22  S   UNL     1      11.045  11.358  17.953  0.00  0.00    +0.000 S 
ATOM     23  C   UNL     1       9.719  10.930  18.956  0.00  0.00    +0.000 A 
ENDBRANCH  17  23
ENDBRANCH  16  17
ENDBRANCH   1  16
TORSDOF 4
ENDMDL
MODEL 7
REMARK VINA RESULT:      -6.4      3.675      5.045
REMARK  Name = 
REMARK  5 active torsions:
REMARK  status: ('A' for Active; 'I' for Inactive)
REMARK    1  A    between atoms: C_1  and  C_2
REMARK    2  A    between atoms: C_6  and  C_7
REMARK    3  A    between atoms: C_7  and  C_8
REMARK    4  A    between atoms: C_8  and  C_9
REMARK    5  A    between atoms: C_17  and  N_18
REMARK                            x       y       z     vdW  Elec       q    Type
REMARK                         _______ _______ _______ _____ _____    ______ ____
ROOT
ATOM      1  C   UNL     1       4.001   5.638  18.546  0.00  0.00    +0.000 C 
ATOM      2  O   UNL     1       2.912   6.126  18.224  0.00  0.00    +0.000 OA
ATOM      3  N   UNL     1       4.924   5.270  17.565  0.00  0.00    +0.000 N 
ATOM      4  C   UNL     1       4.526   5.541  16.202  0.00  0.00    +0.000 C 
ATOM      5  C   UNL     1       5.297   6.839  15.910  0.00  0.00    +0.000 C 
ATOM      6  C   UNL     1       6.541   6.782  16.814  0.00  0.00    +0.000 C 
ATOM      7  C   UNL     1       6.384   5.454  17.567  0.00  0.00    +0.000 C 
ATOM      8  C   UNL     1       7.087   4.353  16.715  0.00  0.00    +0.000 C 
ATOM      9  C   UNL     1       6.403   4.029  15.344  0.00  0.00    +0.000 C 
ATOM     10  C   UNL     1       4.892   4.288  15.410  0.00  0.00    +0.000 C 
ENDROOT
BRANCH   9  11
ATOM     11  N   UNL     1       6.964   4.578  14.106  0.00  0.00    +0.000 N 
ATOM     12  C   UNL     1       6.734   4.097  12.839  0.00  0.00    +0.000 A 
ATOM     13  C   UNL     1       7.583   4.812  12.048  0.00  0.00    +0.000 A 
ATOM     14  N   UNL     1       8.299   5.683  12.819  0.00  0.00    +0.000 NA
ATOM     15  N   UNL     1       7.924   5.522  14.085  0.00  0.00    +0.000 NA
ENDBRANCH   9  11
BRANCH   1  16
ATOM     16  C   UNL     1       4.295   5.371  20.011  0.00  0.00    +0.000 C 
BRANCH  16  17
ATOM     17  C   UNL     1       4.045   3.863  20.275  0.00  0.00    +0.000 C 
BRANCH  17  23
ATOM     18  C   UNL     1       3.558   1.701  17.907  0.00  0.00    +0.000 C 
ATOM     19  C   UNL     1       2.518   2.342  18.775  0.00  0.00    +0.000 A 
ATOM     20  C   UNL     1       1.125   1.998  18.687  0.00  0.00    +0.000 A 
ATOM     21  C   UNL     1       0.354   2.665  19.604  0.00  0.00    +0.000 A 
ATOM     22  S   UNL     1       1.281   3.710  20.578  0.00  0.00    +0.000 S 
ATOM     23  C   UNL     1       2.739   3.293  19.772  0.00  0.00    +0.000 A 
ENDBRANCH  17  23
ENDBRANCH  16  17
ENDBRANCH   1  16
TORSDOF 4
ENDMDL
MODEL 8
REMARK VINA RESULT:      -6.3      3.049      4.194
REMARK  Name = 
REMARK  5 active torsions:
REMARK  status: ('A' for Active; 'I' for Inactive)
REMARK    1  A    between atoms: C_1  and  C_2
REMARK    2  A    between atoms: C_6  and  C_7
REMARK    3  A    between atoms: C_7  and  C_8
REMARK    4  A    between atoms: C_8  and  C_9
REMARK    5  A    between atoms: C_17  and  N_18
REMARK                            x       y       z     vdW  Elec       q    Type
REMARK                         _______ _______ _______ _____ _____    ______ ____
ROOT
ATOM      1  C   UNL     1       2.002   8.169  18.394  0.00  0.00    +0.000 C 
ATOM      2  O   UNL     1       2.344   8.517  17.258  0.00  0.00    +0.000 OA
ATOM      3  N   UNL     1       2.043   6.822  18.759  0.00  0.00    +0.000 N 
ATOM      4  C   UNL     1       2.543   5.917  17.747  0.00  0.00    +0.000 C 
ATOM      5  C   UNL     1       3.991   5.702  18.216  0.00  0.00    +0.000 C 
ATOM      6  C   UNL     1       3.957   5.905  19.741  0.00  0.00    +0.000 C 
ATOM      7  C   UNL     1       2.486   6.232  20.032  0.00  0.00    +0.000 C 
ATOM      8  C   UNL     1       1.756   4.880  20.305  0.00  0.00    +0.000 C 
ATOM      9  C   UNL     1       1.636   3.924  19.071  0.00  0.00    +0.000 C 
ATOM     10  C   UNL     1       1.593   4.722  17.761  0.00  0.00    +0.000 C 
ENDROOT
BRANCH   9  11
ATOM     11  N   UNL     1       2.547   2.783  18.946  0.00  0.00    +0.000 N 
ATOM     12  C   UNL     1       3.469   2.386  19.886  0.00  0.00    +0.000 A 
ATOM     13  C   UNL     1       4.181   1.403  19.266  0.00  0.00    +0.000 A 
ATOM     14  N   UNL     1       3.707   1.228  17.998  0.00  0.00    +0.000 NA
ATOM     15  N   UNL     1       2.712   2.090  17.803  0.00  0.00    +0.000 NA
ENDBRANCH   9  11
BRANCH   1  16
ATOM     16  C   UNL     1       1.465   9.207  19.361  0.00  0.00    +0.000 C 
BRANCH  16  17
ATOM     17  C   UNL     1       1.223  10.515  18.564  0.00  0.00    +0.000 C 
BRANCH  17  23
ATOM     18  C   UNL     1      -1.669   9.886  17.236  0.00  0.00    +0.000 C 
ATOM     19  C   UNL     1      -1.350  10.938  18.255  0.00  0.00    +0.000 A 
ATOM     20  C   UNL     1      -2.362  11.783  18.829  0.00  0.00    +0.000 A 
ATOM     21  C   UNL     1      -1.862  12.642  19.774  0.00  0.00    +0.000 A 
ATOM     22  S   UNL     1      -0.184  12.452  19.986  0.00  0.00    +0.000 S 
ATOM     23  C   UNL     1      -0.096  11.217  18.796  0.00  0.00    +0.000 A 
ENDBRANCH  17  23
ENDBRANCH  16  17
ENDBRANCH   1  16
TORSDOF 4
ENDMDL
MODEL 9
REMARK VINA RESULT:      -6.3      3.887      7.683
REMARK  Name = 
REMARK  5 active torsions:
REMARK  status: ('A' for Active; 'I' for Inactive)
REMARK    1  A    between atoms: C_1  and  C_2
REMARK    2  A    between atoms: C_6  and  C_7
REMARK    3  A    between atoms: C_7  and  C_8
REMARK    4  A    between atoms: C_8  and  C_9
REMARK    5  A    between atoms: C_17  and  N_18
REMARK                            x       y       z     vdW  Elec       q    Type
REMARK                         _______ _______ _______ _____ _____    ______ ____
ROOT
ATOM      1  C   UNL     1       5.350   5.916  16.878  0.00  0.00    +0.000 C 
ATOM      2  O   UNL     1       6.168   6.596  17.509  0.00  0.00    +0.000 OA
ATOM      3  N   UNL     1       4.567   4.968  17.539  0.00  0.00    +0.000 N 
ATOM      4  C   UNL     1       4.758   4.889  18.970  0.00  0.00    +0.000 C 
ATOM      5  C   UNL     1       3.554   5.694  19.485  0.00  0.00    +0.000 C 
ATOM      6  C   UNL     1       2.471   5.538  18.404  0.00  0.00    +0.000 C 
ATOM      7  C   UNL     1       3.142   4.659  17.340  0.00  0.00    +0.000 C 
ATOM      8  C   UNL     1       2.836   3.173  17.706  0.00  0.00    +0.000 C 
ATOM      9  C   UNL     1       3.509   2.657  19.023  0.00  0.00    +0.000 C 
ATOM     10  C   UNL     1       4.824   3.398  19.294  0.00  0.00    +0.000 C 
ENDROOT
BRANCH   9  11
ATOM     11  N   UNL     1       2.715   2.555  20.250  0.00  0.00    +0.000 N 
ATOM     12  C   UNL     1       1.351   2.700  20.337  0.00  0.00    +0.000 A 
ATOM     13  C   UNL     1       1.095   2.687  21.676  0.00  0.00    +0.000 A 
ATOM     14  N   UNL     1       2.268   2.550  22.363  0.00  0.00    +0.000 NA
ATOM     15  N   UNL     1       3.261   2.485  21.479  0.00  0.00    +0.000 NA
ENDBRANCH   9  11
BRANCH   1  16
ATOM     16  C   UNL     1       5.261   6.066  15.371  0.00  0.00    +0.000 C 
BRANCH  16  17
ATOM     17  C   UNL     1       5.172   4.644  14.759  0.00  0.00    +0.000 C 
BRANCH  17  23
ATOM     18  C   UNL     1       4.454   3.085  12.007  0.00  0.00    +0.000 C 
ATOM     19  C   UNL     1       5.763   3.715  12.375  0.00  0.00    +0.000 A 
ATOM     20  C   UNL     1       6.879   3.752  11.470  0.00  0.00    +0.000 A 
ATOM     21  C   UNL     1       7.961   4.417  11.989  0.00  0.00    +0.000 A 
ATOM     22  S   UNL     1       7.658   5.002  13.558  0.00  0.00    +0.000 S 
ATOM     23  C   UNL     1       6.067   4.357  13.575  0.00  0.00    +0.000 A 
ENDBRANCH  17  23
ENDBRANCH  16  17
ENDBRANCH   1  16
TORSDOF 4
ENDMDL
