MODEL 1
REMARK VINA RESULT:      -7.3      0.000      0.000
REMARK  Name = 
REMARK  9 active torsions:
REMARK  status: ('A' for Active; 'I' for Inactive)
REMARK    1  A    between atoms: C_1  and  C_2
REMARK    2  A    between atoms: C_2  and  S_3
REMARK    3  A    between atoms: C_2  and  C_28
REMARK    4  A    between atoms: S_3  and  C_4
REMARK    5  A    between atoms: N_10  and  C_11
REMARK    6  A    between atoms: N_14  and  C_15
REMARK    7  A    between atoms: N_16  and  C_17
REMARK    8  A    between atoms: C_17  and  C_18
REMARK    9  A    between atoms: C_28  and  O_30
REMARK                            x       y       z     vdW  Elec       q    Type
REMARK                         _______ _______ _______ _____ _____    ______ ____
ROOT
ATOM      1  C   UNL     1       2.134   5.580  20.188  0.00  0.00    +0.000 A 
ATOM      2  N   UNL     1       1.518   6.413  20.989  0.00  0.00    +0.000 NA
ATOM      3  C   UNL     1       1.498   7.587  20.323  0.00  0.00    +0.000 A 
ATOM      4  C   UNL     1       2.082   7.497  19.091  0.00  0.00    +0.000 A 
ATOM      5  C   UNL     1       2.191   8.630  18.226  0.00  0.00    +0.000 A 
ATOM      6  O   UNL     1       2.712   8.577  17.121  0.00  0.00    +0.000 OA
ATOM      7  N   UNL     1       1.659   9.791  18.788  0.00  0.00    +0.000 N 
ATOM      8  C   UNL     1       1.723  11.040  18.049  0.00  0.00    +0.000 C 
ATOM      9  C   UNL     1       1.087   9.909  20.073  0.00  0.00    +0.000 A 
ATOM     10  O   UNL     1       0.689  10.989  20.501  0.00  0.00    +0.000 OA
ATOM     11  N   UNL     1       1.003   8.746  20.831  0.00  0.00    +0.000 N 
ATOM     12  C   UNL     1       0.460   8.781  22.179  0.00  0.00    +0.000 C 
ATOM     13  N   UNL     1       2.511   6.184  18.993  0.00  0.00    +0.000 N 
ENDROOT
BRANCH   1  14
ATOM     14  S   UNL     1       2.497   3.972  20.695  0.00  0.00    +0.000 S 
BRANCH  14  16
ATOM     15  C   UNL     1       1.188   2.235  18.756  0.00  0.00    +0.000 C 
ATOM     16  C   UNL     1       2.476   2.979  19.124  0.00  0.00    +0.000 C 
BRANCH  16  17
ATOM     17  C   UNL     1       3.693   2.072  18.987  0.00  0.00    +0.000 C 
ATOM     18  O   UNL     1       3.675   1.018  18.360  0.00  0.00    +0.000 OA
BRANCH  17  19
ATOM     19  O   UNL     1       4.802   2.471  19.647  0.00  0.00    +0.000 OA
ATOM     20  H   UNL     1       4.746   3.419  19.915  0.00  0.00    +0.000 HD
ENDBRANCH  17  19
ENDBRANCH  16  17
ENDBRANCH  14  16
ENDBRANCH   1  14
BRANCH  13  21
ATOM     21  C   UNL     1       3.169   5.596  17.813  0.00  0.00    +0.000 C 
BRANCH  21  22
ATOM     22  C   UNL     1       4.685   5.492  17.874  0.00  0.00    +0.000 A 
ATOM     23  C   UNL     1       5.422   5.844  19.018  0.00  0.00    +0.000 A 
ATOM     24  C   UNL     1       6.750   5.465  19.094  0.00  0.00    +0.000 A 
ATOM     25  C   UNL     1       7.382   4.800  18.072  0.00  0.00    +0.000 A 
ATOM     26  C   UNL     1       6.746   4.554  16.879  0.00  0.00    +0.000 A 
ATOM     27  C   UNL     1       5.392   4.911  16.778  0.00  0.00    +0.000 A 
ATOM     28 CL   UNL     1       4.610   4.572  15.272  0.00  0.00    +0.000 Cl
ATOM     29  O   UNL     1       8.640   4.413  18.397  0.00  0.00    +0.000 OA
ATOM     30  C   UNL     1       8.760   4.969  19.722  0.00  0.00    +0.000 C 
ATOM     31  O   UNL     1       7.561   5.636  20.172  0.00  0.00    +0.000 OA
ENDBRANCH  21  22
ENDBRANCH  13  21
TORSDOF 6
ENDMDL
MODEL 2
REMARK VINA RESULT:      -6.9      1.430      1.568
REMARK  Name = 
REMARK  9 active torsions:
REMARK  status: ('A' for Active; 'I' for Inactive)
REMARK    1  A    between atoms: C_1  and  C_2
REMARK    2  A    between atoms: C_2  and  S_3
REMARK    3  A    between atoms: C_2  and  C_28
REMARK    4  A    between atoms: S_3  and  C_4
REMARK    5  A    between atoms: N_10  and  C_11
REMARK    6  A    between atoms: N_14  and  C_15
REMARK    7  A    between atoms: N_16  and  C_17
REMARK    8  A    between atoms: C_17  and  C_18
REMARK    9  A    between atoms: C_28  and  O_30
REMARK                            x       y       z     vdW  Elec       q    Type
REMARK                         _______ _______ _______ _____ _____    ______ ____
ROOT
ATOM      1  C   UNL     1       2.197   6.231  20.058  0.00  0.00    +0.000 A 
ATOM      2  N   UNL     1       1.631   6.877  21.047  0.00  0.00    +0.000 NA
ATOM      3  C   UNL     1       1.351   8.100  20.549  0.00  0.00    +0.000 A 
ATOM      4  C   UNL     1       1.720   8.227  19.239  0.00  0.00    +0.000 A 
ATOM      5  C   UNL     1       1.537   9.450  18.521  0.00  0.00    +0.000 A 
ATOM      6  O   UNL     1       1.862   9.590  17.351  0.00  0.00    +0.000 OA
ATOM      7  N   UNL     1       0.971  10.456  19.306  0.00  0.00    +0.000 N 
ATOM      8  C   UNL     1       0.752  11.773  18.732  0.00  0.00    +0.000 C 
ATOM      9  C   UNL     1       0.620  10.353  20.668  0.00  0.00    +0.000 A 
ATOM     10  O   UNL     1       0.172  11.313  21.289  0.00  0.00    +0.000 OA
ATOM     11  N   UNL     1       0.812   9.115  21.273  0.00  0.00    +0.000 N 
ATOM     12  C   UNL     1       0.510   8.929  22.683  0.00  0.00    +0.000 C 
ATOM     13  N   UNL     1       2.284   7.007  18.907  0.00  0.00    +0.000 N 
ENDROOT
BRANCH   1  14
ATOM     14  S   UNL     1       2.837   4.646  20.290  0.00  0.00    +0.000 S 
BRANCH  14  16
ATOM     15  C   UNL     1       1.129   2.807  21.769  0.00  0.00    +0.000 C 
ATOM     16  C   UNL     1       1.336   3.563  20.452  0.00  0.00    +0.000 C 
BRANCH  16  17
ATOM     17  C   UNL     1       1.144   2.641  19.254  0.00  0.00    +0.000 C 
ATOM     18  O   UNL     1       0.155   2.682  18.530  0.00  0.00    +0.000 OA
BRANCH  17  19
ATOM     19  O   UNL     1       2.116   1.724  19.056  0.00  0.00    +0.000 OA
ATOM     20  H   UNL     1       2.665   1.938  18.264  0.00  0.00    +0.000 HD
ENDBRANCH  17  19
ENDBRANCH  16  17
ENDBRANCH  14  16
ENDBRANCH   1  14
BRANCH  13  21
ATOM     21  C   UNL     1       2.795   6.649  17.572  0.00  0.00    +0.000 C 
BRANCH  21  22
ATOM     22  C   UNL     1       4.198   6.061  17.528  0.00  0.00    +0.000 A 
ATOM     23  C   UNL     1       5.332   6.780  17.941  0.00  0.00    +0.000 A 
ATOM     24  C   UNL     1       6.519   6.095  18.131  0.00  0.00    +0.000 A 
ATOM     25  C   UNL     1       6.635   4.748  17.886  0.00  0.00    +0.000 A 
ATOM     26  C   UNL     1       5.594   4.027  17.352  0.00  0.00    +0.000 A 
ATOM     27  C   UNL     1       4.372   4.691  17.164  0.00  0.00    +0.000 A 
ATOM     28 CL   UNL     1       3.072   3.755  16.508  0.00  0.00    +0.000 Cl
ATOM     29  O   UNL     1       7.841   4.250  18.254  0.00  0.00    +0.000 OA
ATOM     30  C   UNL     1       8.505   5.451  18.700  0.00  0.00    +0.000 C 
ATOM     31  O   UNL     1       7.668   6.626  18.628  0.00  0.00    +0.000 OA
ENDBRANCH  21  22
ENDBRANCH  13  21
TORSDOF 6
ENDMDL
MODEL 3
REMARK VINA RESULT:      -6.9      5.308      8.338
REMARK  Name = 
REMARK  9 active torsions:
REMARK  status: ('A' for Active; 'I' for Inactive)
REMARK    1  A    between atoms: C_1  and  C_2
REMARK    2  A    between atoms: C_2  and  S_3
REMARK    3  A    between atoms: C_2  and  C_28
REMARK    4  A    between atoms: S_3  and  C_4
REMARK    5  A    between atoms: N_10  and  C_11
REMARK    6  A    between atoms: N_14  and  C_15
REMARK    7  A    between atoms: N_16  and  C_17
REMARK    8  A    between atoms: C_17  and  C_18
REMARK    9  A    between atoms: C_28  and  O_30
REMARK                            x       y       z     vdW  Elec       q    Type
REMARK                         _______ _______ _______ _____ _____    ______ ____
ROOT
ATOM      1  C   UNL     1      -1.388  13.486  20.195  0.00  0.00    +0.000 A 
ATOM      2  N   UNL     1      -1.265  14.551  19.443  0.00  0.00    +0.000 NA
ATOM      3  C   UNL     1       0.025  14.925  19.576  0.00  0.00    +0.000 A 
ATOM      4  C   UNL     1       0.729  14.089  20.396  0.00  0.00    +0.000 A 
ATOM      5  C   UNL     1       2.109  14.314  20.694  0.00  0.00    +0.000 A 
ATOM      6  O   UNL     1       2.760  13.582  21.427  0.00  0.00    +0.000 OA
ATOM      7  N   UNL     1       2.614  15.459  20.077  0.00  0.00    +0.000 N 
ATOM      8  C   UNL     1       3.995  15.847  20.309  0.00  0.00    +0.000 C 
ATOM      9  C   UNL     1       1.891  16.353  19.260  0.00  0.00    +0.000 A 
ATOM     10  O   UNL     1       2.413  17.366  18.800  0.00  0.00    +0.000 OA
ATOM     11  N   UNL     1       0.562  16.036  19.007  0.00  0.00    +0.000 N 
ATOM     12  C   UNL     1      -0.267  16.919  18.203  0.00  0.00    +0.000 C 
ATOM     13  N   UNL     1      -0.191  13.143  20.815  0.00  0.00    +0.000 N 
ENDROOT
BRANCH   1  14
ATOM     14  S   UNL     1      -2.925  12.738  20.424  0.00  0.00    +0.000 S 
BRANCH  14  16
ATOM     15  C   UNL     1      -4.780  11.491  18.556  0.00  0.00    +0.000 C 
ATOM     16  C   UNL     1      -3.443  12.221  18.715  0.00  0.00    +0.000 C 
BRANCH  16  17
ATOM     17  C   UNL     1      -2.332  11.507  17.956  0.00  0.00    +0.000 C 
ATOM     18  O   UNL     1      -2.127  10.301  18.047  0.00  0.00    +0.000 OA
BRANCH  17  19
ATOM     19  O   UNL     1      -1.536  12.294  17.199  0.00  0.00    +0.000 OA
ATOM     20  H   UNL     1      -0.587  12.209  17.456  0.00  0.00    +0.000 HD
ENDBRANCH  17  19
ENDBRANCH  16  17
ENDBRANCH  14  16
ENDBRANCH   1  14
BRANCH  13  21
ATOM     21  C   UNL     1       0.116  11.996  21.689  0.00  0.00    +0.000 C 
BRANCH  21  22
ATOM     22  C   UNL     1       0.476  10.696  20.986  0.00  0.00    +0.000 A 
ATOM     23  C   UNL     1       0.809  10.642  19.621  0.00  0.00    +0.000 A 
ATOM     24  C   UNL     1       1.386   9.487  19.125  0.00  0.00    +0.000 A 
ATOM     25  C   UNL     1       1.601   8.379  19.909  0.00  0.00    +0.000 A 
ATOM     26  C   UNL     1       1.170   8.333  21.213  0.00  0.00    +0.000 A 
ATOM     27  C   UNL     1       0.596   9.496  21.750  0.00  0.00    +0.000 A 
ATOM     28 CL   UNL     1       0.080   9.417  23.400  0.00  0.00    +0.000 Cl
ATOM     29  O   UNL     1       2.289   7.405  19.263  0.00  0.00    +0.000 OA
ATOM     30  C   UNL     1       2.427   7.994  17.954  0.00  0.00    +0.000 C 
ATOM     31  O   UNL     1       1.859   9.319  17.860  0.00  0.00    +0.000 OA
ENDBRANCH  21  22
ENDBRANCH  13  21
TORSDOF 6
ENDMDL
MODEL 4
REMARK VINA RESULT:      -6.9      1.051      1.230
REMARK  Name = 
REMARK  9 active torsions:
REMARK  status: ('A' for Active; 'I' for Inactive)
REMARK    1  A    between atoms: C_1  and  C_2
REMARK    2  A    between atoms: C_2  and  S_3
REMARK    3  A    between atoms: C_2  and  C_28
REMARK    4  A    between atoms: S_3  and  C_4
REMARK    5  A    between atoms: N_10  and  C_11
REMARK    6  A    between atoms: N_14  and  C_15
REMARK    7  A    between atoms: N_16  and  C_17
REMARK    8  A    between atoms: C_17  and  C_18
REMARK    9  A    between atoms: C_28  and  O_30
REMARK                            x       y       z     vdW  Elec       q    Type
REMARK                         _______ _______ _______ _____ _____    ______ ____
ROOT
ATOM      1  C   UNL     1       2.458   5.836  19.765  0.00  0.00    +0.000 A 
ATOM      2  N   UNL     1       1.731   6.462  20.657  0.00  0.00    +0.000 NA
ATOM      3  C   UNL     1       1.549   7.700  20.151  0.00  0.00    +0.000 A 
ATOM      4  C   UNL     1       2.142   7.858  18.930  0.00  0.00    +0.000 A 
ATOM      5  C   UNL     1       2.093   9.100  18.225  0.00  0.00    +0.000 A 
ATOM      6  O   UNL     1       2.618   9.268  17.134  0.00  0.00    +0.000 OA
ATOM      7  N   UNL     1       1.404  10.091  18.926  0.00  0.00    +0.000 N 
ATOM      8  C   UNL     1       1.295  11.424  18.359  0.00  0.00    +0.000 C 
ATOM      9  C   UNL     1       0.820   9.956  20.203  0.00  0.00    +0.000 A 
ATOM     10  O   UNL     1       0.275  10.904  20.762  0.00  0.00    +0.000 OA
ATOM     11  N   UNL     1       0.897   8.701  20.798  0.00  0.00    +0.000 N 
ATOM     12  C   UNL     1       0.352   8.481  22.128  0.00  0.00    +0.000 C 
ATOM     13  N   UNL     1       2.749   6.641  18.668  0.00  0.00    +0.000 N 
ENDROOT
BRANCH   1  14
ATOM     14  S   UNL     1       3.040   4.240  20.062  0.00  0.00    +0.000 S 
BRANCH  14  16
ATOM     15  C   UNL     1       1.295   2.524  21.643  0.00  0.00    +0.000 C 
ATOM     16  C   UNL     1       1.500   3.225  20.296  0.00  0.00    +0.000 C 
BRANCH  16  17
ATOM     17  C   UNL     1       1.243   2.272  19.136  0.00  0.00    +0.000 C 
ATOM     18  O   UNL     1       0.195   2.259  18.500  0.00  0.00    +0.000 OA
BRANCH  17  19
ATOM     19  O   UNL     1       2.231   1.388  18.871  0.00  0.00    +0.000 OA
ATOM     20  H   UNL     1       1.982   0.770  18.143  0.00  0.00    +0.000 HD
ENDBRANCH  17  19
ENDBRANCH  16  17
ENDBRANCH  14  16
ENDBRANCH   1  14
BRANCH  13  21
ATOM     21  C   UNL     1       3.483   6.313  17.434  0.00  0.00    +0.000 C 
BRANCH  21  22
ATOM     22  C   UNL     1       4.963   5.998  17.599  0.00  0.00    +0.000 A 
ATOM     23  C   UNL     1       5.639   6.163  18.820  0.00  0.00    +0.000 A 
ATOM     24  C   UNL     1       6.895   5.602  18.963  0.00  0.00    +0.000 A 
ATOM     25  C   UNL     1       7.520   4.931  17.939  0.00  0.00    +0.000 A 
ATOM     26  C   UNL     1       6.960   4.861  16.686  0.00  0.00    +0.000 A 
ATOM     27  C   UNL     1       5.678   5.406  16.514  0.00  0.00    +0.000 A 
ATOM     28 CL   UNL     1       4.989   5.286  14.932  0.00  0.00    +0.000 Cl
ATOM     29  O   UNL     1       8.684   4.353  18.324  0.00  0.00    +0.000 OA
ATOM     30  C   UNL     1       8.763   4.792  19.696  0.00  0.00    +0.000 C 
ATOM     31  O   UNL     1       7.627   5.582  20.109  0.00  0.00    +0.000 OA
ENDBRANCH  21  22
ENDBRANCH  13  21
TORSDOF 6
ENDMDL
MODEL 5
REMARK VINA RESULT:      -6.7      7.611      9.981
REMARK  Name = 
REMARK  9 active torsions:
REMARK  status: ('A' for Active; 'I' for Inactive)
REMARK    1  A    between atoms: C_1  and  C_2
REMARK    2  A    between atoms: C_2  and  S_3
REMARK    3  A    between atoms: C_2  and  C_28
REMARK    4  A    between atoms: S_3  and  C_4
REMARK    5  A    between atoms: N_10  and  C_11
REMARK    6  A    between atoms: N_14  and  C_15
REMARK    7  A    between atoms: N_16  and  C_17
REMARK    8  A    between atoms: C_17  and  C_18
REMARK    9  A    between atoms: C_28  and  O_30
REMARK                            x       y       z     vdW  Elec       q    Type
REMARK                         _______ _______ _______ _____ _____    ______ ____
ROOT
ATOM      1  C   UNL     1      -1.552  14.684  20.440  0.00  0.00    +0.000 A 
ATOM      2  N   UNL     1      -1.163  15.881  20.079  0.00  0.00    +0.000 NA
ATOM      3  C   UNL     1       0.061  15.702  19.539  0.00  0.00    +0.000 A 
ATOM      4  C   UNL     1       0.444  14.390  19.538  0.00  0.00    +0.000 A 
ATOM      5  C   UNL     1       1.717  13.978  19.033  0.00  0.00    +0.000 A 
ATOM      6  O   UNL     1       2.084  12.812  19.024  0.00  0.00    +0.000 OA
ATOM      7  N   UNL     1       2.488  15.049  18.578  0.00  0.00    +0.000 N 
ATOM      8  C   UNL     1       3.824  14.801  18.066  0.00  0.00    +0.000 C 
ATOM      9  C   UNL     1       2.123  16.411  18.607  0.00  0.00    +0.000 A 
ATOM     10  O   UNL     1       2.893  17.289  18.227  0.00  0.00    +0.000 OA
ATOM     11  N   UNL     1       0.855  16.710  19.093  0.00  0.00    +0.000 N 
ATOM     12  C   UNL     1       0.409  18.090  19.191  0.00  0.00    +0.000 C 
ATOM     13  N   UNL     1      -0.605  13.711  20.134  0.00  0.00    +0.000 N 
ENDROOT
BRANCH   1  14
ATOM     14  S   UNL     1      -3.030  14.456  21.299  0.00  0.00    +0.000 S 
BRANCH  14  16
ATOM     15  C   UNL     1      -1.057  14.228  23.431  0.00  0.00    +0.000 C 
ATOM     16  C   UNL     1      -2.497  13.930  23.000  0.00  0.00    +0.000 C 
BRANCH  16  17
ATOM     17  C   UNL     1      -2.878  12.489  23.315  0.00  0.00    +0.000 C 
ATOM     18  O   UNL     1      -4.031  12.134  23.533  0.00  0.00    +0.000 OA
BRANCH  17  19
ATOM     19  O   UNL     1      -1.852  11.613  23.395  0.00  0.00    +0.000 OA
ATOM     20  H   UNL     1      -2.146  10.736  23.738  0.00  0.00    +0.000 HD
ENDBRANCH  17  19
ENDBRANCH  16  17
ENDBRANCH  14  16
ENDBRANCH   1  14
BRANCH  13  21
ATOM     21  C   UNL     1      -0.669  12.251  20.319  0.00  0.00    +0.000 C 
BRANCH  21  22
ATOM     22  C   UNL     1      -1.319  11.461  19.193  0.00  0.00    +0.000 A 
ATOM     23  C   UNL     1      -2.512  11.872  18.572  0.00  0.00    +0.000 A 
ATOM     24  C   UNL     1      -2.887  11.262  17.389  0.00  0.00    +0.000 A 
ATOM     25  C   UNL     1      -2.159  10.241  16.827  0.00  0.00    +0.000 A 
ATOM     26  C   UNL     1      -1.062   9.712  17.464  0.00  0.00    +0.000 A 
ATOM     27  C   UNL     1      -0.647  10.320  18.658  0.00  0.00    +0.000 A 
ATOM     28 CL   UNL     1       0.748   9.647  19.429  0.00  0.00    +0.000 Cl
ATOM     29  O   UNL     1      -2.628   9.870  15.610  0.00  0.00    +0.000 OA
ATOM     30  C   UNL     1      -3.781  10.729  15.492  0.00  0.00    +0.000 C 
ATOM     31  O   UNL     1      -3.948  11.618  16.617  0.00  0.00    +0.000 OA
ENDBRANCH  21  22
ENDBRANCH  13  21
TORSDOF 6
ENDMDL
MODEL 6
REMARK VINA RESULT:      -6.7      1.179      1.291
REMARK  Name = 
REMARK  9 active torsions:
REMARK  status: ('A' for Active; 'I' for Inactive)
REMARK    1  A    between atoms: C_1  and  C_2
REMARK    2  A    between atoms: C_2  and  S_3
REMARK    3  A    between atoms: C_2  and  C_28
REMARK    4  A    between atoms: S_3  and  C_4
REMARK    5  A    between atoms: N_10  and  C_11
REMARK    6  A    between atoms: N_14  and  C_15
REMARK    7  A    between atoms: N_16  and  C_17
REMARK    8  A    between atoms: C_17  and  C_18
REMARK    9  A    between atoms: C_28  and  O_30
REMARK                            x       y       z     vdW  Elec       q    Type
REMARK                         _______ _______ _______ _____ _____    ______ ____
ROOT
ATOM      1  C   UNL     1       1.935   6.347  20.218  0.00  0.00    +0.000 A 
ATOM      2  N   UNL     1       1.310   7.081  21.104  0.00  0.00    +0.000 NA
ATOM      3  C   UNL     1       1.229   8.308  20.546  0.00  0.00    +0.000 A 
ATOM      4  C   UNL     1       1.784   8.352  19.299  0.00  0.00    +0.000 A 
ATOM      5  C   UNL     1       1.829   9.560  18.537  0.00  0.00    +0.000 A 
ATOM      6  O   UNL     1       2.323   9.626  17.420  0.00  0.00    +0.000 OA
ATOM      7  N   UNL     1       1.269  10.645  19.214  0.00  0.00    +0.000 N 
ATOM      8  C   UNL     1       1.268  11.956  18.588  0.00  0.00    +0.000 C 
ATOM      9  C   UNL     1       0.726  10.625  20.516  0.00  0.00    +0.000 A 
ATOM     10  O   UNL     1       0.300  11.647  21.049  0.00  0.00    +0.000 OA
ATOM     11  N   UNL     1       0.705   9.397  21.167  0.00  0.00    +0.000 N 
ATOM     12  C   UNL     1       0.196   9.291  22.525  0.00  0.00    +0.000 C 
ATOM     13  N   UNL     1       2.258   7.070  19.074  0.00  0.00    +0.000 N 
ENDROOT
BRANCH   1  14
ATOM     14  S   UNL     1       2.370   4.716  20.570  0.00  0.00    +0.000 S 
BRANCH  14  16
ATOM     15  C   UNL     1       0.572   2.668  19.538  0.00  0.00    +0.000 C 
ATOM     16  C   UNL     1       1.618   3.731  19.184  0.00  0.00    +0.000 C 
BRANCH  16  17
ATOM     17  C   UNL     1       2.663   3.176  18.224  0.00  0.00    +0.000 C 
ATOM     18  O   UNL     1       3.762   2.773  18.591  0.00  0.00    +0.000 OA
BRANCH  17  19
ATOM     19  O   UNL     1       2.330   3.197  16.915  0.00  0.00    +0.000 OA
ATOM     20  H   UNL     1       1.905   4.051  16.660  0.00  0.00    +0.000 HD
ENDBRANCH  17  19
ENDBRANCH  16  17
ENDBRANCH  14  16
ENDBRANCH   1  14
BRANCH  13  21
ATOM     21  C   UNL     1       2.907   6.616  17.831  0.00  0.00    +0.000 C 
BRANCH  21  22
ATOM     22  C   UNL     1       4.416   6.436  17.890  0.00  0.00    +0.000 A 
ATOM     23  C   UNL     1       5.092   6.106  19.077  0.00  0.00    +0.000 A 
ATOM     24  C   UNL     1       6.410   5.692  18.997  0.00  0.00    +0.000 A 
ATOM     25  C   UNL     1       7.090   5.638  17.804  0.00  0.00    +0.000 A 
ATOM     26  C   UNL     1       6.517   6.080  16.636  0.00  0.00    +0.000 A 
ATOM     27  C   UNL     1       5.176   6.490  16.682  0.00  0.00    +0.000 A 
ATOM     28 CL   UNL     1       4.474   7.023  15.193  0.00  0.00    +0.000 Cl
ATOM     29  O   UNL     1       8.323   5.089  17.928  0.00  0.00    +0.000 OA
ATOM     30  C   UNL     1       8.376   4.862  19.352  0.00  0.00    +0.000 C 
ATOM     31  O   UNL     1       7.162   5.239  20.036  0.00  0.00    +0.000 OA
ENDBRANCH  21  22
ENDBRANCH  13  21
TORSDOF 6
ENDMDL
MODEL 7
REMARK VINA RESULT:      -6.6      5.440      8.583
REMARK  Name = 
REMARK  9 active torsions:
REMARK  status: ('A' for Active; 'I' for Inactive)
REMARK    1  A    between atoms: C_1  and  C_2
REMARK    2  A    between atoms: C_2  and  S_3
REMARK    3  A    between atoms: C_2  and  C_28
REMARK    4  A    between atoms: S_3  and  C_4
REMARK    5  A    between atoms: N_10  and  C_11
REMARK    6  A    between atoms: N_14  and  C_15
REMARK    7  A    between atoms: N_16  and  C_17
REMARK    8  A    between atoms: C_17  and  C_18
REMARK    9  A    between atoms: C_28  and  O_30
REMARK                            x       y       z     vdW  Elec       q    Type
REMARK                         _______ _______ _______ _____ _____    ______ ____
ROOT
ATOM      1  C   UNL     1      -2.402  12.176  19.433  0.00  0.00    +0.000 A 
ATOM      2  N   UNL     1      -3.654  12.497  19.645  0.00  0.00    +0.000 NA
ATOM      3  C   UNL     1      -3.739  12.707  20.976  0.00  0.00    +0.000 A 
ATOM      4  C   UNL     1      -2.540  12.539  21.609  0.00  0.00    +0.000 A 
ATOM      5  C   UNL     1      -2.408  12.689  23.025  0.00  0.00    +0.000 A 
ATOM      6  O   UNL     1      -1.348  12.541  23.615  0.00  0.00    +0.000 OA
ATOM      7  N   UNL     1      -3.618  13.001  23.648  0.00  0.00    +0.000 N 
ATOM      8  C   UNL     1      -3.660  13.152  25.092  0.00  0.00    +0.000 C 
ATOM      9  C   UNL     1      -4.871  13.139  23.015  0.00  0.00    +0.000 A 
ATOM     10  O   UNL     1      -5.892  13.367  23.658  0.00  0.00    +0.000 OA
ATOM     11  N   UNL     1      -4.893  13.000  21.631  0.00  0.00    +0.000 N 
ATOM     12  C   UNL     1      -6.146  13.093  20.901  0.00  0.00    +0.000 C 
ATOM     13  N   UNL     1      -1.654  12.183  20.607  0.00  0.00    +0.000 N 
ENDROOT
BRANCH   1  14
ATOM     14  S   UNL     1      -1.866  11.698  17.866  0.00  0.00    +0.000 S 
BRANCH  14  16
ATOM     15  C   UNL     1      -2.922   9.758  15.966  0.00  0.00    +0.000 C 
ATOM     16  C   UNL     1      -3.172  10.515  17.274  0.00  0.00    +0.000 C 
BRANCH  16  17
ATOM     17  C   UNL     1      -4.569  11.123  17.299  0.00  0.00    +0.000 C 
ATOM     18  O   UNL     1      -5.535  10.562  17.803  0.00  0.00    +0.000 OA
BRANCH  17  19
ATOM     19  O   UNL     1      -4.702  12.316  16.678  0.00  0.00    +0.000 OA
ATOM     20  H   UNL     1      -4.576  13.069  17.303  0.00  0.00    +0.000 HD
ENDBRANCH  17  19
ENDBRANCH  16  17
ENDBRANCH  14  16
ENDBRANCH   1  14
BRANCH  13  21
ATOM     21  C   UNL     1      -0.214  11.937  20.800  0.00  0.00    +0.000 C 
BRANCH  21  22
ATOM     22  C   UNL     1       0.290  10.558  20.401  0.00  0.00    +0.000 A 
ATOM     23  C   UNL     1       0.829  10.289  19.131  0.00  0.00    +0.000 A 
ATOM     24  C   UNL     1       1.511   9.100  18.939  0.00  0.00    +0.000 A 
ATOM     25  C   UNL     1       1.637   8.159  19.932  0.00  0.00    +0.000 A 
ATOM     26  C   UNL     1       1.012   8.313  21.146  0.00  0.00    +0.000 A 
ATOM     27  C   UNL     1       0.327   9.516  21.377  0.00  0.00    +0.000 A 
ATOM     28 CL   UNL     1      -0.434   9.693  22.921  0.00  0.00    +0.000 Cl
ATOM     29  O   UNL     1       2.445   7.129  19.578  0.00  0.00    +0.000 OA
ATOM     30  C   UNL     1       2.765   7.491  18.219  0.00  0.00    +0.000 C 
ATOM     31  O   UNL     1       2.178   8.745  17.809  0.00  0.00    +0.000 OA
ENDBRANCH  21  22
ENDBRANCH  13  21
TORSDOF 6
ENDMDL
MODEL 8
REMARK VINA RESULT:      -6.6      5.722      9.138
REMARK  Name = 
REMARK  9 active torsions:
REMARK  status: ('A' for Active; 'I' for Inactive)
REMARK    1  A    between atoms: C_1  and  C_2
REMARK    2  A    between atoms: C_2  and  S_3
REMARK    3  A    between atoms: C_2  and  C_28
REMARK    4  A    between atoms: S_3  and  C_4
REMARK    5  A    between atoms: N_10  and  C_11
REMARK    6  A    between atoms: N_14  and  C_15
REMARK    7  A    between atoms: N_16  and  C_17
REMARK    8  A    between atoms: C_17  and  C_18
REMARK    9  A    between atoms: C_28  and  O_30
REMARK                            x       y       z     vdW  Elec       q    Type
REMARK                         _______ _______ _______ _____ _____    ______ ____
ROOT
ATOM      1  C   UNL     1      -2.689  12.729  21.547  0.00  0.00    +0.000 A 
ATOM      2  N   UNL     1      -3.959  12.714  21.229  0.00  0.00    +0.000 NA
ATOM      3  C   UNL     1      -3.991  12.317  19.940  0.00  0.00    +0.000 A 
ATOM      4  C   UNL     1      -2.745  12.060  19.441  0.00  0.00    +0.000 A 
ATOM      5  C   UNL     1      -2.547  11.649  18.086  0.00  0.00    +0.000 A 
ATOM      6  O   UNL     1      -1.442  11.417  17.616  0.00  0.00    +0.000 OA
ATOM      7  N   UNL     1      -3.741  11.564  17.368  0.00  0.00    +0.000 N 
ATOM      8  C   UNL     1      -3.706  11.193  15.965  0.00  0.00    +0.000 C 
ATOM      9  C   UNL     1      -5.030  11.863  17.857  0.00  0.00    +0.000 A 
ATOM     10  O   UNL     1      -6.020  11.805  17.131  0.00  0.00    +0.000 OA
ATOM     11  N   UNL     1      -5.124  12.229  19.195  0.00  0.00    +0.000 N 
ATOM     12  C   UNL     1      -6.409  12.587  19.773  0.00  0.00    +0.000 C 
ATOM     13  N   UNL     1      -1.879  12.335  20.486  0.00  0.00    +0.000 N 
ENDROOT
BRANCH   1  14
ATOM     14  S   UNL     1      -2.170  13.304  23.088  0.00  0.00    +0.000 S 
BRANCH  14  16
ATOM     15  C   UNL     1      -3.726  15.188  24.675  0.00  0.00    +0.000 C 
ATOM     16  C   UNL     1      -3.736  13.851  23.926  0.00  0.00    +0.000 C 
BRANCH  16  17
ATOM     17  C   UNL     1      -4.364  12.752  24.773  0.00  0.00    +0.000 C 
ATOM     18  O   UNL     1      -5.153  11.928  24.323  0.00  0.00    +0.000 OA
BRANCH  17  19
ATOM     19  O   UNL     1      -4.038  12.761  26.084  0.00  0.00    +0.000 OA
ATOM     20  H   UNL     1      -3.091  12.521  26.227  0.00  0.00    +0.000 HD
ENDBRANCH  17  19
ENDBRANCH  16  17
ENDBRANCH  14  16
ENDBRANCH   1  14
BRANCH  13  21
ATOM     21  C   UNL     1      -0.417  12.163  20.438  0.00  0.00    +0.000 C 
BRANCH  21  22
ATOM     22  C   UNL     1       0.085  10.732  20.309  0.00  0.00    +0.000 A 
ATOM     23  C   UNL     1       0.621  10.224  19.113  0.00  0.00    +0.000 A 
ATOM     24  C   UNL     1       1.302   9.020  19.151  0.00  0.00    +0.000 A 
ATOM     25  C   UNL     1       1.431   8.286  20.305  0.00  0.00    +0.000 A 
ATOM     26  C   UNL     1       0.810   8.672  21.469  0.00  0.00    +0.000 A 
ATOM     27  C   UNL     1       0.126   9.897  21.467  0.00  0.00    +0.000 A 
ATOM     28 CL   UNL     1      -0.630  10.368  22.950  0.00  0.00    +0.000 Cl
ATOM     29  O   UNL     1       2.238   7.207  20.153  0.00  0.00    +0.000 OA
ATOM     30  C   UNL     1       2.553   7.301  18.749  0.00  0.00    +0.000 C 
ATOM     31  O   UNL     1       1.965   8.453  18.107  0.00  0.00    +0.000 OA
ENDBRANCH  21  22
ENDBRANCH  13  21
TORSDOF 6
ENDMDL
MODEL 9
REMARK VINA RESULT:      -6.5      1.248      1.356
REMARK  Name = 
REMARK  9 active torsions:
REMARK  status: ('A' for Active; 'I' for Inactive)
REMARK    1  A    between atoms: C_1  and  C_2
REMARK    2  A    between atoms: C_2  and  S_3
REMARK    3  A    between atoms: C_2  and  C_28
REMARK    4  A    between atoms: S_3  and  C_4
REMARK    5  A    between atoms: N_10  and  C_11
REMARK    6  A    between atoms: N_14  and  C_15
REMARK    7  A    between atoms: N_16  and  C_17
REMARK    8  A    between atoms: C_17  and  C_18
REMARK    9  A    between atoms: C_28  and  O_30
REMARK                            x       y       z     vdW  Elec       q    Type
REMARK                         _______ _______ _______ _____ _____    ______ ____
ROOT
ATOM      1  C   UNL     1       2.721   5.710  19.644  0.00  0.00    +0.000 A 
ATOM      2  N   UNL     1       1.980   6.269  20.568  0.00  0.00    +0.000 NA
ATOM      3  C   UNL     1       1.689   7.496  20.085  0.00  0.00    +0.000 A 
ATOM      4  C   UNL     1       2.228   7.711  18.847  0.00  0.00    +0.000 A 
ATOM      5  C   UNL     1       2.063   8.954  18.161  0.00  0.00    +0.000 A 
ATOM      6  O   UNL     1       2.538   9.173  17.055  0.00  0.00    +0.000 OA
ATOM      7  N   UNL     1       1.326   9.883  18.897  0.00  0.00    +0.000 N 
ATOM      8  C   UNL     1       1.100  11.210  18.352  0.00  0.00    +0.000 C 
ATOM      9  C   UNL     1       0.796   9.690  20.190  0.00  0.00    +0.000 A 
ATOM     10  O   UNL     1       0.201  10.589  20.780  0.00  0.00    +0.000 OA
ATOM     11  N   UNL     1       0.987   8.439  20.766  0.00  0.00    +0.000 N 
ATOM     12  C   UNL     1       0.504   8.164  22.109  0.00  0.00    +0.000 C 
ATOM     13  N   UNL     1       2.915   6.546  18.550  0.00  0.00    +0.000 N 
ENDROOT
BRANCH   1  14
ATOM     14  S   UNL     1       3.430   4.159  19.901  0.00  0.00    +0.000 S 
BRANCH  14  16
ATOM     15  C   UNL     1       2.373   3.182  17.367  0.00  0.00    +0.000 C 
ATOM     16  C   UNL     1       2.384   3.002  18.889  0.00  0.00    +0.000 C 
BRANCH  16  17
ATOM     17  C   UNL     1       0.969   2.860  19.435  0.00  0.00    +0.000 C 
ATOM     18  O   UNL     1       0.028   2.456  18.761  0.00  0.00    +0.000 OA
BRANCH  17  19
ATOM     19  O   UNL     1       0.789   3.259  20.714  0.00  0.00    +0.000 OA
ATOM     20  H   UNL     1       0.721   2.491  21.330  0.00  0.00    +0.000 HD
ENDBRANCH  17  19
ENDBRANCH  16  17
ENDBRANCH  14  16
ENDBRANCH   1  14
BRANCH  13  21
ATOM     21  C   UNL     1       3.630   6.287  17.288  0.00  0.00    +0.000 C 
BRANCH  21  22
ATOM     22  C   UNL     1       5.094   5.892  17.417  0.00  0.00    +0.000 A 
ATOM     23  C   UNL     1       5.855   6.174  18.565  0.00  0.00    +0.000 A 
ATOM     24  C   UNL     1       7.078   5.548  18.719  0.00  0.00    +0.000 A 
ATOM     25  C   UNL     1       7.593   4.699  17.769  0.00  0.00    +0.000 A 
ATOM     26  C   UNL     1       6.952   4.497  16.571  0.00  0.00    +0.000 A 
ATOM     27  C   UNL     1       5.700   5.105  16.391  0.00  0.00    +0.000 A 
ATOM     28 CL   UNL     1       4.906   4.818  14.881  0.00  0.00    +0.000 Cl
ATOM     29  O   UNL     1       8.739   4.096  18.170  0.00  0.00    +0.000 OA
ATOM     30  C   UNL     1       8.932   4.713  19.460  0.00  0.00    +0.000 C 
ATOM     31  O   UNL     1       7.878   5.633  19.816  0.00  0.00    +0.000 OA
ENDBRANCH  21  22
ENDBRANCH  13  21
TORSDOF 6
ENDMDL
