MODEL 1
REMARK VINA RESULT:      -8.8      0.000      0.000
REMARK  Name = 
REMARK  7 active torsions:
REMARK  status: ('A' for Active; 'I' for Inactive)
REMARK    1  A    between atoms: C_1  and  C_2
REMARK    2  A    between atoms: C_2  and  O_3
REMARK    3  A    between atoms: O_3  and  C_4
REMARK    4  A    between atoms: C_7  and  C_8
REMARK    5  A    between atoms: N_10  and  C_11
REMARK    6  A    between atoms: C_12  and  C_13
REMARK    7  A    between atoms: N_18  and  C_19
REMARK                            x       y       z     vdW  Elec       q    Type
REMARK                         _______ _______ _______ _____ _____    ______ ____
ROOT
ATOM      1  C   UNL     1       1.541   9.404  19.274  0.00  0.00    +0.000 A 
ATOM      2  C   UNL     1       0.915  10.561  18.793  0.00  0.00    +0.000 A 
ATOM      3  O   UNL     1       0.947  11.472  19.829  0.00  0.00    +0.000 OA
ATOM      4  C   UNL     1       0.651  10.693  20.908  0.00  0.00    +0.000 A 
ATOM      5  C   UNL     1       0.044  11.184  22.060  0.00  0.00    +0.000 A 
ATOM      6  C   UNL     1      -0.731  10.263  22.750  0.00  0.00    +0.000 A 
ATOM      7  C   UNL     1      -0.753   8.917  22.352  0.00  0.00    +0.000 A 
ATOM      8  C   UNL     1       0.077   8.421  21.312  0.00  0.00    +0.000 A 
ATOM      9  C   UNL     1       0.812   9.350  20.538  0.00  0.00    +0.000 A 
ENDROOT
BRANCH   2  10
ATOM     10  C   UNL     1      -0.314  10.382  17.991  0.00  0.00    +0.000 C 
ATOM     11  O   UNL     1      -0.539   9.275  17.481  0.00  0.00    +0.000 OA
ATOM     12  N   UNL     1      -1.320  11.341  17.935  0.00  0.00    +0.000 N 
ATOM     13  C   UNL     1      -2.619  10.890  17.416  0.00  0.00    +0.000 C 
ATOM     14  C   UNL     1      -3.640  10.785  18.565  0.00  0.00    +0.000 C 
ATOM     15  N   UNL     1      -3.765  12.129  19.153  0.00  0.00    +0.000 N 
ATOM     16  C   UNL     1      -2.496  12.651  19.716  0.00  0.00    +0.000 C 
ATOM     17  C   UNL     1      -1.383  12.632  18.634  0.00  0.00    +0.000 C 
BRANCH  15  18
ATOM     18  C   UNL     1      -4.961  12.524  19.741  0.00  0.00    +0.000 A 
ATOM     19  C   UNL     1      -6.046  12.833  18.903  0.00  0.00    +0.000 A 
ATOM     20  C   UNL     1      -7.299  13.186  19.413  0.00  0.00    +0.000 A 
ATOM     21  C   UNL     1      -7.500  13.239  20.787  0.00  0.00    +0.000 A 
ATOM     22  C   UNL     1      -6.451  12.925  21.646  0.00  0.00    +0.000 A 
ATOM     23  C   UNL     1      -5.204  12.567  21.126  0.00  0.00    +0.000 A 
ATOM     24  F   UNL     1      -4.228  12.280  22.003  0.00  0.00    +0.000 F 
ENDBRANCH  15  18
ENDBRANCH   2  10
BRANCH   1  27
ATOM     25  C   UNL     1       2.628   7.210  18.908  0.00  0.00    +0.000 C 
ATOM     26  O   UNL     1       2.446   6.844  20.067  0.00  0.00    +0.000 OA
ATOM     27  N   UNL     1       2.192   8.478  18.418  0.00  0.00    +0.000 N 
ATOM     28  H   UNL     1       2.340   8.750  17.449  0.00  0.00    +0.000 HD
BRANCH  25  32
ATOM     29  C   UNL     1       4.848   4.454  16.269  0.00  0.00    +0.000 A 
ATOM     30  C   UNL     1       5.138   5.813  16.338  0.00  0.00    +0.000 A 
ATOM     31  C   UNL     1       4.407   6.676  17.186  0.00  0.00    +0.000 A 
ATOM     32  C   UNL     1       3.337   6.219  17.992  0.00  0.00    +0.000 A 
ATOM     33  C   UNL     1       3.056   4.847  17.924  0.00  0.00    +0.000 A 
ATOM     34  C   UNL     1       3.802   3.987  17.085  0.00  0.00    +0.000 A 
BRANCH  29  35
ATOM     35  O   UNL     1       5.604   3.696  15.397  0.00  0.00    +0.000 OA
BRANCH  35  37
ATOM     36  C   UNL     1       6.061   3.686  12.977  0.00  0.00    +0.000 C 
ATOM     37  C   UNL     1       6.255   4.388  14.322  0.00  0.00    +0.000 C 
ENDBRANCH  35  37
ENDBRANCH  29  35
ENDBRANCH  25  32
ENDBRANCH   1  27
TORSDOF 6
ENDMDL
MODEL 2
REMARK VINA RESULT:      -8.7      0.831      1.146
REMARK  Name = 
REMARK  7 active torsions:
REMARK  status: ('A' for Active; 'I' for Inactive)
REMARK    1  A    between atoms: C_1  and  C_2
REMARK    2  A    between atoms: C_2  and  O_3
REMARK    3  A    between atoms: O_3  and  C_4
REMARK    4  A    between atoms: C_7  and  C_8
REMARK    5  A    between atoms: N_10  and  C_11
REMARK    6  A    between atoms: C_12  and  C_13
REMARK    7  A    between atoms: N_18  and  C_19
REMARK                            x       y       z     vdW  Elec       q    Type
REMARK                         _______ _______ _______ _____ _____    ______ ____
ROOT
ATOM      1  C   UNL     1       1.622   9.406  19.230  0.00  0.00    +0.000 A 
ATOM      2  C   UNL     1       0.963  10.538  18.733  0.00  0.00    +0.000 A 
ATOM      3  O   UNL     1       0.955  11.458  19.762  0.00  0.00    +0.000 OA
ATOM      4  C   UNL     1       0.673  10.678  20.844  0.00  0.00    +0.000 A 
ATOM      5  C   UNL     1       0.038  11.159  21.986  0.00  0.00    +0.000 A 
ATOM      6  C   UNL     1      -0.714  10.217  22.676  0.00  0.00    +0.000 A 
ATOM      7  C   UNL     1      -0.687   8.869  22.289  0.00  0.00    +0.000 A 
ATOM      8  C   UNL     1       0.170   8.392  21.261  0.00  0.00    +0.000 A 
ATOM      9  C   UNL     1       0.882   9.339  20.487  0.00  0.00    +0.000 A 
ENDROOT
BRANCH   2  10
ATOM     10  C   UNL     1      -0.250  10.312  17.921  0.00  0.00    +0.000 C 
ATOM     11  O   UNL     1      -0.438   9.191  17.426  0.00  0.00    +0.000 OA
ATOM     12  N   UNL     1      -1.281  11.242  17.837  0.00  0.00    +0.000 N 
ATOM     13  C   UNL     1      -2.561  10.746  17.311  0.00  0.00    +0.000 C 
ATOM     14  C   UNL     1      -3.593  10.631  18.449  0.00  0.00    +0.000 C 
ATOM     15  N   UNL     1      -3.762  11.981  19.013  0.00  0.00    +0.000 N 
ATOM     16  C   UNL     1      -2.515  12.547  19.582  0.00  0.00    +0.000 C 
ATOM     17  C   UNL     1      -1.389  12.541  18.514  0.00  0.00    +0.000 C 
BRANCH  15  18
ATOM     18  C   UNL     1      -4.976  12.352  19.582  0.00  0.00    +0.000 A 
ATOM     19  C   UNL     1      -5.005  12.646  20.955  0.00  0.00    +0.000 A 
ATOM     20  C   UNL     1      -6.170  13.079  21.595  0.00  0.00    +0.000 A 
ATOM     21  C   UNL     1      -7.347  13.230  20.870  0.00  0.00    +0.000 A 
ATOM     22  C   UNL     1      -7.348  12.960  19.504  0.00  0.00    +0.000 A 
ATOM     23  C   UNL     1      -6.177  12.534  18.873  0.00  0.00    +0.000 A 
ATOM     24  F   UNL     1      -6.241  12.284  17.555  0.00  0.00    +0.000 F 
ENDBRANCH  15  18
ENDBRANCH   2  10
BRANCH   1  27
ATOM     25  C   UNL     1       2.693   7.204  18.865  0.00  0.00    +0.000 C 
ATOM     26  O   UNL     1       2.428   6.805  19.997  0.00  0.00    +0.000 OA
ATOM     27  N   UNL     1       2.312   8.496  18.389  0.00  0.00    +0.000 N 
ATOM     28  H   UNL     1       2.529   8.795  17.442  0.00  0.00    +0.000 HD
BRANCH  25  32
ATOM     29  C   UNL     1       5.032   4.495  16.281  0.00  0.00    +0.000 A 
ATOM     30  C   UNL     1       5.310   5.855  16.378  0.00  0.00    +0.000 A 
ATOM     31  C   UNL     1       4.541   6.702  17.208  0.00  0.00    +0.000 A 
ATOM     32  C   UNL     1       3.443   6.229  17.966  0.00  0.00    +0.000 A 
ATOM     33  C   UNL     1       3.175   4.856  17.870  0.00  0.00    +0.000 A 
ATOM     34  C   UNL     1       3.959   4.012  17.050  0.00  0.00    +0.000 A 
BRANCH  29  35
ATOM     35  O   UNL     1       5.827   3.753  15.430  0.00  0.00    +0.000 OA
BRANCH  35  37
ATOM     36  C   UNL     1       5.855   3.642  12.970  0.00  0.00    +0.000 C 
ATOM     37  C   UNL     1       6.283   4.396  14.232  0.00  0.00    +0.000 C 
ENDBRANCH  35  37
ENDBRANCH  29  35
ENDBRANCH  25  32
ENDBRANCH   1  27
TORSDOF 6
ENDMDL
MODEL 3
REMARK VINA RESULT:      -8.5      3.267      4.600
REMARK  Name = 
REMARK  7 active torsions:
REMARK  status: ('A' for Active; 'I' for Inactive)
REMARK    1  A    between atoms: C_1  and  C_2
REMARK    2  A    between atoms: C_2  and  O_3
REMARK    3  A    between atoms: O_3  and  C_4
REMARK    4  A    between atoms: C_7  and  C_8
REMARK    5  A    between atoms: N_10  and  C_11
REMARK    6  A    between atoms: C_12  and  C_13
REMARK    7  A    between atoms: N_18  and  C_19
REMARK                            x       y       z     vdW  Elec       q    Type
REMARK                         _______ _______ _______ _____ _____    ______ ____
ROOT
ATOM      1  C   UNL     1       0.567  10.879  19.321  0.00  0.00    +0.000 A 
ATOM      2  C   UNL     1      -0.681  11.222  19.856  0.00  0.00    +0.000 A 
ATOM      3  O   UNL     1      -1.190  12.209  19.038  0.00  0.00    +0.000 OA
ATOM      4  C   UNL     1      -0.092  12.980  18.799  0.00  0.00    +0.000 A 
ATOM      5  C   UNL     1      -0.164  14.338  18.499  0.00  0.00    +0.000 A 
ATOM      6  C   UNL     1       0.940  15.082  18.893  0.00  0.00    +0.000 A 
ATOM      7  C   UNL     1       2.073  14.442  19.418  0.00  0.00    +0.000 A 
ATOM      8  C   UNL     1       2.186  13.028  19.478  0.00  0.00    +0.000 A 
ATOM      9  C   UNL     1       1.047  12.249  19.164  0.00  0.00    +0.000 A 
ENDROOT
BRANCH   2  10
ATOM     10  C   UNL     1      -0.776  11.344  21.326  0.00  0.00    +0.000 C 
ATOM     11  O   UNL     1       0.195  11.005  22.018  0.00  0.00    +0.000 OA
ATOM     12  N   UNL     1      -1.831  11.993  21.958  0.00  0.00    +0.000 N 
ATOM     13  C   UNL     1      -1.618  12.361  23.365  0.00  0.00    +0.000 C 
ATOM     14  C   UNL     1      -1.423  13.884  23.491  0.00  0.00    +0.000 C 
ATOM     15  N   UNL     1      -2.650  14.517  22.979  0.00  0.00    +0.000 N 
ATOM     16  C   UNL     1      -2.928  14.208  21.555  0.00  0.00    +0.000 C 
ATOM     17  C   UNL     1      -2.980  12.671  21.342  0.00  0.00    +0.000 C 
BRANCH  15  18
ATOM     18  C   UNL     1      -3.061  15.748  23.480  0.00  0.00    +0.000 A 
ATOM     19  C   UNL     1      -4.112  15.769  24.413  0.00  0.00    +0.000 A 
ATOM     20  C   UNL     1      -4.550  16.956  25.006  0.00  0.00    +0.000 A 
ATOM     21  C   UNL     1      -3.943  18.163  24.680  0.00  0.00    +0.000 A 
ATOM     22  C   UNL     1      -2.889  18.175  23.770  0.00  0.00    +0.000 A 
ATOM     23  C   UNL     1      -2.455  16.982  23.186  0.00  0.00    +0.000 A 
ATOM     24  F   UNL     1      -1.438  17.057  22.312  0.00  0.00    +0.000 F 
ENDBRANCH  15  18
ENDBRANCH   2  10
BRANCH   1  27
ATOM     25  C   UNL     1       1.880   8.970  18.447  0.00  0.00    +0.000 C 
ATOM     26  O   UNL     1       2.068   9.504  17.356  0.00  0.00    +0.000 OA
ATOM     27  N   UNL     1       1.148   9.597  19.501  0.00  0.00    +0.000 N 
ATOM     28  H   UNL     1       1.021   9.140  20.401  0.00  0.00    +0.000 HD
BRANCH  25  32
ATOM     29  C   UNL     1       3.825   5.032  18.891  0.00  0.00    +0.000 A 
ATOM     30  C   UNL     1       4.073   5.866  17.805  0.00  0.00    +0.000 A 
ATOM     31  C   UNL     1       3.432   7.120  17.683  0.00  0.00    +0.000 A 
ATOM     32  C   UNL     1       2.495   7.589  18.636  0.00  0.00    +0.000 A 
ATOM     33  C   UNL     1       2.257   6.747  19.731  0.00  0.00    +0.000 A 
ATOM     34  C   UNL     1       2.914   5.501  19.855  0.00  0.00    +0.000 A 
BRANCH  29  35
ATOM     35  O   UNL     1       4.485   3.819  18.913  0.00  0.00    +0.000 OA
BRANCH  35  37
ATOM     36  C   UNL     1       2.867   2.311  17.830  0.00  0.00    +0.000 C 
ATOM     37  C   UNL     1       3.685   2.641  19.080  0.00  0.00    +0.000 C 
ENDBRANCH  35  37
ENDBRANCH  29  35
ENDBRANCH  25  32
ENDBRANCH   1  27
TORSDOF 6
ENDMDL
MODEL 4
REMARK VINA RESULT:      -8.4      3.237      4.508
REMARK  Name = 
REMARK  7 active torsions:
REMARK  status: ('A' for Active; 'I' for Inactive)
REMARK    1  A    between atoms: C_1  and  C_2
REMARK    2  A    between atoms: C_2  and  O_3
REMARK    3  A    between atoms: O_3  and  C_4
REMARK    4  A    between atoms: C_7  and  C_8
REMARK    5  A    between atoms: N_10  and  C_11
REMARK    6  A    between atoms: C_12  and  C_13
REMARK    7  A    between atoms: N_18  and  C_19
REMARK                            x       y       z     vdW  Elec       q    Type
REMARK                         _______ _______ _______ _____ _____    ______ ____
ROOT
ATOM      1  C   UNL     1       0.573  10.953  19.313  0.00  0.00    +0.000 A 
ATOM      2  C   UNL     1      -0.665  11.338  19.843  0.00  0.00    +0.000 A 
ATOM      3  O   UNL     1      -1.136  12.343  19.022  0.00  0.00    +0.000 OA
ATOM      4  C   UNL     1      -0.010  13.076  18.789  0.00  0.00    +0.000 A 
ATOM      5  C   UNL     1      -0.034  14.435  18.490  0.00  0.00    +0.000 A 
ATOM      6  C   UNL     1       1.093  15.140  18.890  0.00  0.00    +0.000 A 
ATOM      7  C   UNL     1       2.201  14.462  19.420  0.00  0.00    +0.000 A 
ATOM      8  C   UNL     1       2.264  13.044  19.480  0.00  0.00    +0.000 A 
ATOM      9  C   UNL     1       1.101  12.306  19.160  0.00  0.00    +0.000 A 
ENDROOT
BRANCH   2  10
ATOM     10  C   UNL     1      -0.763  11.464  21.312  0.00  0.00    +0.000 C 
ATOM     11  O   UNL     1       0.215  11.146  22.006  0.00  0.00    +0.000 OA
ATOM     12  N   UNL     1      -1.831  12.093  21.942  0.00  0.00    +0.000 N 
ATOM     13  C   UNL     1      -1.625  12.469  23.348  0.00  0.00    +0.000 C 
ATOM     14  C   UNL     1      -1.461  13.997  23.469  0.00  0.00    +0.000 C 
ATOM     15  N   UNL     1      -2.699  14.604  22.955  0.00  0.00    +0.000 N 
ATOM     16  C   UNL     1      -2.971  14.285  21.532  0.00  0.00    +0.000 C 
ATOM     17  C   UNL     1      -2.992  12.746  21.324  0.00  0.00    +0.000 C 
BRANCH  15  18
ATOM     18  C   UNL     1      -3.135  15.827  23.452  0.00  0.00    +0.000 A 
ATOM     19  C   UNL     1      -3.345  16.878  22.544  0.00  0.00    +0.000 A 
ATOM     20  C   UNL     1      -3.833  18.123  22.952  0.00  0.00    +0.000 A 
ATOM     21  C   UNL     1      -4.126  18.350  24.292  0.00  0.00    +0.000 A 
ATOM     22  C   UNL     1      -3.943  17.325  25.216  0.00  0.00    +0.000 A 
ATOM     23  C   UNL     1      -3.460  16.083  24.796  0.00  0.00    +0.000 A 
ATOM     24  F   UNL     1      -3.298  15.135  25.734  0.00  0.00    +0.000 F 
ENDBRANCH  15  18
ENDBRANCH   2  10
BRANCH   1  27
ATOM     25  C   UNL     1       1.842   9.009  18.452  0.00  0.00    +0.000 C 
ATOM     26  O   UNL     1       2.070   9.544  17.370  0.00  0.00    +0.000 OA
ATOM     27  N   UNL     1       1.108   9.651  19.495  0.00  0.00    +0.000 N 
ATOM     28  H   UNL     1       0.947   9.192  20.389  0.00  0.00    +0.000 HD
BRANCH  25  32
ATOM     29  C   UNL     1       3.643   5.003  18.896  0.00  0.00    +0.000 A 
ATOM     30  C   UNL     1       3.890   5.811  17.790  0.00  0.00    +0.000 A 
ATOM     31  C   UNL     1       3.295   7.088  17.670  0.00  0.00    +0.000 A 
ATOM     32  C   UNL     1       2.408   7.606  18.643  0.00  0.00    +0.000 A 
ATOM     33  C   UNL     1       2.170   6.790  19.757  0.00  0.00    +0.000 A 
ATOM     34  C   UNL     1       2.782   5.521  19.880  0.00  0.00    +0.000 A 
BRANCH  29  35
ATOM     35  O   UNL     1       4.255   3.765  18.915  0.00  0.00    +0.000 OA
BRANCH  35  37
ATOM     36  C   UNL     1       2.585   2.274  17.891  0.00  0.00    +0.000 C 
ATOM     37  C   UNL     1       3.986   2.884  17.816  0.00  0.00    +0.000 C 
ENDBRANCH  35  37
ENDBRANCH  29  35
ENDBRANCH  25  32
ENDBRANCH   1  27
TORSDOF 6
ENDMDL
MODEL 5
REMARK VINA RESULT:      -8.3      3.175      4.623
REMARK  Name = 
REMARK  7 active torsions:
REMARK  status: ('A' for Active; 'I' for Inactive)
REMARK    1  A    between atoms: C_1  and  C_2
REMARK    2  A    between atoms: C_2  and  O_3
REMARK    3  A    between atoms: O_3  and  C_4
REMARK    4  A    between atoms: C_7  and  C_8
REMARK    5  A    between atoms: N_10  and  C_11
REMARK    6  A    between atoms: C_12  and  C_13
REMARK    7  A    between atoms: N_18  and  C_19
REMARK                            x       y       z     vdW  Elec       q    Type
REMARK                         _______ _______ _______ _____ _____    ______ ____
ROOT
ATOM      1  C   UNL     1       0.496  11.099  19.336  0.00  0.00    +0.000 A 
ATOM      2  C   UNL     1      -0.739  11.434  19.906  0.00  0.00    +0.000 A 
ATOM      3  O   UNL     1      -1.248  12.461  19.138  0.00  0.00    +0.000 OA
ATOM      4  C   UNL     1      -0.144  13.228  18.914  0.00  0.00    +0.000 A 
ATOM      5  C   UNL     1      -0.203  14.598  18.673  0.00  0.00    +0.000 A 
ATOM      6  C   UNL     1       0.916  15.311  19.079  0.00  0.00    +0.000 A 
ATOM      7  C   UNL     1       2.049  14.636  19.559  0.00  0.00    +0.000 A 
ATOM      8  C   UNL     1       2.144  13.219  19.557  0.00  0.00    +0.000 A 
ATOM      9  C   UNL     1       0.991  12.468  19.229  0.00  0.00    +0.000 A 
ENDROOT
BRANCH   2  10
ATOM     10  C   UNL     1      -0.809  11.495  21.381  0.00  0.00    +0.000 C 
ATOM     11  O   UNL     1       0.203  11.216  22.040  0.00  0.00    +0.000 OA
ATOM     12  N   UNL     1      -1.900  12.028  22.059  0.00  0.00    +0.000 N 
ATOM     13  C   UNL     1      -1.685  12.363  23.474  0.00  0.00    +0.000 C 
ATOM     14  C   UNL     1      -1.617  13.892  23.653  0.00  0.00    +0.000 C 
ATOM     15  N   UNL     1      -2.904  14.436  23.190  0.00  0.00    +0.000 N 
ATOM     16  C   UNL     1      -3.189  14.155  21.762  0.00  0.00    +0.000 C 
ATOM     17  C   UNL     1      -3.116  12.628  21.492  0.00  0.00    +0.000 C 
BRANCH  15  18
ATOM     18  C   UNL     1      -3.406  15.608  23.745  0.00  0.00    +0.000 A 
ATOM     19  C   UNL     1      -2.550  16.720  23.838  0.00  0.00    +0.000 A 
ATOM     20  C   UNL     1      -2.989  17.952  24.333  0.00  0.00    +0.000 A 
ATOM     21  C   UNL     1      -4.306  18.104  24.751  0.00  0.00    +0.000 A 
ATOM     22  C   UNL     1      -5.183  17.027  24.659  0.00  0.00    +0.000 A 
ATOM     23  C   UNL     1      -4.736  15.802  24.158  0.00  0.00    +0.000 A 
ATOM     24  F   UNL     1      -5.626  14.798  24.098  0.00  0.00    +0.000 F 
ENDBRANCH  15  18
ENDBRANCH   2  10
BRANCH   1  27
ATOM     25  C   UNL     1       1.878   9.264  18.411  0.00  0.00    +0.000 C 
ATOM     26  O   UNL     1       2.152   9.888  17.389  0.00  0.00    +0.000 OA
ATOM     27  N   UNL     1       1.063   9.803  19.453  0.00  0.00    +0.000 N 
ATOM     28  H   UNL     1       0.864   9.272  20.297  0.00  0.00    +0.000 HD
BRANCH  25  32
ATOM     29  C   UNL     1       3.452   5.164  18.859  0.00  0.00    +0.000 A 
ATOM     30  C   UNL     1       2.586   5.734  19.788  0.00  0.00    +0.000 A 
ATOM     31  C   UNL     1       2.102   7.052  19.624  0.00  0.00    +0.000 A 
ATOM     32  C   UNL     1       2.479   7.869  18.531  0.00  0.00    +0.000 A 
ATOM     33  C   UNL     1       3.344   7.285  17.595  0.00  0.00    +0.000 A 
ATOM     34  C   UNL     1       3.811   5.959  17.756  0.00  0.00    +0.000 A 
BRANCH  29  35
ATOM     35  O   UNL     1       3.885   3.878  19.115  0.00  0.00    +0.000 OA
BRANCH  35  37
ATOM     36  C   UNL     1       2.285   2.482  17.867  0.00  0.00    +0.000 C 
ATOM     37  C   UNL     1       3.739   2.916  18.061  0.00  0.00    +0.000 C 
ENDBRANCH  35  37
ENDBRANCH  29  35
ENDBRANCH  25  32
ENDBRANCH   1  27
TORSDOF 6
ENDMDL
MODEL 6
REMARK VINA RESULT:      -7.9      3.054      4.404
REMARK  Name = 
REMARK  7 active torsions:
REMARK  status: ('A' for Active; 'I' for Inactive)
REMARK    1  A    between atoms: C_1  and  C_2
REMARK    2  A    between atoms: C_2  and  O_3
REMARK    3  A    between atoms: O_3  and  C_4
REMARK    4  A    between atoms: C_7  and  C_8
REMARK    5  A    between atoms: N_10  and  C_11
REMARK    6  A    between atoms: C_12  and  C_13
REMARK    7  A    between atoms: N_18  and  C_19
REMARK                            x       y       z     vdW  Elec       q    Type
REMARK                         _______ _______ _______ _____ _____    ______ ____
ROOT
ATOM      1  C   UNL     1       1.050  11.633  19.140  0.00  0.00    +0.000 A 
ATOM      2  C   UNL     1      -0.264  11.672  19.624  0.00  0.00    +0.000 A 
ATOM      3  O   UNL     1      -0.902  12.670  18.916  0.00  0.00    +0.000 OA
ATOM      4  C   UNL     1       0.049  13.645  18.870  0.00  0.00    +0.000 A 
ATOM      5  C   UNL     1      -0.251  14.999  18.759  0.00  0.00    +0.000 A 
ATOM      6  C   UNL     1       0.681  15.853  19.333  0.00  0.00    +0.000 A 
ATOM      7  C   UNL     1       1.884  15.345  19.847  0.00  0.00    +0.000 A 
ATOM      8  C   UNL     1       2.246  13.978  19.716  0.00  0.00    +0.000 A 
ATOM      9  C   UNL     1       1.282  13.072  19.213  0.00  0.00    +0.000 A 
ENDROOT
BRANCH   2  10
ATOM     10  C   UNL     1      -0.450  11.554  21.085  0.00  0.00    +0.000 C 
ATOM     11  O   UNL     1       0.523  11.246  21.789  0.00  0.00    +0.000 OA
ATOM     12  N   UNL     1      -1.619  11.949  21.728  0.00  0.00    +0.000 N 
ATOM     13  C   UNL     1      -1.533  12.122  23.185  0.00  0.00    +0.000 C 
ATOM     14  C   UNL     1      -1.566  13.620  23.544  0.00  0.00    +0.000 C 
ATOM     15  N   UNL     1      -2.843  14.154  23.042  0.00  0.00    +0.000 N 
ATOM     16  C   UNL     1      -3.001  14.032  21.572  0.00  0.00    +0.000 C 
ATOM     17  C   UNL     1      -2.820  12.553  21.135  0.00  0.00    +0.000 C 
BRANCH  15  18
ATOM     18  C   UNL     1      -3.452  15.225  23.685  0.00  0.00    +0.000 A 
ATOM     19  C   UNL     1      -2.634  16.254  24.183  0.00  0.00    +0.000 A 
ATOM     20  C   UNL     1      -3.167  17.393  24.795  0.00  0.00    +0.000 A 
ATOM     21  C   UNL     1      -4.544  17.532  24.924  0.00  0.00    +0.000 A 
ATOM     22  C   UNL     1      -5.383  16.538  24.429  0.00  0.00    +0.000 A 
ATOM     23  C   UNL     1      -4.840  15.407  23.814  0.00  0.00    +0.000 A 
ATOM     24  F   UNL     1      -5.699  14.479  23.360  0.00  0.00    +0.000 F 
ENDBRANCH  15  18
ENDBRANCH   2  10
BRANCH   1  27
ATOM     25  C   UNL     1       1.503   9.317  18.390  0.00  0.00    +0.000 C 
ATOM     26  O   UNL     1       0.542   9.299  17.624  0.00  0.00    +0.000 OA
ATOM     27  N   UNL     1       1.842  10.456  19.182  0.00  0.00    +0.000 N 
ATOM     28  H   UNL     1       2.653  10.451  19.796  0.00  0.00    +0.000 HD
BRANCH  25  32
ATOM     29  C   UNL     1       4.093   5.742  18.439  0.00  0.00    +0.000 A 
ATOM     30  C   UNL     1       4.154   6.691  17.422  0.00  0.00    +0.000 A 
ATOM     31  C   UNL     1       3.308   7.824  17.427  0.00  0.00    +0.000 A 
ATOM     32  C   UNL     1       2.347   8.049  18.442  0.00  0.00    +0.000 A 
ATOM     33  C   UNL     1       2.298   7.094  19.466  0.00  0.00    +0.000 A 
ATOM     34  C   UNL     1       3.158   5.971  19.464  0.00  0.00    +0.000 A 
BRANCH  29  35
ATOM     35  O   UNL     1       4.946   4.661  18.337  0.00  0.00    +0.000 OA
BRANCH  35  37
ATOM     36  C   UNL     1       7.326   4.689  17.704  0.00  0.00    +0.000 C 
ATOM     37  C   UNL     1       5.869   4.656  17.239  0.00  0.00    +0.000 C 
ENDBRANCH  35  37
ENDBRANCH  29  35
ENDBRANCH  25  32
ENDBRANCH   1  27
TORSDOF 6
ENDMDL
MODEL 7
REMARK VINA RESULT:      -7.8      4.593      7.377
REMARK  Name = 
REMARK  7 active torsions:
REMARK  status: ('A' for Active; 'I' for Inactive)
REMARK    1  A    between atoms: C_1  and  C_2
REMARK    2  A    between atoms: C_2  and  O_3
REMARK    3  A    between atoms: O_3  and  C_4
REMARK    4  A    between atoms: C_7  and  C_8
REMARK    5  A    between atoms: N_10  and  C_11
REMARK    6  A    between atoms: C_12  and  C_13
REMARK    7  A    between atoms: N_18  and  C_19
REMARK                            x       y       z     vdW  Elec       q    Type
REMARK                         _______ _______ _______ _____ _____    ______ ____
ROOT
ATOM      1  C   UNL     1      -1.003  12.243  22.006  0.00  0.00    +0.000 A 
ATOM      2  C   UNL     1      -0.364  13.459  22.278  0.00  0.00    +0.000 A 
ATOM      3  O   UNL     1      -0.808  13.854  23.523  0.00  0.00    +0.000 OA
ATOM      4  C   UNL     1      -2.136  13.550  23.466  0.00  0.00    +0.000 A 
ATOM      5  C   UNL     1      -3.104  14.216  24.212  0.00  0.00    +0.000 A 
ATOM      6  C   UNL     1      -4.363  14.258  23.629  0.00  0.00    +0.000 A 
ATOM      7  C   UNL     1      -4.620  13.546  22.447  0.00  0.00    +0.000 A 
ATOM      8  C   UNL     1      -3.658  12.685  21.857  0.00  0.00    +0.000 A 
ATOM      9  C   UNL     1      -2.343  12.688  22.380  0.00  0.00    +0.000 A 
ENDROOT
BRANCH   2  10
ATOM     10  C   UNL     1      -0.268  14.435  21.173  0.00  0.00    +0.000 C 
ATOM     11  O   UNL     1      -1.015  15.425  21.183  0.00  0.00    +0.000 OA
ATOM     12  N   UNL     1       0.743  14.394  20.219  0.00  0.00    +0.000 N 
ATOM     13  C   UNL     1       0.932  15.611  19.418  0.00  0.00    +0.000 C 
ATOM     14  C   UNL     1       2.221  16.336  19.851  0.00  0.00    +0.000 C 
ATOM     15  N   UNL     1       3.335  15.401  19.626  0.00  0.00    +0.000 N 
ATOM     16  C   UNL     1       3.228  14.149  20.415  0.00  0.00    +0.000 C 
ATOM     17  C   UNL     1       1.869  13.454  20.132  0.00  0.00    +0.000 C 
BRANCH  15  18
ATOM     18  C   UNL     1       4.604  15.887  19.326  0.00  0.00    +0.000 A 
ATOM     19  C   UNL     1       5.045  17.047  19.985  0.00  0.00    +0.000 A 
ATOM     20  C   UNL     1       6.325  17.571  19.783  0.00  0.00    +0.000 A 
ATOM     21  C   UNL     1       7.204  16.942  18.910  0.00  0.00    +0.000 A 
ATOM     22  C   UNL     1       6.804  15.783  18.252  0.00  0.00    +0.000 A 
ATOM     23  C   UNL     1       5.524  15.264  18.465  0.00  0.00    +0.000 A 
ATOM     24  F   UNL     1       5.192  14.146  17.799  0.00  0.00    +0.000 F 
ENDBRANCH  15  18
ENDBRANCH   2  10
BRANCH   1  27
ATOM     25  C   UNL     1       0.400  10.233  21.656  0.00  0.00    +0.000 C 
ATOM     26  O   UNL     1       0.665  10.120  22.850  0.00  0.00    +0.000 OA
ATOM     27  N   UNL     1      -0.444  11.265  21.143  0.00  0.00    +0.000 N 
ATOM     28  H   UNL     1      -0.661  11.327  20.151  0.00  0.00    +0.000 HD
BRANCH  25  32
ATOM     29  C   UNL     1       2.239   7.358  18.856  0.00  0.00    +0.000 A 
ATOM     30  C   UNL     1       1.812   8.620  18.452  0.00  0.00    +0.000 A 
ATOM     31  C   UNL     1       1.219   9.519  19.368  0.00  0.00    +0.000 A 
ATOM     32  C   UNL     1       1.010   9.189  20.728  0.00  0.00    +0.000 A 
ATOM     33  C   UNL     1       1.451   7.920  21.129  0.00  0.00    +0.000 A 
ATOM     34  C   UNL     1       2.058   7.031  20.211  0.00  0.00    +0.000 A 
BRANCH  29  35
ATOM     35  O   UNL     1       2.788   6.544  17.885  0.00  0.00    +0.000 OA
BRANCH  35  37
ATOM     36  C   UNL     1       1.603   4.392  17.715  0.00  0.00    +0.000 C 
ATOM     37  C   UNL     1       2.858   5.140  18.170  0.00  0.00    +0.000 C 
ENDBRANCH  35  37
ENDBRANCH  29  35
ENDBRANCH  25  32
ENDBRANCH   1  27
TORSDOF 6
ENDMDL
MODEL 8
REMARK VINA RESULT:      -7.8      3.238      4.453
REMARK  Name = 
REMARK  7 active torsions:
REMARK  status: ('A' for Active; 'I' for Inactive)
REMARK    1  A    between atoms: C_1  and  C_2
REMARK    2  A    between atoms: C_2  and  O_3
REMARK    3  A    between atoms: O_3  and  C_4
REMARK    4  A    between atoms: C_7  and  C_8
REMARK    5  A    between atoms: N_10  and  C_11
REMARK    6  A    between atoms: C_12  and  C_13
REMARK    7  A    between atoms: N_18  and  C_19
REMARK                            x       y       z     vdW  Elec       q    Type
REMARK                         _______ _______ _______ _____ _____    ______ ____
ROOT
ATOM      1  C   UNL     1       0.601  10.962  19.221  0.00  0.00    +0.000 A 
ATOM      2  C   UNL     1      -0.657  11.210  19.786  0.00  0.00    +0.000 A 
ATOM      3  O   UNL     1      -1.250  12.170  18.991  0.00  0.00    +0.000 OA
ATOM      4  C   UNL     1      -0.213  13.019  18.741  0.00  0.00    +0.000 A 
ATOM      5  C   UNL     1      -0.384  14.372  18.462  0.00  0.00    +0.000 A 
ATOM      6  C   UNL     1       0.674  15.185  18.844  0.00  0.00    +0.000 A 
ATOM      7  C   UNL     1       1.859  14.619  19.338  0.00  0.00    +0.000 A 
ATOM      8  C   UNL     1       2.070  13.216  19.376  0.00  0.00    +0.000 A 
ATOM      9  C   UNL     1       0.981  12.364  19.074  0.00  0.00    +0.000 A 
ENDROOT
BRANCH   2  10
ATOM     10  C   UNL     1      -0.730  11.308  21.259  0.00  0.00    +0.000 C 
ATOM     11  O   UNL     1       0.243  10.935  21.931  0.00  0.00    +0.000 OA
ATOM     12  N   UNL     1      -1.762  11.967  21.917  0.00  0.00    +0.000 N 
ATOM     13  C   UNL     1      -1.523  12.305  23.327  0.00  0.00    +0.000 C 
ATOM     14  C   UNL     1      -1.293  13.821  23.478  0.00  0.00    +0.000 C 
ATOM     15  N   UNL     1      -2.512  14.490  22.994  0.00  0.00    +0.000 N 
ATOM     16  C   UNL     1      -2.815  14.213  21.569  0.00  0.00    +0.000 C 
ATOM     17  C   UNL     1      -2.904  12.682  21.329  0.00  0.00    +0.000 C 
BRANCH  15  18
ATOM     18  C   UNL     1      -2.889  15.719  23.523  0.00  0.00    +0.000 A 
ATOM     19  C   UNL     1      -2.923  16.831  22.665  0.00  0.00    +0.000 A 
ATOM     20  C   UNL     1      -3.342  18.091  23.101  0.00  0.00    +0.000 A 
ATOM     21  C   UNL     1      -3.743  18.272  24.420  0.00  0.00    +0.000 A 
ATOM     22  C   UNL     1      -3.735  17.188  25.293  0.00  0.00    +0.000 A 
ATOM     23  C   UNL     1      -3.320  15.931  24.845  0.00  0.00    +0.000 A 
ATOM     24  F   UNL     1      -3.329  14.925  25.734  0.00  0.00    +0.000 F 
ENDBRANCH  15  18
ENDBRANCH   2  10
BRANCH   1  27
ATOM     25  C   UNL     1       1.955   9.119  18.271  0.00  0.00    +0.000 C 
ATOM     26  O   UNL     1       2.021   9.642  17.161  0.00  0.00    +0.000 OA
ATOM     27  N   UNL     1       1.272   9.721  19.372  0.00  0.00    +0.000 N 
ATOM     28  H   UNL     1       1.246   9.275  20.286  0.00  0.00    +0.000 HD
BRANCH  25  32
ATOM     29  C   UNL     1       4.176   5.320  18.628  0.00  0.00    +0.000 A 
ATOM     30  C   UNL     1       4.360   6.193  17.560  0.00  0.00    +0.000 A 
ATOM     31  C   UNL     1       3.631   7.400  17.466  0.00  0.00    +0.000 A 
ATOM     32  C   UNL     1       2.667   7.781  18.430  0.00  0.00    +0.000 A 
ATOM     33  C   UNL     1       2.492   6.902  19.507  0.00  0.00    +0.000 A 
ATOM     34  C   UNL     1       3.237   5.703  19.603  0.00  0.00    +0.000 A 
BRANCH  29  35
ATOM     35  O   UNL     1       4.920   4.158  18.623  0.00  0.00    +0.000 OA
BRANCH  35  37
ATOM     36  C   UNL     1       7.273   4.659  18.096  0.00  0.00    +0.000 C 
ATOM     37  C   UNL     1       5.951   4.045  17.632  0.00  0.00    +0.000 C 
ENDBRANCH  35  37
ENDBRANCH  29  35
ENDBRANCH  25  32
ENDBRANCH   1  27
TORSDOF 6
ENDMDL
MODEL 9
REMARK VINA RESULT:      -7.7      4.538      7.340
REMARK  Name = 
REMARK  7 active torsions:
REMARK  status: ('A' for Active; 'I' for Inactive)
REMARK    1  A    between atoms: C_1  and  C_2
REMARK    2  A    between atoms: C_2  and  O_3
REMARK    3  A    between atoms: O_3  and  C_4
REMARK    4  A    between atoms: C_7  and  C_8
REMARK    5  A    between atoms: N_10  and  C_11
REMARK    6  A    between atoms: C_12  and  C_13
REMARK    7  A    between atoms: N_18  and  C_19
REMARK                            x       y       z     vdW  Elec       q    Type
REMARK                         _______ _______ _______ _____ _____    ______ ____
ROOT
ATOM      1  C   UNL     1      -1.173  12.199  20.853  0.00  0.00    +0.000 A 
ATOM      2  C   UNL     1      -0.570  13.410  21.214  0.00  0.00    +0.000 A 
ATOM      3  O   UNL     1      -1.186  13.811  22.382  0.00  0.00    +0.000 OA
ATOM      4  C   UNL     1      -2.494  13.517  22.133  0.00  0.00    +0.000 A 
ATOM      5  C   UNL     1      -3.554  14.193  22.731  0.00  0.00    +0.000 A 
ATOM      6  C   UNL     1      -4.716  14.244  21.972  0.00  0.00    +0.000 A 
ATOM      7  C   UNL     1      -4.804  13.531  20.766  0.00  0.00    +0.000 A 
ATOM      8  C   UNL     1      -3.774  12.661  20.322  0.00  0.00    +0.000 A 
ATOM      9  C   UNL     1      -2.548  12.655  21.030  0.00  0.00    +0.000 A 
ENDROOT
BRANCH   2  10
ATOM     10  C   UNL     1      -0.307  14.383  20.133  0.00  0.00    +0.000 C 
ATOM     11  O   UNL     1      -1.074  15.348  19.998  0.00  0.00    +0.000 OA
ATOM     12  N   UNL     1       0.860  14.370  19.378  0.00  0.00    +0.000 N 
ATOM     13  C   UNL     1       1.152  15.589  18.610  0.00  0.00    +0.000 C 
ATOM     14  C   UNL     1       2.318  16.358  19.260  0.00  0.00    +0.000 C 
ATOM     15  N   UNL     1       3.484  15.459  19.249  0.00  0.00    +0.000 N 
ATOM     16  C   UNL     1       3.276  14.208  20.019  0.00  0.00    +0.000 C 
ATOM     17  C   UNL     1       2.013  13.467  19.505  0.00  0.00    +0.000 C 
BRANCH  15  18
ATOM     18  C   UNL     1       4.770  15.984  19.177  0.00  0.00    +0.000 A 
ATOM     19  C   UNL     1       5.072  17.113  19.958  0.00  0.00    +0.000 A 
ATOM     20  C   UNL     1       6.353  17.672  19.986  0.00  0.00    +0.000 A 
ATOM     21  C   UNL     1       7.373  17.110  19.228  0.00  0.00    +0.000 A 
ATOM     22  C   UNL     1       7.111  15.983  18.454  0.00  0.00    +0.000 A 
ATOM     23  C   UNL     1       5.828  15.429  18.438  0.00  0.00    +0.000 A 
ATOM     24  F   UNL     1       5.634  14.345  17.668  0.00  0.00    +0.000 F 
ENDBRANCH  15  18
ENDBRANCH   2  10
BRANCH   1  27
ATOM     25  C   UNL     1       0.476  10.360  20.674  0.00  0.00    +0.000 C 
ATOM     26  O   UNL     1       0.770  10.410  21.867  0.00  0.00    +0.000 OA
ATOM     27  N   UNL     1      -0.503  11.214  20.081  0.00  0.00    +0.000 N 
ATOM     28  H   UNL     1      -0.740  11.142  19.095  0.00  0.00    +0.000 HD
BRANCH  25  32
ATOM     29  C   UNL     1       2.519   7.177  18.399  0.00  0.00    +0.000 A 
ATOM     30  C   UNL     1       2.302   7.088  19.770  0.00  0.00    +0.000 A 
ATOM     31  C   UNL     1       1.651   8.125  20.477  0.00  0.00    +0.000 A 
ATOM     32  C   UNL     1       1.204   9.310  19.844  0.00  0.00    +0.000 A 
ATOM     33  C   UNL     1       1.419   9.388  18.461  0.00  0.00    +0.000 A 
ATOM     34  C   UNL     1       2.056   8.339  17.758  0.00  0.00    +0.000 A 
BRANCH  29  35
ATOM     35  O   UNL     1       3.180   6.122  17.801  0.00  0.00    +0.000 OA
BRANCH  35  37
ATOM     36  C   UNL     1       1.540   4.287  17.696  0.00  0.00    +0.000 C 
ATOM     37  C   UNL     1       2.864   4.803  18.266  0.00  0.00    +0.000 C 
ENDBRANCH  35  37
ENDBRANCH  29  35
ENDBRANCH  25  32
ENDBRANCH   1  27
TORSDOF 6
ENDMDL
