MODEL 1
REMARK VINA RESULT:      -7.5      0.000      0.000
REMARK  Name = 
REMARK  7 active torsions:
REMARK  status: ('A' for Active; 'I' for Inactive)
REMARK    1  A    between atoms: C_1  and  C_2
REMARK    2  A    between atoms: C_2  and  O_3
REMARK    3  A    between atoms: O_3  and  C_4
REMARK    4  A    between atoms: C_4  and  C_6
REMARK    5  A    between atoms: C_11  and  C_12
REMARK    6  A    between atoms: C_19  and  C_20
REMARK    7  A    between atoms: C_28  and  O_29
REMARK                            x       y       z     vdW  Elec       q    Type
REMARK                         _______ _______ _______ _____ _____    ______ ____
ROOT
ATOM      1  C   UNL     1       2.023   9.389  18.488  0.00  0.00    +0.000 A 
ATOM      2  N   UNL     1       2.851   8.670  17.632  0.00  0.00    +0.000 NA
ATOM      3  N   UNL     1       3.170   7.468  17.861  0.00  0.00    +0.000 NA
ATOM      4  C   UNL     1       2.697   6.832  18.971  0.00  0.00    +0.000 A 
ATOM      5  C   UNL     1       2.879   5.594  19.539  0.00  0.00    +0.000 A 
ATOM      6  C   UNL     1       3.680   4.459  19.194  0.00  0.00    +0.000 A 
ATOM      7  C   UNL     1       3.629   3.367  20.009  0.00  0.00    +0.000 A 
ATOM      8  C   UNL     1       2.739   3.366  21.227  0.00  0.00    +0.000 A 
ATOM      9  O   UNL     1       2.658   2.385  21.964  0.00  0.00    +0.000 OA
ATOM     10  N   UNL     1       2.008   4.499  21.501  0.00  0.00    +0.000 N 
ATOM     11  C   UNL     1       2.074   5.589  20.685  0.00  0.00    +0.000 A 
ATOM     12  N   UNL     1       1.416   6.724  20.872  0.00  0.00    +0.000 NA
ATOM     13  N   UNL     1       1.831   7.501  19.828  0.00  0.00    +0.000 N 
ATOM     14  C   UNL     1       1.479   8.822  19.583  0.00  0.00    +0.000 A 
ATOM     15  H   UNL     1       1.414   4.530  22.317  0.00  0.00    +0.000 HD
ENDROOT
BRANCH   6  16
ATOM     16  C   UNL     1       4.595   4.443  18.023  0.00  0.00    +0.000 A 
ATOM     17  C   UNL     1       4.115   3.965  16.792  0.00  0.00    +0.000 A 
ATOM     18  C   UNL     1       4.960   3.898  15.682  0.00  0.00    +0.000 A 
ATOM     19  C   UNL     1       6.286   4.317  15.783  0.00  0.00    +0.000 A 
ATOM     20  C   UNL     1       6.773   4.801  16.996  0.00  0.00    +0.000 A 
ATOM     21  C   UNL     1       5.936   4.860  18.113  0.00  0.00    +0.000 A 
ATOM     22 CL   UNL     1       6.607   5.434  19.600  0.00  0.00    +0.000 Cl
ENDBRANCH   6  16
BRANCH   1  23
ATOM     23  C   UNL     1       1.680  10.802  18.156  0.00  0.00    +0.000 C 
ATOM     24  O   UNL     1       2.481  11.697  17.933  0.00  0.00    +0.000 OA
BRANCH  23  25
ATOM     25  O   UNL     1       0.330  10.966  18.234  0.00  0.00    +0.000 OA
BRANCH  25  27
ATOM     26  C   UNL     1      -1.551  12.191  19.030  0.00  0.00    +0.000 C 
ATOM     27  C   UNL     1      -0.092  12.283  18.617  0.00  0.00    +0.000 C 
ENDBRANCH  25  27
ENDBRANCH  23  25
ENDBRANCH   1  23
BRANCH   7  28
ATOM     28  C   UNL     1       4.394   2.189  19.779  0.00  0.00    +0.000 C 
ATOM     29  N   UNL     1       5.033   1.232  19.634  0.00  0.00    +0.000 NA
ENDBRANCH   7  28
BRANCH  14  30
ATOM     30  O   UNL     1       0.603   9.446  20.454  0.00  0.00    +0.000 OA
ATOM     31  H   UNL     1       0.310  10.275  20.021  0.00  0.00    +0.000 HD
ENDBRANCH  14  30
TORSDOF 6
ENDMDL
MODEL 2
REMARK VINA RESULT:      -7.5      1.030      1.364
REMARK  Name = 
REMARK  7 active torsions:
REMARK  status: ('A' for Active; 'I' for Inactive)
REMARK    1  A    between atoms: C_1  and  C_2
REMARK    2  A    between atoms: C_2  and  O_3
REMARK    3  A    between atoms: O_3  and  C_4
REMARK    4  A    between atoms: C_4  and  C_6
REMARK    5  A    between atoms: C_11  and  C_12
REMARK    6  A    between atoms: C_19  and  C_20
REMARK    7  A    between atoms: C_28  and  O_29
REMARK                            x       y       z     vdW  Elec       q    Type
REMARK                         _______ _______ _______ _____ _____    ______ ____
ROOT
ATOM      1  C   UNL     1       1.942   9.199  18.614  0.00  0.00    +0.000 A 
ATOM      2  N   UNL     1       2.833   8.509  17.799  0.00  0.00    +0.000 NA
ATOM      3  N   UNL     1       3.178   7.316  18.043  0.00  0.00    +0.000 NA
ATOM      4  C   UNL     1       2.669   6.663  19.127  0.00  0.00    +0.000 A 
ATOM      5  C   UNL     1       2.861   5.430  19.701  0.00  0.00    +0.000 A 
ATOM      6  C   UNL     1       3.712   4.321  19.396  0.00  0.00    +0.000 A 
ATOM      7  C   UNL     1       3.654   3.225  20.206  0.00  0.00    +0.000 A 
ATOM      8  C   UNL     1       2.705   3.194  21.378  0.00  0.00    +0.000 A 
ATOM      9  O   UNL     1       2.617   2.209  22.108  0.00  0.00    +0.000 OA
ATOM     10  N   UNL     1       1.926   4.303  21.616  0.00  0.00    +0.000 N 
ATOM     11  C   UNL     1       2.000   5.397  20.806  0.00  0.00    +0.000 A 
ATOM     12  N   UNL     1       1.299   6.511  20.962  0.00  0.00    +0.000 NA
ATOM     13  N   UNL     1       1.742   7.303  19.940  0.00  0.00    +0.000 N 
ATOM     14  C   UNL     1       1.361   8.613  19.680  0.00  0.00    +0.000 A 
ATOM     15  H   UNL     1       1.292   4.314  22.402  0.00  0.00    +0.000 HD
ENDROOT
BRANCH   6  16
ATOM     16  C   UNL     1       4.684   4.336  18.271  0.00  0.00    +0.000 A 
ATOM     17  C   UNL     1       5.973   4.849  18.494  0.00  0.00    +0.000 A 
ATOM     18  C   UNL     1       6.897   4.915  17.449  0.00  0.00    +0.000 A 
ATOM     19  C   UNL     1       6.552   4.461  16.178  0.00  0.00    +0.000 A 
ATOM     20  C   UNL     1       5.280   3.942  15.944  0.00  0.00    +0.000 A 
ATOM     21  C   UNL     1       4.346   3.883  16.983  0.00  0.00    +0.000 A 
ATOM     22 CL   UNL     1       2.772   3.265  16.624  0.00  0.00    +0.000 Cl
ENDBRANCH   6  16
BRANCH   1  23
ATOM     23  C   UNL     1       1.572  10.603  18.267  0.00  0.00    +0.000 C 
ATOM     24  O   UNL     1       2.356  11.521  18.084  0.00  0.00    +0.000 OA
BRANCH  23  25
ATOM     25  O   UNL     1       0.216  10.726  18.280  0.00  0.00    +0.000 OA
BRANCH  25  27
ATOM     26  C   UNL     1      -1.729  11.869  19.043  0.00  0.00    +0.000 C 
ATOM     27  C   UNL     1      -0.264  12.019  18.671  0.00  0.00    +0.000 C 
ENDBRANCH  25  27
ENDBRANCH  23  25
ENDBRANCH   1  23
BRANCH   7  28
ATOM     28  C   UNL     1       4.465   2.072  20.012  0.00  0.00    +0.000 C 
ATOM     29  N   UNL     1       5.146   1.140  19.896  0.00  0.00    +0.000 NA
ENDBRANCH   7  28
BRANCH  14  30
ATOM     30  O   UNL     1       0.425   9.208  20.507  0.00  0.00    +0.000 OA
ATOM     31  H   UNL     1      -0.331   9.473  19.941  0.00  0.00    +0.000 HD
ENDBRANCH  14  30
TORSDOF 6
ENDMDL
MODEL 3
REMARK VINA RESULT:      -7.3      0.758      1.137
REMARK  Name = 
REMARK  7 active torsions:
REMARK  status: ('A' for Active; 'I' for Inactive)
REMARK    1  A    between atoms: C_1  and  C_2
REMARK    2  A    between atoms: C_2  and  O_3
REMARK    3  A    between atoms: O_3  and  C_4
REMARK    4  A    between atoms: C_4  and  C_6
REMARK    5  A    between atoms: C_11  and  C_12
REMARK    6  A    between atoms: C_19  and  C_20
REMARK    7  A    between atoms: C_28  and  O_29
REMARK                            x       y       z     vdW  Elec       q    Type
REMARK                         _______ _______ _______ _____ _____    ______ ____
ROOT
ATOM      1  C   UNL     1       1.837   9.435  18.600  0.00  0.00    +0.000 A 
ATOM      2  N   UNL     1       2.673   8.753  17.723  0.00  0.00    +0.000 NA
ATOM      3  N   UNL     1       3.028   7.556  17.929  0.00  0.00    +0.000 NA
ATOM      4  C   UNL     1       2.584   6.890  19.033  0.00  0.00    +0.000 A 
ATOM      5  C   UNL     1       2.806   5.648  19.578  0.00  0.00    +0.000 A 
ATOM      6  C   UNL     1       3.633   4.541  19.206  0.00  0.00    +0.000 A 
ATOM      7  C   UNL     1       3.621   3.434  20.004  0.00  0.00    +0.000 A 
ATOM      8  C   UNL     1       2.744   3.390  21.231  0.00  0.00    +0.000 A 
ATOM      9  O   UNL     1       2.698   2.396  21.952  0.00  0.00    +0.000 OA
ATOM     10  N   UNL     1       1.986   4.498  21.531  0.00  0.00    +0.000 N 
ATOM     11  C   UNL     1       2.015   5.602  20.733  0.00  0.00    +0.000 A 
ATOM     12  N   UNL     1       1.328   6.716  20.946  0.00  0.00    +0.000 NA
ATOM     13  N   UNL     1       1.711   7.521  19.910  0.00  0.00    +0.000 N 
ATOM     14  C   UNL     1       1.320   8.836  19.691  0.00  0.00    +0.000 A 
ATOM     15  H   UNL     1       1.401   4.500  22.355  0.00  0.00    +0.000 HD
ENDROOT
BRANCH   6  16
ATOM     16  C   UNL     1       4.535   4.568  18.025  0.00  0.00    +0.000 A 
ATOM     17  C   UNL     1       4.039   4.143  16.781  0.00  0.00    +0.000 A 
ATOM     18  C   UNL     1       4.871   4.118  15.660  0.00  0.00    +0.000 A 
ATOM     19  C   UNL     1       6.199   4.526  15.763  0.00  0.00    +0.000 A 
ATOM     20  C   UNL     1       6.703   4.958  16.989  0.00  0.00    +0.000 A 
ATOM     21  C   UNL     1       5.879   4.975  18.117  0.00  0.00    +0.000 A 
ATOM     22 CL   UNL     1       6.569   5.485  19.618  0.00  0.00    +0.000 Cl
ENDBRANCH   6  16
BRANCH   1  23
ATOM     23  C   UNL     1       1.452  10.844  18.295  0.00  0.00    +0.000 C 
ATOM     24  O   UNL     1       0.309  11.273  18.233  0.00  0.00    +0.000 OA
BRANCH  23  25
ATOM     25  O   UNL     1       2.571  11.561  18.001  0.00  0.00    +0.000 OA
BRANCH  25  27
ATOM     26  C   UNL     1       2.658  13.426  19.480  0.00  0.00    +0.000 C 
ATOM     27  C   UNL     1       2.399  12.985  18.050  0.00  0.00    +0.000 C 
ENDBRANCH  25  27
ENDBRANCH  23  25
ENDBRANCH   1  23
BRANCH   7  28
ATOM     28  C   UNL     1       4.414   2.282  19.745  0.00  0.00    +0.000 C 
ATOM     29  N   UNL     1       5.027   1.316  19.553  0.00  0.00    +0.000 NA
ENDBRANCH   7  28
BRANCH  14  30
ATOM     30  O   UNL     1       0.438   9.422  20.582  0.00  0.00    +0.000 OA
ATOM     31  H   UNL     1       0.645   9.061  21.470  0.00  0.00    +0.000 HD
ENDBRANCH  14  30
TORSDOF 6
ENDMDL
MODEL 4
REMARK VINA RESULT:      -7.2      1.313      1.811
REMARK  Name = 
REMARK  7 active torsions:
REMARK  status: ('A' for Active; 'I' for Inactive)
REMARK    1  A    between atoms: C_1  and  C_2
REMARK    2  A    between atoms: C_2  and  O_3
REMARK    3  A    between atoms: O_3  and  C_4
REMARK    4  A    between atoms: C_4  and  C_6
REMARK    5  A    between atoms: C_11  and  C_12
REMARK    6  A    between atoms: C_19  and  C_20
REMARK    7  A    between atoms: C_28  and  O_29
REMARK                            x       y       z     vdW  Elec       q    Type
REMARK                         _______ _______ _______ _____ _____    ______ ____
ROOT
ATOM      1  C   UNL     1       1.683   9.566  18.821  0.00  0.00    +0.000 A 
ATOM      2  N   UNL     1       2.560   8.926  17.952  0.00  0.00    +0.000 NA
ATOM      3  N   UNL     1       2.934   7.731  18.138  0.00  0.00    +0.000 NA
ATOM      4  C   UNL     1       2.472   7.027  19.210  0.00  0.00    +0.000 A 
ATOM      5  C   UNL     1       2.705   5.776  19.729  0.00  0.00    +0.000 A 
ATOM      6  C   UNL     1       3.566   4.696  19.352  0.00  0.00    +0.000 A 
ATOM      7  C   UNL     1       3.554   3.568  20.120  0.00  0.00    +0.000 A 
ATOM      8  C   UNL     1       2.642   3.473  21.319  0.00  0.00    +0.000 A 
ATOM      9  O   UNL     1       2.596   2.459  22.011  0.00  0.00    +0.000 OA
ATOM     10  N   UNL     1       1.852   4.557  21.625  0.00  0.00    +0.000 N 
ATOM     11  C   UNL     1       1.880   5.682  20.857  0.00  0.00    +0.000 A 
ATOM     12  N   UNL     1       1.164   6.776  21.079  0.00  0.00    +0.000 NA
ATOM     13  N   UNL     1       1.560   7.616  20.076  0.00  0.00    +0.000 N 
ATOM     14  C   UNL     1       1.148   8.928  19.880  0.00  0.00    +0.000 A 
ATOM     15  H   UNL     1       1.243   4.524  22.430  0.00  0.00    +0.000 HD
ENDROOT
BRANCH   6  16
ATOM     16  C   UNL     1       4.502   4.774  18.200  0.00  0.00    +0.000 A 
ATOM     17  C   UNL     1       5.705   5.484  18.348  0.00  0.00    +0.000 A 
ATOM     18  C   UNL     1       6.587   5.611  17.274  0.00  0.00    +0.000 A 
ATOM     19  C   UNL     1       6.286   5.024  16.046  0.00  0.00    +0.000 A 
ATOM     20  C   UNL     1       5.100   4.311  15.887  0.00  0.00    +0.000 A 
ATOM     21  C   UNL     1       4.207   4.189  16.955  0.00  0.00    +0.000 A 
ATOM     22 CL   UNL     1       2.733   3.325  16.687  0.00  0.00    +0.000 Cl
ENDBRANCH   6  16
BRANCH   1  23
ATOM     23  C   UNL     1       1.277  10.975  18.542  0.00  0.00    +0.000 C 
ATOM     24  O   UNL     1       0.136  11.409  18.585  0.00  0.00    +0.000 OA
BRANCH  23  25
ATOM     25  O   UNL     1       2.366  11.684  18.138  0.00  0.00    +0.000 OA
BRANCH  25  27
ATOM     26  C   UNL     1       2.968  13.759  19.142  0.00  0.00    +0.000 C 
ATOM     27  C   UNL     1       2.157  13.100  18.040  0.00  0.00    +0.000 C 
ENDBRANCH  25  27
ENDBRANCH  23  25
ENDBRANCH   1  23
BRANCH   7  28
ATOM     28  C   UNL     1       4.379   2.440  19.856  0.00  0.00    +0.000 C 
ATOM     29  N   UNL     1       5.028   1.496  19.672  0.00  0.00    +0.000 NA
ENDBRANCH   7  28
BRANCH  14  30
ATOM     30  O   UNL     1       0.227   9.471  20.759  0.00  0.00    +0.000 OA
ATOM     31  H   UNL     1      -0.638   9.483  20.298  0.00  0.00    +0.000 HD
ENDBRANCH  14  30
TORSDOF 6
ENDMDL
MODEL 5
REMARK VINA RESULT:      -6.9      8.615     10.894
REMARK  Name = 
REMARK  7 active torsions:
REMARK  status: ('A' for Active; 'I' for Inactive)
REMARK    1  A    between atoms: C_1  and  C_2
REMARK    2  A    between atoms: C_2  and  O_3
REMARK    3  A    between atoms: O_3  and  C_4
REMARK    4  A    between atoms: C_4  and  C_6
REMARK    5  A    between atoms: C_11  and  C_12
REMARK    6  A    between atoms: C_19  and  C_20
REMARK    7  A    between atoms: C_28  and  O_29
REMARK                            x       y       z     vdW  Elec       q    Type
REMARK                         _______ _______ _______ _____ _____    ______ ____
ROOT
ATOM      1  C   UNL     1       6.682  12.194  23.563  0.00  0.00    +0.000 A 
ATOM      2  N   UNL     1       7.822  11.786  22.879  0.00  0.00    +0.000 NA
ATOM      3  N   UNL     1       8.328  12.479  21.948  0.00  0.00    +0.000 NA
ATOM      4  C   UNL     1       7.763  13.667  21.592  0.00  0.00    +0.000 A 
ATOM      5  C   UNL     1       8.007  14.613  20.626  0.00  0.00    +0.000 A 
ATOM      6  C   UNL     1       8.964  14.716  19.566  0.00  0.00    +0.000 A 
ATOM      7  C   UNL     1       8.914  15.818  18.762  0.00  0.00    +0.000 A 
ATOM      8  C   UNL     1       7.884  16.893  19.007  0.00  0.00    +0.000 A 
ATOM      9  O   UNL     1       7.835  17.905  18.311  0.00  0.00    +0.000 OA
ATOM     10  N   UNL     1       6.990  16.717  20.038  0.00  0.00    +0.000 N 
ATOM     11  C   UNL     1       7.042  15.608  20.828  0.00  0.00    +0.000 A 
ATOM     12  N   UNL     1       6.220  15.349  21.835  0.00  0.00    +0.000 NA
ATOM     13  N   UNL     1       6.649  14.131  22.282  0.00  0.00    +0.000 N 
ATOM     14  C   UNL     1       6.087  13.374  23.302  0.00  0.00    +0.000 A 
ATOM     15  H   UNL     1       6.282  17.416  20.214  0.00  0.00    +0.000 HD
ENDROOT
BRANCH   6  16
ATOM     16  C   UNL     1       9.965  13.657  19.277  0.00  0.00    +0.000 A 
ATOM     17  C   UNL     1      11.196  13.683  19.954  0.00  0.00    +0.000 A 
ATOM     18  C   UNL     1      12.175  12.727  19.676  0.00  0.00    +0.000 A 
ATOM     19  C   UNL     1      11.934  11.730  18.732  0.00  0.00    +0.000 A 
ATOM     20  C   UNL     1      10.715  11.688  18.059  0.00  0.00    +0.000 A 
ATOM     21  C   UNL     1       9.735  12.648  18.324  0.00  0.00    +0.000 A 
ATOM     22 CL   UNL     1       8.257  12.567  17.431  0.00  0.00    +0.000 Cl
ENDBRANCH   6  16
BRANCH   1  23
ATOM     23  C   UNL     1       6.138  11.333  24.654  0.00  0.00    +0.000 C 
ATOM     24  O   UNL     1       5.003  10.885  24.709  0.00  0.00    +0.000 OA
BRANCH  23  25
ATOM     25  O   UNL     1       7.076  11.202  25.632  0.00  0.00    +0.000 OA
BRANCH  25  27
ATOM     26  C   UNL     1       6.762  11.812  27.912  0.00  0.00    +0.000 C 
ATOM     27  C   UNL     1       7.159  12.313  26.535  0.00  0.00    +0.000 C 
ENDBRANCH  25  27
ENDBRANCH  23  25
ENDBRANCH   1  23
BRANCH   7  28
ATOM     28  C   UNL     1       9.799  16.021  17.668  0.00  0.00    +0.000 C 
ATOM     29  N   UNL     1      10.557  16.175  16.803  0.00  0.00    +0.000 NA
ENDBRANCH   7  28
BRANCH  14  30
ATOM     30  O   UNL     1       4.986  13.880  23.972  0.00  0.00    +0.000 OA
ATOM     31  H   UNL     1       5.316  14.281  24.803  0.00  0.00    +0.000 HD
ENDBRANCH  14  30
TORSDOF 6
ENDMDL
MODEL 6
REMARK VINA RESULT:      -6.6      2.504      4.241
REMARK  Name = 
REMARK  7 active torsions:
REMARK  status: ('A' for Active; 'I' for Inactive)
REMARK    1  A    between atoms: C_1  and  C_2
REMARK    2  A    between atoms: C_2  and  O_3
REMARK    3  A    between atoms: O_3  and  C_4
REMARK    4  A    between atoms: C_4  and  C_6
REMARK    5  A    between atoms: C_11  and  C_12
REMARK    6  A    between atoms: C_19  and  C_20
REMARK    7  A    between atoms: C_28  and  O_29
REMARK                            x       y       z     vdW  Elec       q    Type
REMARK                         _______ _______ _______ _____ _____    ______ ____
ROOT
ATOM      1  C   UNL     1       1.037   9.867  19.532  0.00  0.00    +0.000 A 
ATOM      2  N   UNL     1       0.855   8.679  20.231  0.00  0.00    +0.000 NA
ATOM      3  N   UNL     1       1.463   7.615  19.914  0.00  0.00    +0.000 NA
ATOM      4  C   UNL     1       2.332   7.609  18.863  0.00  0.00    +0.000 A 
ATOM      5  C   UNL     1       3.092   6.655  18.231  0.00  0.00    +0.000 A 
ATOM      6  C   UNL     1       3.256   5.245  18.414  0.00  0.00    +0.000 A 
ATOM      7  C   UNL     1       4.106   4.584  17.575  0.00  0.00    +0.000 A 
ATOM      8  C   UNL     1       4.854   5.336  16.502  0.00  0.00    +0.000 A 
ATOM      9  O   UNL     1       5.644   4.767  15.751  0.00  0.00    +0.000 OA
ATOM     10  N   UNL     1       4.635   6.689  16.380  0.00  0.00    +0.000 N 
ATOM     11  C   UNL     1       3.775   7.336  17.216  0.00  0.00    +0.000 A 
ATOM     12  N   UNL     1       3.494   8.631  17.168  0.00  0.00    +0.000 NA
ATOM     13  N   UNL     1       2.576   8.787  18.168  0.00  0.00    +0.000 N 
ATOM     14  C   UNL     1       1.910   9.958  18.509  0.00  0.00    +0.000 A 
ATOM     15  H   UNL     1       5.113   7.213  15.661  0.00  0.00    +0.000 HD
ENDROOT
BRANCH   6  16
ATOM     16  C   UNL     1       2.506   4.471  19.436  0.00  0.00    +0.000 A 
ATOM     17  C   UNL     1       3.009   4.407  20.746  0.00  0.00    +0.000 A 
ATOM     18  C   UNL     1       2.351   3.656  21.721  0.00  0.00    +0.000 A 
ATOM     19  C   UNL     1       1.179   2.970  21.405  0.00  0.00    +0.000 A 
ATOM     20  C   UNL     1       0.663   3.030  20.112  0.00  0.00    +0.000 A 
ATOM     21  C   UNL     1       1.324   3.772  19.129  0.00  0.00    +0.000 A 
ATOM     22 CL   UNL     1       0.657   3.778  17.533  0.00  0.00    +0.000 Cl
ENDBRANCH   6  16
BRANCH   1  23
ATOM     23  C   UNL     1       0.294  11.088  19.961  0.00  0.00    +0.000 C 
ATOM     24  O   UNL     1       0.581  12.238  19.665  0.00  0.00    +0.000 OA
BRANCH  23  25
ATOM     25  O   UNL     1      -0.703  10.730  20.817  0.00  0.00    +0.000 OA
BRANCH  25  27
ATOM     26  C   UNL     1      -0.805  10.209  23.138  0.00  0.00    +0.000 C 
ATOM     27  C   UNL     1      -0.614  11.320  22.121  0.00  0.00    +0.000 C 
ENDBRANCH  25  27
ENDBRANCH  23  25
ENDBRANCH   1  23
BRANCH   7  28
ATOM     28  C   UNL     1       4.335   3.182  17.649  0.00  0.00    +0.000 C 
ATOM     29  N   UNL     1       4.484   2.032  17.684  0.00  0.00    +0.000 NA
ENDBRANCH   7  28
BRANCH  14  30
ATOM     30  O   UNL     1       2.192  11.112  17.799  0.00  0.00    +0.000 OA
ATOM     31  H   UNL     1       2.696  11.701  18.398  0.00  0.00    +0.000 HD
ENDBRANCH  14  30
TORSDOF 6
ENDMDL
MODEL 7
REMARK VINA RESULT:      -6.6      2.361      4.126
REMARK  Name = 
REMARK  7 active torsions:
REMARK  status: ('A' for Active; 'I' for Inactive)
REMARK    1  A    between atoms: C_1  and  C_2
REMARK    2  A    between atoms: C_2  and  O_3
REMARK    3  A    between atoms: O_3  and  C_4
REMARK    4  A    between atoms: C_4  and  C_6
REMARK    5  A    between atoms: C_11  and  C_12
REMARK    6  A    between atoms: C_19  and  C_20
REMARK    7  A    between atoms: C_28  and  O_29
REMARK                            x       y       z     vdW  Elec       q    Type
REMARK                         _______ _______ _______ _____ _____    ______ ____
ROOT
ATOM      1  C   UNL     1       1.051   9.845  19.476  0.00  0.00    +0.000 A 
ATOM      2  N   UNL     1       0.872   8.665  20.189  0.00  0.00    +0.000 NA
ATOM      3  N   UNL     1       1.478   7.597  19.882  0.00  0.00    +0.000 NA
ATOM      4  C   UNL     1       2.344   7.579  18.829  0.00  0.00    +0.000 A 
ATOM      5  C   UNL     1       3.101   6.617  18.205  0.00  0.00    +0.000 A 
ATOM      6  C   UNL     1       3.266   5.209  18.402  0.00  0.00    +0.000 A 
ATOM      7  C   UNL     1       4.113   4.539  17.569  0.00  0.00    +0.000 A 
ATOM      8  C   UNL     1       4.858   5.279  16.485  0.00  0.00    +0.000 A 
ATOM      9  O   UNL     1       5.644   4.701  15.737  0.00  0.00    +0.000 OA
ATOM     10  N   UNL     1       4.638   6.630  16.348  0.00  0.00    +0.000 N 
ATOM     11  C   UNL     1       3.781   7.287  17.179  0.00  0.00    +0.000 A 
ATOM     12  N   UNL     1       3.500   8.581  17.118  0.00  0.00    +0.000 NA
ATOM     13  N   UNL     1       2.585   8.749  18.119  0.00  0.00    +0.000 N 
ATOM     14  C   UNL     1       1.921   9.923  18.449  0.00  0.00    +0.000 A 
ATOM     15  H   UNL     1       5.113   7.146  15.621  0.00  0.00    +0.000 HD
ENDROOT
BRANCH   6  16
ATOM     16  C   UNL     1       2.519   4.447  19.437  0.00  0.00    +0.000 A 
ATOM     17  C   UNL     1       3.038   4.382  20.740  0.00  0.00    +0.000 A 
ATOM     18  C   UNL     1       2.383   3.640  21.726  0.00  0.00    +0.000 A 
ATOM     19  C   UNL     1       1.199   2.968  21.426  0.00  0.00    +0.000 A 
ATOM     20  C   UNL     1       0.669   3.030  20.139  0.00  0.00    +0.000 A 
ATOM     21  C   UNL     1       1.325   3.761  19.146  0.00  0.00    +0.000 A 
ATOM     22 CL   UNL     1       0.639   3.771  17.558  0.00  0.00    +0.000 Cl
ENDBRANCH   6  16
BRANCH   1  23
ATOM     23  C   UNL     1       0.310  11.071  19.894  0.00  0.00    +0.000 C 
ATOM     24  O   UNL     1       0.811  12.080  20.366  0.00  0.00    +0.000 OA
BRANCH  23  25
ATOM     25  O   UNL     1      -1.027  10.855  19.757  0.00  0.00    +0.000 OA
BRANCH  25  27
ATOM     26  C   UNL     1      -2.299  10.131  17.878  0.00  0.00    +0.000 C 
ATOM     27  C   UNL     1      -1.582  11.309  18.515  0.00  0.00    +0.000 C 
ENDBRANCH  25  27
ENDBRANCH  23  25
ENDBRANCH   1  23
BRANCH   7  28
ATOM     28  C   UNL     1       4.342   3.138  17.658  0.00  0.00    +0.000 C 
ATOM     29  N   UNL     1       4.486   1.990  17.746  0.00  0.00    +0.000 NA
ENDBRANCH   7  28
BRANCH  14  30
ATOM     30  O   UNL     1       2.200  11.069  17.725  0.00  0.00    +0.000 OA
ATOM     31  H   UNL     1       1.465  11.192  17.088  0.00  0.00    +0.000 HD
ENDBRANCH  14  30
TORSDOF 6
ENDMDL
MODEL 8
REMARK VINA RESULT:      -6.5      2.558      4.347
REMARK  Name = 
REMARK  7 active torsions:
REMARK  status: ('A' for Active; 'I' for Inactive)
REMARK    1  A    between atoms: C_1  and  C_2
REMARK    2  A    between atoms: C_2  and  O_3
REMARK    3  A    between atoms: O_3  and  C_4
REMARK    4  A    between atoms: C_4  and  C_6
REMARK    5  A    between atoms: C_11  and  C_12
REMARK    6  A    between atoms: C_19  and  C_20
REMARK    7  A    between atoms: C_28  and  O_29
REMARK                            x       y       z     vdW  Elec       q    Type
REMARK                         _______ _______ _______ _____ _____    ______ ____
ROOT
ATOM      1  C   UNL     1       0.218   9.772  20.675  0.00  0.00    +0.000 A 
ATOM      2  N   UNL     1       0.223   8.472  21.170  0.00  0.00    +0.000 NA
ATOM      3  N   UNL     1       0.940   7.563  20.658  0.00  0.00    +0.000 NA
ATOM      4  C   UNL     1       1.747   7.843  19.595  0.00  0.00    +0.000 A 
ATOM      5  C   UNL     1       2.584   7.113  18.787  0.00  0.00    +0.000 A 
ATOM      6  C   UNL     1       2.932   5.726  18.724  0.00  0.00    +0.000 A 
ATOM      7  C   UNL     1       3.812   5.328  17.760  0.00  0.00    +0.000 A 
ATOM      8  C   UNL     1       4.402   6.337  16.805  0.00  0.00    +0.000 A 
ATOM      9  O   UNL     1       5.215   6.006  15.944  0.00  0.00    +0.000 OA
ATOM     10  N   UNL     1       4.010   7.650  16.920  0.00  0.00    +0.000 N 
ATOM     11  C   UNL     1       3.122   8.034  17.880  0.00  0.00    +0.000 A 
ATOM     12  N   UNL     1       2.680   9.271  18.060  0.00  0.00    +0.000 NA
ATOM     13  N   UNL     1       1.804   9.140  19.100  0.00  0.00    +0.000 N 
ATOM     14  C   UNL     1       1.017  10.142  19.655  0.00  0.00    +0.000 A 
ATOM     15  H   UNL     1       4.380   8.343  16.284  0.00  0.00    +0.000 HD
ENDROOT
BRANCH   6  16
ATOM     16  C   UNL     1       2.339   4.703  19.625  0.00  0.00    +0.000 A 
ATOM     17  C   UNL     1       2.818   4.598  20.941  0.00  0.00    +0.000 A 
ATOM     18  C   UNL     1       2.312   3.621  21.801  0.00  0.00    +0.000 A 
ATOM     19  C   UNL     1       1.316   2.749  21.364  0.00  0.00    +0.000 A 
ATOM     20  C   UNL     1       0.826   2.848  20.063  0.00  0.00    +0.000 A 
ATOM     21  C   UNL     1       1.336   3.815  19.194  0.00  0.00    +0.000 A 
ATOM     22 CL   UNL     1       0.716   3.865  17.580  0.00  0.00    +0.000 Cl
ENDBRANCH   6  16
BRANCH   1  23
ATOM     23  C   UNL     1      -0.647  10.798  21.328  0.00  0.00    +0.000 C 
ATOM     24  O   UNL     1      -0.679  11.047  22.523  0.00  0.00    +0.000 OA
BRANCH  23  25
ATOM     25  O   UNL     1      -1.469  11.351  20.394  0.00  0.00    +0.000 OA
BRANCH  25  27
ATOM     26  C   UNL     1      -1.341  13.727  20.278  0.00  0.00    +0.000 C 
ATOM     27  C   UNL     1      -2.135  12.549  20.816  0.00  0.00    +0.000 C 
ENDBRANCH  25  27
ENDBRANCH  23  25
ENDBRANCH   1  23
BRANCH   7  28
ATOM     28  C   UNL     1       4.217   3.975  17.589  0.00  0.00    +0.000 C 
ATOM     29  N   UNL     1       4.524   2.871  17.409  0.00  0.00    +0.000 NA
ENDBRANCH   7  28
BRANCH  14  30
ATOM     30  O   UNL     1       1.115  11.422  19.140  0.00  0.00    +0.000 OA
ATOM     31  H   UNL     1       1.352  12.013  19.885  0.00  0.00    +0.000 HD
ENDBRANCH  14  30
TORSDOF 6
ENDMDL
MODEL 9
REMARK VINA RESULT:      -6.3      2.505      4.289
REMARK  Name = 
REMARK  7 active torsions:
REMARK  status: ('A' for Active; 'I' for Inactive)
REMARK    1  A    between atoms: C_1  and  C_2
REMARK    2  A    between atoms: C_2  and  O_3
REMARK    3  A    between atoms: O_3  and  C_4
REMARK    4  A    between atoms: C_4  and  C_6
REMARK    5  A    between atoms: C_11  and  C_12
REMARK    6  A    between atoms: C_19  and  C_20
REMARK    7  A    between atoms: C_28  and  O_29
REMARK                            x       y       z     vdW  Elec       q    Type
REMARK                         _______ _______ _______ _____ _____    ______ ____
ROOT
ATOM      1  C   UNL     1       0.793   9.884  19.978  0.00  0.00    +0.000 A 
ATOM      2  N   UNL     1       0.678   8.647  20.602  0.00  0.00    +0.000 NA
ATOM      3  N   UNL     1       1.314   7.631  20.198  0.00  0.00    +0.000 NA
ATOM      4  C   UNL     1       2.150   7.727  19.125  0.00  0.00    +0.000 A 
ATOM      5  C   UNL     1       2.924   6.846  18.409  0.00  0.00    +0.000 A 
ATOM      6  C   UNL     1       3.147   5.435  18.494  0.00  0.00    +0.000 A 
ATOM      7  C   UNL     1       3.994   4.863  17.590  0.00  0.00    +0.000 A 
ATOM      8  C   UNL     1       4.679   5.712  16.547  0.00  0.00    +0.000 A 
ATOM      9  O   UNL     1       5.465   5.224  15.737  0.00  0.00    +0.000 OA
ATOM     10  N   UNL     1       4.406   7.060  16.520  0.00  0.00    +0.000 N 
ATOM     11  C   UNL     1       3.549   7.618  17.422  0.00  0.00    +0.000 A 
ATOM     12  N   UNL     1       3.219   8.901  17.467  0.00  0.00    +0.000 NA
ATOM     13  N   UNL     1       2.327   8.956  18.501  0.00  0.00    +0.000 N 
ATOM     14  C   UNL     1       1.629  10.075  18.938  0.00  0.00    +0.000 A 
ATOM     15  H   UNL     1       4.840   7.648  15.823  0.00  0.00    +0.000 HD
ENDROOT
BRANCH   6  16
ATOM     16  C   UNL     1       2.459   4.567  19.485  0.00  0.00    +0.000 A 
ATOM     17  C   UNL     1       2.963   4.499  20.794  0.00  0.00    +0.000 A 
ATOM     18  C   UNL     1       2.364   3.663  21.740  0.00  0.00    +0.000 A 
ATOM     19  C   UNL     1       1.253   2.896  21.394  0.00  0.00    +0.000 A 
ATOM     20  C   UNL     1       0.737   2.960  20.101  0.00  0.00    +0.000 A 
ATOM     21  C   UNL     1       1.338   3.786  19.147  0.00  0.00    +0.000 A 
ATOM     22 CL   UNL     1       0.677   3.795  17.549  0.00  0.00    +0.000 Cl
ENDBRANCH   6  16
BRANCH   1  23
ATOM     23  C   UNL     1       0.019  11.045  20.508  0.00  0.00    +0.000 C 
ATOM     24  O   UNL     1      -1.160  11.276  20.286  0.00  0.00    +0.000 OA
BRANCH  23  25
ATOM     25  O   UNL     1       0.856  11.863  21.203  0.00  0.00    +0.000 OA
BRANCH  25  27
ATOM     26  C   UNL     1       1.665  14.103  21.190  0.00  0.00    +0.000 C 
ATOM     27  C   UNL     1       0.427  13.229  21.286  0.00  0.00    +0.000 C 
ENDBRANCH  25  27
ENDBRANCH  23  25
ENDBRANCH   1  23
BRANCH   7  28
ATOM     28  C   UNL     1       4.278   3.470  17.565  0.00  0.00    +0.000 C 
ATOM     29  N   UNL     1       4.496   2.330  17.589  0.00  0.00    +0.000 NA
ENDBRANCH   7  28
BRANCH  14  30
ATOM     30  O   UNL     1       1.845  11.282  18.297  0.00  0.00    +0.000 OA
ATOM     31  H   UNL     1       1.361  11.245  17.445  0.00  0.00    +0.000 HD
ENDBRANCH  14  30
TORSDOF 6
ENDMDL
