MODEL 1
REMARK VINA RESULT:      -7.5      0.000      0.000
REMARK  Name = 
REMARK  11 active torsions:
REMARK  status: ('A' for Active; 'I' for Inactive)
REMARK    1  A    between atoms: C_1  and  O_2
REMARK    2  A    between atoms: O_2  and  C_3
REMARK    3  A    between atoms: C_7  and  N_8
REMARK    4  A    between atoms: N_11  and  C_12
REMARK    5  A    between atoms: C_12  and  C_13
REMARK    6  A    between atoms: C_13  and  C_14
REMARK    7  A    between atoms: C_14  and  C_15
REMARK    8  A    between atoms: C_15  and  C_16
REMARK    9  A    between atoms: C_16  and  C_17
REMARK   10  A    between atoms: C_17  and  N_18
REMARK   11  A    between atoms: N_21  and  C_22
REMARK                            x       y       z     vdW  Elec       q    Type
REMARK                         _______ _______ _______ _____ _____    ______ ____
ROOT
ATOM      1  C   UNL     1       0.767   4.753  20.508  0.00  0.00    +0.000 C 
ENDROOT
BRANCH   1   2
ATOM      2  C   UNL     1       0.951   3.669  19.442  0.00  0.00    +0.000 C 
BRANCH   2   3
ATOM      3  C   UNL     1       1.669   2.434  19.998  0.00  0.00    +0.000 C 
BRANCH   3   7
ATOM      4  N   UNL     1       4.189   4.054  18.061  0.00  0.00    +0.000 N 
ATOM      5  C   UNL     1       2.836   3.809  17.527  0.00  0.00    +0.000 C 
ATOM      6  C   UNL     1       2.388   2.335  17.691  0.00  0.00    +0.000 C 
ATOM      7  N   UNL     1       2.583   1.771  19.052  0.00  0.00    +0.000 NA
ATOM      8  C   UNL     1       4.013   1.953  19.394  0.00  0.00    +0.000 C 
ATOM      9  C   UNL     1       4.501   3.418  19.358  0.00  0.00    +0.000 C 
BRANCH   4  14
ATOM     10  C   UNL     1       6.251   4.586  15.001  0.00  0.00    +0.000 A 
ATOM     11  C   UNL     1       7.495   4.833  15.580  0.00  0.00    +0.000 A 
ATOM     12  C   UNL     1       7.638   4.820  16.962  0.00  0.00    +0.000 A 
ATOM     13  C   UNL     1       6.533   4.558  17.768  0.00  0.00    +0.000 A 
ATOM     14  C   UNL     1       5.266   4.302  17.218  0.00  0.00    +0.000 A 
ATOM     15  C   UNL     1       5.149   4.326  15.822  0.00  0.00    +0.000 A 
BRANCH  10  17
ATOM     16  C   UNL     1       5.777   3.447  12.972  0.00  0.00    +0.000 C 
ATOM     17  O   UNL     1       6.237   4.620  13.633  0.00  0.00    +0.000 OA
ENDBRANCH  10  17
ENDBRANCH   4  14
ENDBRANCH   3   7
ENDBRANCH   2   3
ENDBRANCH   1   2
BRANCH   1  18
ATOM     18  C   UNL     1       2.011   5.616  20.711  0.00  0.00    +0.000 C 
BRANCH  18  19
ATOM     19  C   UNL     1       1.804   7.011  20.124  0.00  0.00    +0.000 C 
BRANCH  19  20
ATOM     20  C   UNL     1       0.864   7.873  20.975  0.00  0.00    +0.000 C 
BRANCH  20  21
ATOM     21  N   UNL     1       1.443   9.140  21.444  0.00  0.00    +0.000 NA
ATOM     22  C   UNL     1       0.969  10.321  20.685  0.00  0.00    +0.000 C 
ATOM     23  C   UNL     1      -0.524  10.666  20.884  0.00  0.00    +0.000 C 
ATOM     24  N   UNL     1      -0.817  10.821  22.318  0.00  0.00    +0.000 N 
ATOM     25  C   UNL     1      -0.356   9.712  23.171  0.00  0.00    +0.000 C 
ATOM     26  C   UNL     1       1.124   9.366  22.877  0.00  0.00    +0.000 C 
BRANCH  24  27
ATOM     27  C   UNL     1      -1.458  11.941  22.810  0.00  0.00    +0.000 A 
ATOM     28  C   UNL     1      -2.731  11.868  23.397  0.00  0.00    +0.000 A 
ATOM     29  C   UNL     1      -3.375  12.994  23.923  0.00  0.00    +0.000 A 
ATOM     30  C   UNL     1      -2.753  14.236  23.876  0.00  0.00    +0.000 A 
ATOM     31  C   UNL     1      -1.495  14.338  23.300  0.00  0.00    +0.000 A 
ATOM     32 CL   UNL     1      -0.707  15.868  23.239  0.00  0.00    +0.000 Cl
ATOM     33  C   UNL     1      -0.861  13.211  22.770  0.00  0.00    +0.000 A 
ENDBRANCH  24  27
ENDBRANCH  20  21
ENDBRANCH  19  20
ENDBRANCH  18  19
ENDBRANCH   1  18
TORSDOF 10
ENDMDL
MODEL 2
REMARK VINA RESULT:      -7.5      3.842     11.275
REMARK  Name = 
REMARK  11 active torsions:
REMARK  status: ('A' for Active; 'I' for Inactive)
REMARK    1  A    between atoms: C_1  and  O_2
REMARK    2  A    between atoms: O_2  and  C_3
REMARK    3  A    between atoms: C_7  and  N_8
REMARK    4  A    between atoms: N_11  and  C_12
REMARK    5  A    between atoms: C_12  and  C_13
REMARK    6  A    between atoms: C_13  and  C_14
REMARK    7  A    between atoms: C_14  and  C_15
REMARK    8  A    between atoms: C_15  and  C_16
REMARK    9  A    between atoms: C_16  and  C_17
REMARK   10  A    between atoms: C_17  and  N_18
REMARK   11  A    between atoms: N_21  and  C_22
REMARK                            x       y       z     vdW  Elec       q    Type
REMARK                         _______ _______ _______ _____ _____    ______ ____
ROOT
ATOM      1  C   UNL     1       1.058   6.215  20.921  0.00  0.00    +0.000 C 
ENDROOT
BRANCH   1   2
ATOM      2  C   UNL     1       1.871   7.396  20.382  0.00  0.00    +0.000 C 
BRANCH   2   3
ATOM      3  C   UNL     1       1.412   8.729  20.984  0.00  0.00    +0.000 C 
BRANCH   3   7
ATOM      4  N   UNL     1      -0.365  11.400  22.547  0.00  0.00    +0.000 N 
ATOM      5  C   UNL     1      -0.323  10.047  23.133  0.00  0.00    +0.000 C 
ATOM      6  C   UNL     1      -0.715   8.944  22.117  0.00  0.00    +0.000 C 
ATOM      7  N   UNL     1      -0.020   9.028  20.806  0.00  0.00    +0.000 NA
ATOM      8  C   UNL     1      -0.273  10.385  20.270  0.00  0.00    +0.000 C 
ATOM      9  C   UNL     1       0.196  11.537  21.187  0.00  0.00    +0.000 C 
BRANCH   4  14
ATOM     10  C   UNL     1      -2.188  14.593  23.163  0.00  0.00    +0.000 A 
ATOM     11  C   UNL     1      -3.403  14.099  23.634  0.00  0.00    +0.000 A 
ATOM     12  C   UNL     1      -3.605  12.728  23.743  0.00  0.00    +0.000 A 
ATOM     13  C   UNL     1      -2.587  11.849  23.381  0.00  0.00    +0.000 A 
ATOM     14  C   UNL     1      -1.350  12.313  22.905  0.00  0.00    +0.000 A 
ATOM     15  C   UNL     1      -1.174  13.700  22.801  0.00  0.00    +0.000 A 
BRANCH  10  17
ATOM     16  C   UNL     1      -3.164  16.685  23.721  0.00  0.00    +0.000 C 
ATOM     17  O   UNL     1      -2.106  15.958  23.106  0.00  0.00    +0.000 OA
ENDBRANCH  10  17
ENDBRANCH   4  14
ENDBRANCH   3   7
ENDBRANCH   2   3
ENDBRANCH   1   2
BRANCH   1  18
ATOM     18  C   UNL     1       1.806   4.885  20.846  0.00  0.00    +0.000 C 
BRANCH  18  19
ATOM     19  C   UNL     1       1.013   3.862  20.036  0.00  0.00    +0.000 C 
BRANCH  19  20
ATOM     20  C   UNL     1       1.611   2.453  20.122  0.00  0.00    +0.000 C 
BRANCH  20  21
ATOM     21  N   UNL     1       2.211   1.959  18.875  0.00  0.00    +0.000 NA
ATOM     22  C   UNL     1       2.050   2.891  17.734  0.00  0.00    +0.000 C 
ATOM     23  C   UNL     1       2.839   4.214  17.859  0.00  0.00    +0.000 C 
ATOM     24  N   UNL     1       4.264   3.929  18.096  0.00  0.00    +0.000 N 
ATOM     25  C   UNL     1       4.535   2.983  19.193  0.00  0.00    +0.000 C 
ATOM     26  C   UNL     1       3.664   1.710  19.053  0.00  0.00    +0.000 C 
BRANCH  24  27
ATOM     27  C   UNL     1       5.256   4.499  17.324  0.00  0.00    +0.000 A 
ATOM     28  C   UNL     1       5.601   3.986  16.064  0.00  0.00    +0.000 A 
ATOM     29  C   UNL     1       6.586   4.577  15.264  0.00  0.00    +0.000 A 
ATOM     30  C   UNL     1       7.257   5.710  15.708  0.00  0.00    +0.000 A 
ATOM     31  C   UNL     1       6.936   6.238  16.950  0.00  0.00    +0.000 A 
ATOM     32 CL   UNL     1       7.752   7.646  17.513  0.00  0.00    +0.000 Cl
ATOM     33  C   UNL     1       5.957   5.640  17.748  0.00  0.00    +0.000 A 
ENDBRANCH  24  27
ENDBRANCH  20  21
ENDBRANCH  19  20
ENDBRANCH  18  19
ENDBRANCH   1  18
TORSDOF 10
ENDMDL
MODEL 3
REMARK VINA RESULT:      -7.5      3.121      4.405
REMARK  Name = 
REMARK  11 active torsions:
REMARK  status: ('A' for Active; 'I' for Inactive)
REMARK    1  A    between atoms: C_1  and  O_2
REMARK    2  A    between atoms: O_2  and  C_3
REMARK    3  A    between atoms: C_7  and  N_8
REMARK    4  A    between atoms: N_11  and  C_12
REMARK    5  A    between atoms: C_12  and  C_13
REMARK    6  A    between atoms: C_13  and  C_14
REMARK    7  A    between atoms: C_14  and  C_15
REMARK    8  A    between atoms: C_15  and  C_16
REMARK    9  A    between atoms: C_16  and  C_17
REMARK   10  A    between atoms: C_17  and  N_18
REMARK   11  A    between atoms: N_21  and  C_22
REMARK                            x       y       z     vdW  Elec       q    Type
REMARK                         _______ _______ _______ _____ _____    ______ ____
ROOT
ATOM      1  C   UNL     1       2.389   5.346  19.371  0.00  0.00    +0.000 C 
ENDROOT
BRANCH   1   2
ATOM      2  C   UNL     1       3.673   4.807  20.007  0.00  0.00    +0.000 C 
BRANCH   2   3
ATOM      3  C   UNL     1       4.925   5.290  19.265  0.00  0.00    +0.000 C 
BRANCH   3   7
ATOM      4  N   UNL     1       5.573   5.071  15.763  0.00  0.00    +0.000 N 
ATOM      5  C   UNL     1       4.426   4.383  16.386  0.00  0.00    +0.000 C 
ATOM      6  C   UNL     1       4.837   3.527  17.610  0.00  0.00    +0.000 C 
ATOM      7  N   UNL     1       5.698   4.226  18.600  0.00  0.00    +0.000 NA
ATOM      8  C   UNL     1       6.878   4.734  17.862  0.00  0.00    +0.000 C 
ATOM      9  C   UNL     1       6.545   5.686  16.692  0.00  0.00    +0.000 C 
BRANCH   4  14
ATOM     10  C   UNL     1       5.972   3.325  12.494  0.00  0.00    +0.000 A 
ATOM     11  C   UNL     1       7.109   3.968  12.006  0.00  0.00    +0.000 A 
ATOM     12  C   UNL     1       7.726   4.961  12.756  0.00  0.00    +0.000 A 
ATOM     13  C   UNL     1       7.205   5.312  13.999  0.00  0.00    +0.000 A 
ATOM     14  C   UNL     1       6.063   4.683  14.522  0.00  0.00    +0.000 A 
ATOM     15  C   UNL     1       5.458   3.687  13.743  0.00  0.00    +0.000 A 
BRANCH  10  17
ATOM     16  C   UNL     1       6.385   1.426  11.129  0.00  0.00    +0.000 C 
ATOM     17  O   UNL     1       5.458   2.361  11.669  0.00  0.00    +0.000 OA
ENDBRANCH  10  17
ENDBRANCH   4  14
ENDBRANCH   3   7
ENDBRANCH   2   3
ENDBRANCH   1   2
BRANCH   1  18
ATOM     18  C   UNL     1       1.676   6.382  20.239  0.00  0.00    +0.000 C 
BRANCH  18  19
ATOM     19  C   UNL     1       2.083   7.798  19.837  0.00  0.00    +0.000 C 
BRANCH  19  20
ATOM     20  C   UNL     1       1.390   8.872  20.685  0.00  0.00    +0.000 C 
BRANCH  20  21
ATOM     21  N   UNL     1       1.235  10.176  20.024  0.00  0.00    +0.000 NA
ATOM     22  C   UNL     1       1.222  10.088  18.545  0.00  0.00    +0.000 C 
ATOM     23  C   UNL     1      -0.014   9.381  17.945  0.00  0.00    +0.000 C 
ATOM     24  N   UNL     1      -1.246  10.020  18.436  0.00  0.00    +0.000 N 
ATOM     25  C   UNL     1      -1.321  10.186  19.898  0.00  0.00    +0.000 C 
ATOM     26  C   UNL     1      -0.027  10.833  20.449  0.00  0.00    +0.000 C 
BRANCH  24  27
ATOM     27  C   UNL     1      -2.236  10.445  17.573  0.00  0.00    +0.000 A 
ATOM     28  C   UNL     1      -2.211  10.131  16.204  0.00  0.00    +0.000 A 
ATOM     29  C   UNL     1      -3.226  10.534  15.329  0.00  0.00    +0.000 A 
ATOM     30  C   UNL     1      -4.306  11.268  15.806  0.00  0.00    +0.000 A 
ATOM     31  C   UNL     1      -4.356  11.593  17.154  0.00  0.00    +0.000 A 
ATOM     32 CL   UNL     1      -5.690  12.496  17.764  0.00  0.00    +0.000 Cl
ATOM     33  C   UNL     1      -3.335  11.194  18.022  0.00  0.00    +0.000 A 
ENDBRANCH  24  27
ENDBRANCH  20  21
ENDBRANCH  19  20
ENDBRANCH  18  19
ENDBRANCH   1  18
TORSDOF 10
ENDMDL
MODEL 4
REMARK VINA RESULT:      -7.4      4.340     11.595
REMARK  Name = 
REMARK  11 active torsions:
REMARK  status: ('A' for Active; 'I' for Inactive)
REMARK    1  A    between atoms: C_1  and  O_2
REMARK    2  A    between atoms: O_2  and  C_3
REMARK    3  A    between atoms: C_7  and  N_8
REMARK    4  A    between atoms: N_11  and  C_12
REMARK    5  A    between atoms: C_12  and  C_13
REMARK    6  A    between atoms: C_13  and  C_14
REMARK    7  A    between atoms: C_14  and  C_15
REMARK    8  A    between atoms: C_15  and  C_16
REMARK    9  A    between atoms: C_16  and  C_17
REMARK   10  A    between atoms: C_17  and  N_18
REMARK   11  A    between atoms: N_21  and  C_22
REMARK                            x       y       z     vdW  Elec       q    Type
REMARK                         _______ _______ _______ _____ _____    ______ ____
ROOT
ATOM      1  C   UNL     1       2.062   6.198  19.678  0.00  0.00    +0.000 C 
ENDROOT
BRANCH   1   2
ATOM      2  C   UNL     1       1.955   7.715  19.858  0.00  0.00    +0.000 C 
BRANCH   2   3
ATOM      3  C   UNL     1       1.139   8.088  21.101  0.00  0.00    +0.000 C 
BRANCH   3   7
ATOM      4  N   UNL     1      -1.106  10.779  21.772  0.00  0.00    +0.000 N 
ATOM      5  C   UNL     1      -0.324  10.713  20.523  0.00  0.00    +0.000 C 
ATOM      6  C   UNL     1       1.187  10.486  20.777  0.00  0.00    +0.000 C 
ATOM      7  N   UNL     1       1.502   9.377  21.716  0.00  0.00    +0.000 NA
ATOM      8  C   UNL     1       0.768   9.654  22.972  0.00  0.00    +0.000 C 
ATOM      9  C   UNL     1      -0.762   9.784  22.808  0.00  0.00    +0.000 C 
BRANCH   4  14
ATOM     10  C   UNL     1      -1.607  13.984  23.609  0.00  0.00    +0.000 A 
ATOM     11  C   UNL     1      -2.820  14.398  23.060  0.00  0.00    +0.000 A 
ATOM     12  C   UNL     1      -3.455  13.620  22.099  0.00  0.00    +0.000 A 
ATOM     13  C   UNL     1      -2.874  12.423  21.687  0.00  0.00    +0.000 A 
ATOM     14  C   UNL     1      -1.654  11.976  22.220  0.00  0.00    +0.000 A 
ATOM     15  C   UNL     1      -1.033  12.782  23.184  0.00  0.00    +0.000 A 
BRANCH  10  17
ATOM     16  C   UNL     1      -2.005  15.417  25.460  0.00  0.00    +0.000 C 
ATOM     17  O   UNL     1      -1.084  14.831  24.549  0.00  0.00    +0.000 OA
ENDBRANCH  10  17
ENDBRANCH   4  14
ENDBRANCH   3   7
ENDBRANCH   2   3
ENDBRANCH   1   2
BRANCH   1  18
ATOM     18  C   UNL     1       1.542   5.411  20.880  0.00  0.00    +0.000 C 
BRANCH  18  19
ATOM     19  C   UNL     1       2.327   4.114  21.059  0.00  0.00    +0.000 C 
BRANCH  19  20
ATOM     20  C   UNL     1       2.082   3.117  19.919  0.00  0.00    +0.000 C 
BRANCH  20  21
ATOM     21  N   UNL     1       3.269   2.362  19.493  0.00  0.00    +0.000 NA
ATOM     22  C   UNL     1       3.206   1.911  18.084  0.00  0.00    +0.000 C 
ATOM     23  C   UNL     1       3.268   3.044  17.034  0.00  0.00    +0.000 C 
ATOM     24  N   UNL     1       4.465   3.871  17.259  0.00  0.00    +0.000 N 
ATOM     25  C   UNL     1       4.642   4.347  18.642  0.00  0.00    +0.000 C 
ATOM     26  C   UNL     1       4.498   3.182  19.651  0.00  0.00    +0.000 C 
BRANCH  24  27
ATOM     27  C   UNL     1       5.354   4.152  16.241  0.00  0.00    +0.000 A 
ATOM     28  C   UNL     1       6.564   4.823  16.477  0.00  0.00    +0.000 A 
ATOM     29  C   UNL     1       7.483   5.085  15.454  0.00  0.00    +0.000 A 
ATOM     30  C   UNL     1       7.212   4.676  14.154  0.00  0.00    +0.000 A 
ATOM     31  C   UNL     1       6.023   4.011  13.891  0.00  0.00    +0.000 A 
ATOM     32 CL   UNL     1       5.675   3.489  12.287  0.00  0.00    +0.000 Cl
ATOM     33  C   UNL     1       5.107   3.758  14.916  0.00  0.00    +0.000 A 
ENDBRANCH  24  27
ENDBRANCH  20  21
ENDBRANCH  19  20
ENDBRANCH  18  19
ENDBRANCH   1  18
TORSDOF 10
ENDMDL
MODEL 5
REMARK VINA RESULT:      -7.4      8.468     12.480
REMARK  Name = 
REMARK  11 active torsions:
REMARK  status: ('A' for Active; 'I' for Inactive)
REMARK    1  A    between atoms: C_1  and  O_2
REMARK    2  A    between atoms: O_2  and  C_3
REMARK    3  A    between atoms: C_7  and  N_8
REMARK    4  A    between atoms: N_11  and  C_12
REMARK    5  A    between atoms: C_12  and  C_13
REMARK    6  A    between atoms: C_13  and  C_14
REMARK    7  A    between atoms: C_14  and  C_15
REMARK    8  A    between atoms: C_15  and  C_16
REMARK    9  A    between atoms: C_16  and  C_17
REMARK   10  A    between atoms: C_17  and  N_18
REMARK   11  A    between atoms: N_21  and  C_22
REMARK                            x       y       z     vdW  Elec       q    Type
REMARK                         _______ _______ _______ _____ _____    ______ ____
ROOT
ATOM      1  C   UNL     1       8.961  10.498  18.774  0.00  0.00    +0.000 C 
ENDROOT
BRANCH   1   2
ATOM      2  C   UNL     1      10.243  11.265  18.433  0.00  0.00    +0.000 C 
BRANCH   2   3
ATOM      3  C   UNL     1       9.943  12.664  17.883  0.00  0.00    +0.000 C 
BRANCH   3   7
ATOM      4  N   UNL     1      10.201  14.831  20.706  0.00  0.00    +0.000 N 
ATOM      5  C   UNL     1       9.535  15.254  19.460  0.00  0.00    +0.000 C 
ATOM      6  C   UNL     1      10.411  15.016  18.205  0.00  0.00    +0.000 C 
ATOM      7  N   UNL     1      11.007  13.658  18.108  0.00  0.00    +0.000 NA
ATOM      8  C   UNL     1      11.765  13.430  19.360  0.00  0.00    +0.000 C 
ATOM      9  C   UNL     1      10.925  13.544  20.651  0.00  0.00    +0.000 C 
BRANCH   4  14
ATOM     10  C   UNL     1      10.601  16.820  23.833  0.00  0.00    +0.000 A 
ATOM     11  C   UNL     1      11.656  17.653  23.464  0.00  0.00    +0.000 A 
ATOM     12  C   UNL     1      12.217  17.551  22.197  0.00  0.00    +0.000 A 
ATOM     13  C   UNL     1      11.721  16.612  21.296  0.00  0.00    +0.000 A 
ATOM     14  C   UNL     1      10.658  15.759  21.634  0.00  0.00    +0.000 A 
ATOM     15  C   UNL     1      10.113  15.880  22.920  0.00  0.00    +0.000 A 
BRANCH  10  17
ATOM     16  C   UNL     1       8.717  16.971  25.271  0.00  0.00    +0.000 C 
ATOM     17  O   UNL     1      10.129  17.019  25.103  0.00  0.00    +0.000 OA
ENDBRANCH  10  17
ENDBRANCH   4  14
ENDBRANCH   3   7
ENDBRANCH   2   3
ENDBRANCH   1   2
BRANCH   1  18
ATOM     18  C   UNL     1       8.476   9.602  17.636  0.00  0.00    +0.000 C 
BRANCH  18  19
ATOM     19  C   UNL     1       8.199   8.187  18.141  0.00  0.00    +0.000 C 
BRANCH  19  20
ATOM     20  C   UNL     1       7.011   7.531  17.428  0.00  0.00    +0.000 C 
BRANCH  20  21
ATOM     21  N   UNL     1       7.112   6.072  17.274  0.00  0.00    +0.000 NA
ATOM     22  C   UNL     1       6.958   5.333  18.549  0.00  0.00    +0.000 C 
ATOM     23  C   UNL     1       5.545   5.399  19.173  0.00  0.00    +0.000 C 
ATOM     24  N   UNL     1       4.542   4.953  18.192  0.00  0.00    +0.000 N 
ATOM     25  C   UNL     1       4.628   5.605  16.874  0.00  0.00    +0.000 C 
ATOM     26  C   UNL     1       6.079   5.570  16.333  0.00  0.00    +0.000 C 
BRANCH  24  27
ATOM     27  C   UNL     1       3.612   3.980  18.498  0.00  0.00    +0.000 A 
ATOM     28  C   UNL     1       3.187   3.036  17.550  0.00  0.00    +0.000 A 
ATOM     29  C   UNL     1       2.265   2.030  17.862  0.00  0.00    +0.000 A 
ATOM     30  C   UNL     1       1.740   1.940  19.145  0.00  0.00    +0.000 A 
ATOM     31  C   UNL     1       2.142   2.861  20.103  0.00  0.00    +0.000 A 
ATOM     32 CL   UNL     1       1.507   2.761  21.700  0.00  0.00    +0.000 Cl
ATOM     33  C   UNL     1       3.057   3.868  19.783  0.00  0.00    +0.000 A 
ENDBRANCH  24  27
ENDBRANCH  20  21
ENDBRANCH  19  20
ENDBRANCH  18  19
ENDBRANCH   1  18
TORSDOF 10
ENDMDL
MODEL 6
REMARK VINA RESULT:      -7.4      3.945     11.274
REMARK  Name = 
REMARK  11 active torsions:
REMARK  status: ('A' for Active; 'I' for Inactive)
REMARK    1  A    between atoms: C_1  and  O_2
REMARK    2  A    between atoms: O_2  and  C_3
REMARK    3  A    between atoms: C_7  and  N_8
REMARK    4  A    between atoms: N_11  and  C_12
REMARK    5  A    between atoms: C_12  and  C_13
REMARK    6  A    between atoms: C_13  and  C_14
REMARK    7  A    between atoms: C_14  and  C_15
REMARK    8  A    between atoms: C_15  and  C_16
REMARK    9  A    between atoms: C_16  and  C_17
REMARK   10  A    between atoms: C_17  and  N_18
REMARK   11  A    between atoms: N_21  and  C_22
REMARK                            x       y       z     vdW  Elec       q    Type
REMARK                         _______ _______ _______ _____ _____    ______ ____
ROOT
ATOM      1  C   UNL     1       0.993   6.515  20.842  0.00  0.00    +0.000 C 
ENDROOT
BRANCH   1   2
ATOM      2  C   UNL     1       1.832   7.670  20.288  0.00  0.00    +0.000 C 
BRANCH   2   3
ATOM      3  C   UNL     1       1.023   8.970  20.190  0.00  0.00    +0.000 C 
BRANCH   3   7
ATOM      4  N   UNL     1      -1.237  11.193  21.826  0.00  0.00    +0.000 N 
ATOM      5  C   UNL     1      -0.540  11.570  20.582  0.00  0.00    +0.000 C 
ATOM      6  C   UNL     1       0.990  11.342  20.663  0.00  0.00    +0.000 C 
ATOM      7  N   UNL     1       1.396  10.005  21.170  0.00  0.00    +0.000 NA
ATOM      8  C   UNL     1       0.742   9.827  22.487  0.00  0.00    +0.000 C 
ATOM      9  C   UNL     1      -0.799   9.933  22.461  0.00  0.00    +0.000 C 
BRANCH   4  14
ATOM     10  C   UNL     1      -3.617  13.071  23.996  0.00  0.00    +0.000 A 
ATOM     11  C   UNL     1      -2.805  14.132  24.396  0.00  0.00    +0.000 A 
ATOM     12  C   UNL     1      -1.493  14.215  23.947  0.00  0.00    +0.000 A 
ATOM     13  C   UNL     1      -0.991  13.234  23.094  0.00  0.00    +0.000 A 
ATOM     14  C   UNL     1      -1.782  12.154  22.670  0.00  0.00    +0.000 A 
ATOM     15  C   UNL     1      -3.100  12.092  23.141  0.00  0.00    +0.000 A 
BRANCH  10  17
ATOM     16  C   UNL     1      -5.937  13.331  23.563  0.00  0.00    +0.000 C 
ATOM     17  O   UNL     1      -4.890  13.101  24.498  0.00  0.00    +0.000 OA
ENDBRANCH  10  17
ENDBRANCH   4  14
ENDBRANCH   3   7
ENDBRANCH   2   3
ENDBRANCH   1   2
BRANCH   1  18
ATOM     18  C   UNL     1       1.737   5.181  20.851  0.00  0.00    +0.000 C 
BRANCH  18  19
ATOM     19  C   UNL     1       0.920   4.100  20.146  0.00  0.00    +0.000 C 
BRANCH  19  20
ATOM     20  C   UNL     1       1.505   2.697  20.346  0.00  0.00    +0.000 C 
BRANCH  20  21
ATOM     21  N   UNL     1       2.105   2.101  19.144  0.00  0.00    +0.000 NA
ATOM     22  C   UNL     1       1.962   2.944  17.934  0.00  0.00    +0.000 C 
ATOM     23  C   UNL     1       2.768   4.263  17.961  0.00  0.00    +0.000 C 
ATOM     24  N   UNL     1       4.187   3.979  18.229  0.00  0.00    +0.000 N 
ATOM     25  C   UNL     1       4.440   3.118  19.396  0.00  0.00    +0.000 C 
ATOM     26  C   UNL     1       3.554   1.849  19.350  0.00  0.00    +0.000 C 
BRANCH  24  27
ATOM     27  C   UNL     1       5.191   4.476  17.421  0.00  0.00    +0.000 A 
ATOM     28  C   UNL     1       5.505   3.889  16.184  0.00  0.00    +0.000 A 
ATOM     29  C   UNL     1       6.502   4.405  15.348  0.00  0.00    +0.000 A 
ATOM     30  C   UNL     1       7.217   5.534  15.730  0.00  0.00    +0.000 A 
ATOM     31  C   UNL     1       6.927   6.133  16.948  0.00  0.00    +0.000 A 
ATOM     32 CL   UNL     1       7.797   7.537  17.434  0.00  0.00    +0.000 Cl
ATOM     33  C   UNL     1       5.936   5.610  17.782  0.00  0.00    +0.000 A 
ENDBRANCH  24  27
ENDBRANCH  20  21
ENDBRANCH  19  20
ENDBRANCH  18  19
ENDBRANCH   1  18
TORSDOF 10
ENDMDL
MODEL 7
REMARK VINA RESULT:      -7.3      4.927     12.355
REMARK  Name = 
REMARK  11 active torsions:
REMARK  status: ('A' for Active; 'I' for Inactive)
REMARK    1  A    between atoms: C_1  and  O_2
REMARK    2  A    between atoms: O_2  and  C_3
REMARK    3  A    between atoms: C_7  and  N_8
REMARK    4  A    between atoms: N_11  and  C_12
REMARK    5  A    between atoms: C_12  and  C_13
REMARK    6  A    between atoms: C_13  and  C_14
REMARK    7  A    between atoms: C_14  and  C_15
REMARK    8  A    between atoms: C_15  and  C_16
REMARK    9  A    between atoms: C_16  and  C_17
REMARK   10  A    between atoms: C_17  and  N_18
REMARK   11  A    between atoms: N_21  and  C_22
REMARK                            x       y       z     vdW  Elec       q    Type
REMARK                         _______ _______ _______ _____ _____    ______ ____
ROOT
ATOM      1  C   UNL     1       2.298   8.184  18.299  0.00  0.00    +0.000 C 
ENDROOT
BRANCH   1   2
ATOM      2  C   UNL     1       1.413   9.410  18.055  0.00  0.00    +0.000 C 
BRANCH   2   3
ATOM      3  C   UNL     1       1.036  10.113  19.364  0.00  0.00    +0.000 C 
BRANCH   3   7
ATOM      4  N   UNL     1      -0.774  12.229  21.595  0.00  0.00    +0.000 N 
ATOM      5  C   UNL     1      -0.053  11.034  22.071  0.00  0.00    +0.000 C 
ATOM      6  C   UNL     1      -0.415   9.760  21.268  0.00  0.00    +0.000 C 
ATOM      7  N   UNL     1      -0.361   9.916  19.791  0.00  0.00    +0.000 NA
ATOM      8  C   UNL     1      -1.244  11.054  19.446  0.00  0.00    +0.000 C 
ATOM      9  C   UNL     1      -0.872  12.389  20.129  0.00  0.00    +0.000 C 
BRANCH   4  14
ATOM     10  C   UNL     1      -2.573  14.325  24.099  0.00  0.00    +0.000 A 
ATOM     11  C   UNL     1      -3.891  13.968  23.820  0.00  0.00    +0.000 A 
ATOM     12  C   UNL     1      -4.169  13.047  22.818  0.00  0.00    +0.000 A 
ATOM     13  C   UNL     1      -3.124  12.479  22.093  0.00  0.00    +0.000 A 
ATOM     14  C   UNL     1      -1.784  12.814  22.350  0.00  0.00    +0.000 A 
ATOM     15  C   UNL     1      -1.532  13.749  23.362  0.00  0.00    +0.000 A 
BRANCH  10  17
ATOM     16  C   UNL     1      -1.095  15.503  25.537  0.00  0.00    +0.000 C 
ATOM     17  O   UNL     1      -2.426  15.236  25.110  0.00  0.00    +0.000 OA
ENDBRANCH  10  17
ENDBRANCH   4  14
ENDBRANCH   3   7
ENDBRANCH   2   3
ENDBRANCH   1   2
BRANCH   1  18
ATOM     18  C   UNL     1       1.972   7.455  19.601  0.00  0.00    +0.000 C 
BRANCH  18  19
ATOM     19  C   UNL     1       3.048   6.423  19.930  0.00  0.00    +0.000 C 
BRANCH  19  20
ATOM     20  C   UNL     1       3.280   5.431  18.783  0.00  0.00    +0.000 C 
BRANCH  20  21
ATOM     21  N   UNL     1       4.677   5.012  18.602  0.00  0.00    +0.000 NA
ATOM     22  C   UNL     1       4.817   3.719  17.893  0.00  0.00    +0.000 C 
ATOM     23  C   UNL     1       4.392   3.741  16.408  0.00  0.00    +0.000 C 
ATOM     24  N   UNL     1       5.119   4.804  15.694  0.00  0.00    +0.000 N 
ATOM     25  C   UNL     1       5.071   6.129  16.334  0.00  0.00    +0.000 C 
ATOM     26  C   UNL     1       5.437   6.032  17.835  0.00  0.00    +0.000 C 
BRANCH  24  27
ATOM     27  C   UNL     1       5.806   4.551  14.523  0.00  0.00    +0.000 A 
ATOM     28  C   UNL     1       7.026   5.180  14.229  0.00  0.00    +0.000 A 
ATOM     29  C   UNL     1       7.741   4.907  13.057  0.00  0.00    +0.000 A 
ATOM     30  C   UNL     1       7.249   3.985  12.140  0.00  0.00    +0.000 A 
ATOM     31  C   UNL     1       6.045   3.349  12.405  0.00  0.00    +0.000 A 
ATOM     32 CL   UNL     1       5.425   2.199  11.284  0.00  0.00    +0.000 Cl
ATOM     33  C   UNL     1       5.332   3.631  13.573  0.00  0.00    +0.000 A 
ENDBRANCH  24  27
ENDBRANCH  20  21
ENDBRANCH  19  20
ENDBRANCH  18  19
ENDBRANCH   1  18
TORSDOF 10
ENDMDL
MODEL 8
REMARK VINA RESULT:      -7.3      1.557      2.113
REMARK  Name = 
REMARK  11 active torsions:
REMARK  status: ('A' for Active; 'I' for Inactive)
REMARK    1  A    between atoms: C_1  and  O_2
REMARK    2  A    between atoms: O_2  and  C_3
REMARK    3  A    between atoms: C_7  and  N_8
REMARK    4  A    between atoms: N_11  and  C_12
REMARK    5  A    between atoms: C_12  and  C_13
REMARK    6  A    between atoms: C_13  and  C_14
REMARK    7  A    between atoms: C_14  and  C_15
REMARK    8  A    between atoms: C_15  and  C_16
REMARK    9  A    between atoms: C_16  and  C_17
REMARK   10  A    between atoms: C_17  and  N_18
REMARK   11  A    between atoms: N_21  and  C_22
REMARK                            x       y       z     vdW  Elec       q    Type
REMARK                         _______ _______ _______ _____ _____    ______ ____
ROOT
ATOM      1  C   UNL     1       0.999   4.882  20.527  0.00  0.00    +0.000 C 
ENDROOT
BRANCH   1   2
ATOM      2  C   UNL     1       1.892   3.665  20.787  0.00  0.00    +0.000 C 
BRANCH   2   3
ATOM      3  C   UNL     1       1.576   2.509  19.831  0.00  0.00    +0.000 C 
BRANCH   3   7
ATOM      4  N   UNL     1       3.910   4.228  17.751  0.00  0.00    +0.000 N 
ATOM      5  C   UNL     1       2.749   3.512  17.189  0.00  0.00    +0.000 C 
ATOM      6  C   UNL     1       2.641   2.055  17.706  0.00  0.00    +0.000 C 
ATOM      7  N   UNL     1       2.753   1.906  19.180  0.00  0.00    +0.000 NA
ATOM      8  C   UNL     1       4.031   2.538  19.581  0.00  0.00    +0.000 C 
ATOM      9  C   UNL     1       4.162   4.027  19.193  0.00  0.00    +0.000 C 
BRANCH   4  14
ATOM     10  C   UNL     1       6.909   5.970  16.383  0.00  0.00    +0.000 A 
ATOM     11  C   UNL     1       7.250   5.102  15.346  0.00  0.00    +0.000 A 
ATOM     12  C   UNL     1       6.491   3.961  15.112  0.00  0.00    +0.000 A 
ATOM     13  C   UNL     1       5.387   3.689  15.917  0.00  0.00    +0.000 A 
ATOM     14  C   UNL     1       5.014   4.544  16.967  0.00  0.00    +0.000 A 
ATOM     15  C   UNL     1       5.799   5.685  17.185  0.00  0.00    +0.000 A 
BRANCH  10  17
ATOM     16  C   UNL     1       7.749   7.693  17.785  0.00  0.00    +0.000 C 
ATOM     17  O   UNL     1       7.726   7.061  16.510  0.00  0.00    +0.000 OA
ENDBRANCH  10  17
ENDBRANCH   4  14
ENDBRANCH   3   7
ENDBRANCH   2   3
ENDBRANCH   1   2
BRANCH   1  18
ATOM     18  C   UNL     1       1.509   6.157  21.196  0.00  0.00    +0.000 C 
BRANCH  18  19
ATOM     19  C   UNL     1       2.035   7.143  20.156  0.00  0.00    +0.000 C 
BRANCH  19  20
ATOM     20  C   UNL     1       1.051   8.285  19.878  0.00  0.00    +0.000 C 
BRANCH  20  21
ATOM     21  N   UNL     1       1.485   9.605  20.357  0.00  0.00    +0.000 NA
ATOM     22  C   UNL     1       0.872  10.732  19.615  0.00  0.00    +0.000 C 
ATOM     23  C   UNL     1      -0.650  10.901  19.829  0.00  0.00    +0.000 C 
ATOM     24  N   UNL     1      -0.945  11.007  21.268  0.00  0.00    +0.000 N 
ATOM     25  C   UNL     1      -0.353   9.949  22.104  0.00  0.00    +0.000 C 
ATOM     26  C   UNL     1       1.155   9.778  21.795  0.00  0.00    +0.000 C 
BRANCH  24  27
ATOM     27  C   UNL     1      -1.706  12.040  21.777  0.00  0.00    +0.000 A 
ATOM     28  C   UNL     1      -1.817  13.274  21.117  0.00  0.00    +0.000 A 
ATOM     29  C   UNL     1      -2.609  14.316  21.614  0.00  0.00    +0.000 A 
ATOM     30  C   UNL     1      -3.321  14.147  22.796  0.00  0.00    +0.000 A 
ATOM     31  C   UNL     1      -3.229  12.937  23.469  0.00  0.00    +0.000 A 
ATOM     32 CL   UNL     1      -4.110  12.707  24.931  0.00  0.00    +0.000 Cl
ATOM     33  C   UNL     1      -2.431  11.903  22.972  0.00  0.00    +0.000 A 
ENDBRANCH  24  27
ENDBRANCH  20  21
ENDBRANCH  19  20
ENDBRANCH  18  19
ENDBRANCH   1  18
TORSDOF 10
ENDMDL
MODEL 9
REMARK VINA RESULT:      -7.3      1.915      2.877
REMARK  Name = 
REMARK  11 active torsions:
REMARK  status: ('A' for Active; 'I' for Inactive)
REMARK    1  A    between atoms: C_1  and  O_2
REMARK    2  A    between atoms: O_2  and  C_3
REMARK    3  A    between atoms: C_7  and  N_8
REMARK    4  A    between atoms: N_11  and  C_12
REMARK    5  A    between atoms: C_12  and  C_13
REMARK    6  A    between atoms: C_13  and  C_14
REMARK    7  A    between atoms: C_14  and  C_15
REMARK    8  A    between atoms: C_15  and  C_16
REMARK    9  A    between atoms: C_16  and  C_17
REMARK   10  A    between atoms: C_17  and  N_18
REMARK   11  A    between atoms: N_21  and  C_22
REMARK                            x       y       z     vdW  Elec       q    Type
REMARK                         _______ _______ _______ _____ _____    ______ ____
ROOT
ATOM      1  C   UNL     1       2.250   5.366  18.918  0.00  0.00    +0.000 C 
ENDROOT
BRANCH   1   2
ATOM      2  C   UNL     1       3.393   4.851  19.798  0.00  0.00    +0.000 C 
BRANCH   2   3
ATOM      3  C   UNL     1       4.756   5.378  19.333  0.00  0.00    +0.000 C 
BRANCH   3   7
ATOM      4  N   UNL     1       5.483   5.141  15.848  0.00  0.00    +0.000 N 
ATOM      5  C   UNL     1       4.386   4.374  16.467  0.00  0.00    +0.000 C 
ATOM      6  C   UNL     1       4.844   3.580  17.716  0.00  0.00    +0.000 C 
ATOM      7  N   UNL     1       5.626   4.369  18.704  0.00  0.00    +0.000 NA
ATOM      8  C   UNL     1       6.773   4.958  17.975  0.00  0.00    +0.000 C 
ATOM      9  C   UNL     1       6.383   5.854  16.778  0.00  0.00    +0.000 C 
BRANCH   4  14
ATOM     10  C   UNL     1       5.973   3.509  12.533  0.00  0.00    +0.000 A 
ATOM     11  C   UNL     1       7.183   4.085  12.149  0.00  0.00    +0.000 A 
ATOM     12  C   UNL     1       7.820   4.996  12.983  0.00  0.00    +0.000 A 
ATOM     13  C   UNL     1       7.243   5.332  14.206  0.00  0.00    +0.000 A 
ATOM     14  C   UNL     1       6.026   4.770  14.624  0.00  0.00    +0.000 A 
ATOM     15  C   UNL     1       5.403   3.857  13.762  0.00  0.00    +0.000 A 
BRANCH  10  17
ATOM     16  C   UNL     1       4.117   2.874  11.194  0.00  0.00    +0.000 C 
ATOM     17  O   UNL     1       5.447   2.623  11.631  0.00  0.00    +0.000 OA
ENDBRANCH  10  17
ENDBRANCH   4  14
ENDBRANCH   3   7
ENDBRANCH   2   3
ENDBRANCH   1   2
BRANCH   1  18
ATOM     18  C   UNL     1       2.211   6.889  18.811  0.00  0.00    +0.000 C 
BRANCH  18  19
ATOM     19  C   UNL     1       2.065   7.525  20.192  0.00  0.00    +0.000 C 
BRANCH  19  20
ATOM     20  C   UNL     1       1.391   8.901  20.136  0.00  0.00    +0.000 C 
BRANCH  20  21
ATOM     21  N   UNL     1      -0.057   8.891  20.391  0.00  0.00    +0.000 NA
ATOM     22  C   UNL     1      -0.401   8.926  21.832  0.00  0.00    +0.000 C 
ATOM     23  C   UNL     1      -0.052  10.247  22.554  0.00  0.00    +0.000 C 
ATOM     24  N   UNL     1      -0.668  11.383  21.847  0.00  0.00    +0.000 N 
ATOM     25  C   UNL     1      -0.413  11.426  20.397  0.00  0.00    +0.000 C 
ATOM     26  C   UNL     1      -0.713  10.055  19.742  0.00  0.00    +0.000 C 
BRANCH  24  27
ATOM     27  C   UNL     1      -1.440  12.316  22.510  0.00  0.00    +0.000 A 
ATOM     28  C   UNL     1      -0.868  13.404  23.188  0.00  0.00    +0.000 A 
ATOM     29  C   UNL     1      -1.647  14.369  23.837  0.00  0.00    +0.000 A 
ATOM     30  C   UNL     1      -3.033  14.270  23.824  0.00  0.00    +0.000 A 
ATOM     31  C   UNL     1      -3.625  13.204  23.161  0.00  0.00    +0.000 A 
ATOM     32 CL   UNL     1      -5.341  13.070  23.127  0.00  0.00    +0.000 Cl
ATOM     33  C   UNL     1      -2.842  12.240  22.521  0.00  0.00    +0.000 A 
ENDBRANCH  24  27
ENDBRANCH  20  21
ENDBRANCH  19  20
ENDBRANCH  18  19
ENDBRANCH   1  18
TORSDOF 10
ENDMDL
