MODEL 1
REMARK VINA RESULT:      -6.9      0.000      0.000
REMARK  Name = 
REMARK  6 active torsions:
REMARK  status: ('A' for Active; 'I' for Inactive)
REMARK    1  A    between atoms: C_1  and  C_2
REMARK    2  A    between atoms: C_2  and  N_3
REMARK    3  A    between atoms: N_3  and  C_4
REMARK    4  A    between atoms: C_4  and  C_5
REMARK    5  A    between atoms: N_17  and  C_18
REMARK    6  A    between atoms: C_18  and  C_19
REMARK                            x       y       z     vdW  Elec       q    Type
REMARK                         _______ _______ _______ _____ _____    ______ ____
ROOT
ATOM      1  C   UNL     1       3.633   7.835  17.018  0.00  0.00    +0.000 C 
ATOM      2  C   UNL     1       3.956   6.757  18.039  0.00  0.00    +0.000 C 
ATOM      3  C   UNL     1       5.219   6.288  18.163  0.00  0.00    +0.000 C 
ATOM      4  C   UNL     1       5.610   5.173  19.053  0.00  0.00    +0.000 C 
ATOM      5  O   UNL     1       4.990   4.830  20.052  0.00  0.00    +0.000 OA
ATOM      6  N   UNL     1       6.751   4.532  18.650  0.00  0.00    +0.000 N 
ATOM      7  C   UNL     1       7.365   4.666  17.429  0.00  0.00    +0.000 C 
ATOM      8  O   UNL     1       8.263   3.888  17.116  0.00  0.00    +0.000 OA
ATOM      9  N   UNL     1       6.938   5.721  16.649  0.00  0.00    +0.000 N 
ATOM     10  C   UNL     1       6.269   6.770  17.235  0.00  0.00    +0.000 C 
ATOM     11  O   UNL     1       6.490   7.956  17.024  0.00  0.00    +0.000 OA
ATOM     12  H   UNL     1       7.050   3.747  19.209  0.00  0.00    +0.000 HD
ENDROOT
BRANCH   2  13
ATOM     13  N   UNL     1       2.820   6.214  18.649  0.00  0.00    +0.000 N 
ATOM     14  H   UNL     1       2.244   6.953  19.057  0.00  0.00    +0.000 HD
BRANCH  13  15
ATOM     15  C   UNL     1       1.908   5.332  17.917  0.00  0.00    +0.000 C 
BRANCH  15  16
ATOM     16  C   UNL     1       2.271   3.909  18.218  0.00  0.00    +0.000 A 
ATOM     17  C   UNL     1       3.154   3.180  17.416  0.00  0.00    +0.000 A 
ATOM     18  C   UNL     1       3.420   1.847  17.718  0.00  0.00    +0.000 A 
ATOM     19  C   UNL     1       2.790   1.278  18.813  0.00  0.00    +0.000 A 
ATOM     20  N   UNL     1       1.926   1.953  19.610  0.00  0.00    +0.000 NA
ATOM     21  C   UNL     1       1.681   3.244  19.288  0.00  0.00    +0.000 A 
ENDBRANCH  15  16
ENDBRANCH  13  15
ENDBRANCH   2  13
BRANCH   9  22
ATOM     22  C   UNL     1       7.537   5.940  15.345  0.00  0.00    +0.000 C 
BRANCH  22  23
ATOM     23  C   UNL     1       6.937   5.033  14.286  0.00  0.00    +0.000 A 
ATOM     24  C   UNL     1       5.679   4.433  14.470  0.00  0.00    +0.000 A 
ATOM     25  C   UNL     1       5.118   3.636  13.466  0.00  0.00    +0.000 A 
ATOM     26  C   UNL     1       5.811   3.415  12.277  0.00  0.00    +0.000 A 
ATOM     27  C   UNL     1       7.072   3.981  12.095  0.00  0.00    +0.000 A 
ATOM     28  C   UNL     1       7.632   4.780  13.094  0.00  0.00    +0.000 A 
ENDBRANCH  22  23
ENDBRANCH   9  22
TORSDOF 5
ENDMDL
MODEL 2
REMARK VINA RESULT:      -6.9      0.520      1.392
REMARK  Name = 
REMARK  6 active torsions:
REMARK  status: ('A' for Active; 'I' for Inactive)
REMARK    1  A    between atoms: C_1  and  C_2
REMARK    2  A    between atoms: C_2  and  N_3
REMARK    3  A    between atoms: N_3  and  C_4
REMARK    4  A    between atoms: C_4  and  C_5
REMARK    5  A    between atoms: N_17  and  C_18
REMARK    6  A    between atoms: C_18  and  C_19
REMARK                            x       y       z     vdW  Elec       q    Type
REMARK                         _______ _______ _______ _____ _____    ______ ____
ROOT
ATOM      1  C   UNL     1       3.644   7.718  16.724  0.00  0.00    +0.000 C 
ATOM      2  C   UNL     1       3.898   6.734  17.854  0.00  0.00    +0.000 C 
ATOM      3  C   UNL     1       5.154   6.302  18.115  0.00  0.00    +0.000 C 
ATOM      4  C   UNL     1       5.486   5.271  19.123  0.00  0.00    +0.000 C 
ATOM      5  O   UNL     1       4.793   4.999  20.095  0.00  0.00    +0.000 OA
ATOM      6  N   UNL     1       6.664   4.622  18.866  0.00  0.00    +0.000 N 
ATOM      7  C   UNL     1       7.372   4.667  17.690  0.00  0.00    +0.000 C 
ATOM      8  O   UNL     1       8.303   3.884  17.515  0.00  0.00    +0.000 OA
ATOM      9  N   UNL     1       6.996   5.646  16.794  0.00  0.00    +0.000 N 
ATOM     10  C   UNL     1       6.268   6.726  17.236  0.00  0.00    +0.000 C 
ATOM     11  O   UNL     1       6.490   7.895  16.946  0.00  0.00    +0.000 OA
ATOM     12  H   UNL     1       6.927   3.891  19.511  0.00  0.00    +0.000 HD
ENDROOT
BRANCH   2  13
ATOM     13  N   UNL     1       2.724   6.220  18.415  0.00  0.00    +0.000 N 
ATOM     14  H   UNL     1       2.105   6.979  18.707  0.00  0.00    +0.000 HD
BRANCH  13  15
ATOM     15  C   UNL     1       1.890   5.257  17.693  0.00  0.00    +0.000 C 
BRANCH  15  16
ATOM     16  C   UNL     1       1.945   3.942  18.410  0.00  0.00    +0.000 A 
ATOM     17  C   UNL     1       1.246   3.713  19.599  0.00  0.00    +0.000 A 
ATOM     18  C   UNL     1       1.371   2.486  20.246  0.00  0.00    +0.000 A 
ATOM     19  C   UNL     1       2.196   1.523  19.687  0.00  0.00    +0.000 A 
ATOM     20  N   UNL     1       2.891   1.712  18.539  0.00  0.00    +0.000 NA
ATOM     21  C   UNL     1       2.756   2.917  17.937  0.00  0.00    +0.000 A 
ENDBRANCH  15  16
ENDBRANCH  13  15
ENDBRANCH   2  13
BRANCH   9  22
ATOM     22  C   UNL     1       7.694   5.769  15.528  0.00  0.00    +0.000 C 
BRANCH  22  23
ATOM     23  C   UNL     1       7.004   4.992  14.422  0.00  0.00    +0.000 A 
ATOM     24  C   UNL     1       7.602   4.836  13.160  0.00  0.00    +0.000 A 
ATOM     25  C   UNL     1       6.976   4.079  12.164  0.00  0.00    +0.000 A 
ATOM     26  C   UNL     1       5.739   3.484  12.410  0.00  0.00    +0.000 A 
ATOM     27  C   UNL     1       5.122   3.656  13.648  0.00  0.00    +0.000 A 
ATOM     28  C   UNL     1       5.748   4.408  14.644  0.00  0.00    +0.000 A 
ENDBRANCH  22  23
ENDBRANCH   9  22
TORSDOF 5
ENDMDL
MODEL 3
REMARK VINA RESULT:      -6.9      1.779      6.451
REMARK  Name = 
REMARK  6 active torsions:
REMARK  status: ('A' for Active; 'I' for Inactive)
REMARK    1  A    between atoms: C_1  and  C_2
REMARK    2  A    between atoms: C_2  and  N_3
REMARK    3  A    between atoms: N_3  and  C_4
REMARK    4  A    between atoms: C_4  and  C_5
REMARK    5  A    between atoms: N_17  and  C_18
REMARK    6  A    between atoms: C_18  and  C_19
REMARK                            x       y       z     vdW  Elec       q    Type
REMARK                         _______ _______ _______ _____ _____    ______ ____
ROOT
ATOM      1  C   UNL     1       5.335   3.271  18.599  0.00  0.00    +0.000 C 
ATOM      2  C   UNL     1       5.645   4.437  17.674  0.00  0.00    +0.000 C 
ATOM      3  C   UNL     1       5.133   5.664  17.926  0.00  0.00    +0.000 C 
ATOM      4  C   UNL     1       5.293   6.832  17.033  0.00  0.00    +0.000 C 
ATOM      5  O   UNL     1       6.204   6.971  16.226  0.00  0.00    +0.000 OA
ATOM      6  N   UNL     1       4.305   7.769  17.181  0.00  0.00    +0.000 N 
ATOM      7  C   UNL     1       3.122   7.594  17.856  0.00  0.00    +0.000 C 
ATOM      8  O   UNL     1       2.234   8.437  17.746  0.00  0.00    +0.000 OA
ATOM      9  N   UNL     1       3.042   6.475  18.659  0.00  0.00    +0.000 N 
ATOM     10  C   UNL     1       4.196   5.844  19.059  0.00  0.00    +0.000 C 
ATOM     11  O   UNL     1       4.435   5.464  20.198  0.00  0.00    +0.000 OA
ATOM     12  H   UNL     1       4.353   8.577  16.578  0.00  0.00    +0.000 HD
ENDROOT
BRANCH   2  13
ATOM     13  N   UNL     1       6.315   4.055  16.507  0.00  0.00    +0.000 N 
ATOM     14  H   UNL     1       7.061   3.390  16.723  0.00  0.00    +0.000 HD
BRANCH  13  15
ATOM     15  C   UNL     1       5.594   3.511  15.355  0.00  0.00    +0.000 C 
BRANCH  15  16
ATOM     16  C   UNL     1       6.271   3.978  14.101  0.00  0.00    +0.000 A 
ATOM     17  C   UNL     1       6.048   3.368  12.863  0.00  0.00    +0.000 A 
ATOM     18  C   UNL     1       6.740   3.814  11.740  0.00  0.00    +0.000 A 
ATOM     19  C   UNL     1       7.641   4.857  11.888  0.00  0.00    +0.000 A 
ATOM     20  N   UNL     1       7.885   5.469  13.073  0.00  0.00    +0.000 NA
ATOM     21  C   UNL     1       7.204   5.008  14.148  0.00  0.00    +0.000 A 
ENDBRANCH  15  16
ENDBRANCH  13  15
ENDBRANCH   2  13
BRANCH   9  22
ATOM     22  C   UNL     1       1.829   6.216  19.412  0.00  0.00    +0.000 C 
BRANCH  22  23
ATOM     23  C   UNL     1       1.541   4.730  19.531  0.00  0.00    +0.000 A 
ATOM     24  C   UNL     1       1.427   3.918  18.390  0.00  0.00    +0.000 A 
ATOM     25  C   UNL     1       1.207   2.542  18.515  0.00  0.00    +0.000 A 
ATOM     26  C   UNL     1       1.083   1.965  19.778  0.00  0.00    +0.000 A 
ATOM     27  C   UNL     1       1.165   2.764  20.916  0.00  0.00    +0.000 A 
ATOM     28  C   UNL     1       1.388   4.137  20.793  0.00  0.00    +0.000 A 
ENDBRANCH  22  23
ENDBRANCH   9  22
TORSDOF 5
ENDMDL
MODEL 4
REMARK VINA RESULT:      -6.8      2.772      6.701
REMARK  Name = 
REMARK  6 active torsions:
REMARK  status: ('A' for Active; 'I' for Inactive)
REMARK    1  A    between atoms: C_1  and  C_2
REMARK    2  A    between atoms: C_2  and  N_3
REMARK    3  A    between atoms: N_3  and  C_4
REMARK    4  A    between atoms: C_4  and  C_5
REMARK    5  A    between atoms: N_17  and  C_18
REMARK    6  A    between atoms: C_18  and  C_19
REMARK                            x       y       z     vdW  Elec       q    Type
REMARK                         _______ _______ _______ _____ _____    ______ ____
ROOT
ATOM      1  C   UNL     1       3.016   3.801  16.463  0.00  0.00    +0.000 C 
ATOM      2  C   UNL     1       3.864   3.043  17.471  0.00  0.00    +0.000 C 
ATOM      3  C   UNL     1       3.343   2.674  18.664  0.00  0.00    +0.000 C 
ATOM      4  C   UNL     1       4.117   2.026  19.746  0.00  0.00    +0.000 C 
ATOM      5  O   UNL     1       5.143   1.380  19.576  0.00  0.00    +0.000 OA
ATOM      6  N   UNL     1       3.578   2.222  20.990  0.00  0.00    +0.000 N 
ATOM      7  C   UNL     1       2.598   3.128  21.312  0.00  0.00    +0.000 C 
ATOM      8  O   UNL     1       2.345   3.349  22.494  0.00  0.00    +0.000 OA
ATOM      9  N   UNL     1       1.930   3.701  20.250  0.00  0.00    +0.000 N 
ATOM     10  C   UNL     1       1.967   3.092  19.018  0.00  0.00    +0.000 C 
ATOM     11  O   UNL     1       1.000   2.915  18.287  0.00  0.00    +0.000 OA
ATOM     12  H   UNL     1       4.081   1.821  21.768  0.00  0.00    +0.000 HD
ENDROOT
BRANCH   2  13
ATOM     13  N   UNL     1       5.213   2.960  17.108  0.00  0.00    +0.000 N 
ATOM     14  H   UNL     1       5.446   2.011  16.811  0.00  0.00    +0.000 HD
BRANCH  13  15
ATOM     15  C   UNL     1       5.793   3.862  16.110  0.00  0.00    +0.000 C 
BRANCH  15  16
ATOM     16  C   UNL     1       6.512   4.967  16.823  0.00  0.00    +0.000 A 
ATOM     17  C   UNL     1       7.264   4.742  17.979  0.00  0.00    +0.000 A 
ATOM     18  C   UNL     1       7.873   5.815  18.626  0.00  0.00    +0.000 A 
ATOM     19  C   UNL     1       7.708   7.086  18.099  0.00  0.00    +0.000 A 
ATOM     20  N   UNL     1       6.983   7.342  16.983  0.00  0.00    +0.000 NA
ATOM     21  C   UNL     1       6.396   6.281  16.381  0.00  0.00    +0.000 A 
ENDBRANCH  15  16
ENDBRANCH  13  15
ENDBRANCH   2  13
BRANCH   9  22
ATOM     22  C   UNL     1       0.874   4.665  20.500  0.00  0.00    +0.000 C 
BRANCH  22  23
ATOM     23  C   UNL     1       1.298   6.077  20.136  0.00  0.00    +0.000 A 
ATOM     24  C   UNL     1       2.021   6.338  18.960  0.00  0.00    +0.000 A 
ATOM     25  C   UNL     1       2.366   7.649  18.613  0.00  0.00    +0.000 A 
ATOM     26  C   UNL     1       2.007   8.710  19.443  0.00  0.00    +0.000 A 
ATOM     27  C   UNL     1       1.316   8.461  20.626  0.00  0.00    +0.000 A 
ATOM     28  C   UNL     1       0.968   7.153  20.972  0.00  0.00    +0.000 A 
ENDBRANCH  22  23
ENDBRANCH   9  22
TORSDOF 5
ENDMDL
MODEL 5
REMARK VINA RESULT:      -6.8      5.378      8.419
REMARK  Name = 
REMARK  6 active torsions:
REMARK  status: ('A' for Active; 'I' for Inactive)
REMARK    1  A    between atoms: C_1  and  C_2
REMARK    2  A    between atoms: C_2  and  N_3
REMARK    3  A    between atoms: N_3  and  C_4
REMARK    4  A    between atoms: C_4  and  C_5
REMARK    5  A    between atoms: N_17  and  C_18
REMARK    6  A    between atoms: C_18  and  C_19
REMARK                            x       y       z     vdW  Elec       q    Type
REMARK                         _______ _______ _______ _____ _____    ______ ____
ROOT
ATOM      1  C   UNL     1       1.692   9.304  17.809  0.00  0.00    +0.000 C 
ATOM      2  C   UNL     1       1.445   8.737  19.197  0.00  0.00    +0.000 C 
ATOM      3  C   UNL     1       0.565   9.334  20.034  0.00  0.00    +0.000 C 
ATOM      4  C   UNL     1       0.333   8.917  21.434  0.00  0.00    +0.000 C 
ATOM      5  O   UNL     1       0.555   7.795  21.872  0.00  0.00    +0.000 OA
ATOM      6  N   UNL     1      -0.156   9.922  22.225  0.00  0.00    +0.000 N 
ATOM      7  C   UNL     1      -0.193  11.257  21.905  0.00  0.00    +0.000 C 
ATOM      8  O   UNL     1      -0.467  12.080  22.776  0.00  0.00    +0.000 OA
ATOM      9  N   UNL     1       0.046  11.569  20.582  0.00  0.00    +0.000 N 
ATOM     10  C   UNL     1      -0.092  10.596  19.621  0.00  0.00    +0.000 C 
ATOM     11  O   UNL     1      -0.669  10.736  18.550  0.00  0.00    +0.000 OA
ATOM     12  H   UNL     1      -0.309   9.698  23.198  0.00  0.00    +0.000 HD
ENDROOT
BRANCH   2  13
ATOM     13  N   UNL     1       2.330   7.710  19.541  0.00  0.00    +0.000 N 
ATOM     14  H   UNL     1       1.980   7.189  20.347  0.00  0.00    +0.000 HD
BRANCH  13  15
ATOM     15  C   UNL     1       2.763   6.713  18.558  0.00  0.00    +0.000 C 
BRANCH  15  16
ATOM     16  C   UNL     1       2.089   5.410  18.869  0.00  0.00    +0.000 A 
ATOM     17  C   UNL     1       1.772   5.028  20.175  0.00  0.00    +0.000 A 
ATOM     18  C   UNL     1       1.188   3.786  20.408  0.00  0.00    +0.000 A 
ATOM     19  C   UNL     1       0.941   2.957  19.326  0.00  0.00    +0.000 A 
ATOM     20  N   UNL     1       1.239   3.292  18.047  0.00  0.00    +0.000 NA
ATOM     21  C   UNL     1       1.814   4.502  17.852  0.00  0.00    +0.000 A 
ENDBRANCH  15  16
ENDBRANCH  13  15
ENDBRANCH   2  13
BRANCH   9  22
ATOM     22  C   UNL     1       0.020  12.956  20.155  0.00  0.00    +0.000 C 
BRANCH  22  23
ATOM     23  C   UNL     1       1.410  13.478  19.840  0.00  0.00    +0.000 A 
ATOM     24  C   UNL     1       1.940  13.400  18.541  0.00  0.00    +0.000 A 
ATOM     25  C   UNL     1       3.205  13.926  18.255  0.00  0.00    +0.000 A 
ATOM     26  C   UNL     1       3.960  14.521  19.265  0.00  0.00    +0.000 A 
ATOM     27  C   UNL     1       3.458  14.578  20.563  0.00  0.00    +0.000 A 
ATOM     28  C   UNL     1       2.194  14.057  20.849  0.00  0.00    +0.000 A 
ENDBRANCH  22  23
ENDBRANCH   9  22
TORSDOF 5
ENDMDL
MODEL 6
REMARK VINA RESULT:      -6.7      5.467      8.498
REMARK  Name = 
REMARK  6 active torsions:
REMARK  status: ('A' for Active; 'I' for Inactive)
REMARK    1  A    between atoms: C_1  and  C_2
REMARK    2  A    between atoms: C_2  and  N_3
REMARK    3  A    between atoms: N_3  and  C_4
REMARK    4  A    between atoms: C_4  and  C_5
REMARK    5  A    between atoms: N_17  and  C_18
REMARK    6  A    between atoms: C_18  and  C_19
REMARK                            x       y       z     vdW  Elec       q    Type
REMARK                         _______ _______ _______ _____ _____    ______ ____
ROOT
ATOM      1  C   UNL     1       1.664   8.698  17.761  0.00  0.00    +0.000 C 
ATOM      2  C   UNL     1       1.318   8.623  19.240  0.00  0.00    +0.000 C 
ATOM      3  C   UNL     1       0.350   9.414  19.757  0.00  0.00    +0.000 C 
ATOM      4  C   UNL     1       0.014   9.486  21.196  0.00  0.00    +0.000 C 
ATOM      5  O   UNL     1       0.235   8.595  22.007  0.00  0.00    +0.000 OA
ATOM      6  N   UNL     1      -0.574  10.669  21.557  0.00  0.00    +0.000 N 
ATOM      7  C   UNL     1      -0.628  11.810  20.795  0.00  0.00    +0.000 C 
ATOM      8  O   UNL     1      -1.003  12.862  21.309  0.00  0.00    +0.000 OA
ATOM      9  N   UNL     1      -0.288  11.667  19.466  0.00  0.00    +0.000 N 
ATOM     10  C   UNL     1      -0.310  10.419  18.891  0.00  0.00    +0.000 C 
ATOM     11  O   UNL     1      -0.798  10.151  17.800  0.00  0.00    +0.000 OA
ATOM     12  H   UNL     1      -0.803  10.780  22.534  0.00  0.00    +0.000 HD
ENDROOT
BRANCH   2  13
ATOM     13  N   UNL     1       2.205   7.830  19.976  0.00  0.00    +0.000 N 
ATOM     14  H   UNL     1       1.721   7.380  20.755  0.00  0.00    +0.000 HD
BRANCH  13  15
ATOM     15  C   UNL     1       3.013   6.790  19.334  0.00  0.00    +0.000 C 
BRANCH  15  16
ATOM     16  C   UNL     1       2.221   5.518  19.302  0.00  0.00    +0.000 A 
ATOM     17  C   UNL     1       1.697   4.937  20.461  0.00  0.00    +0.000 A 
ATOM     18  C   UNL     1       1.008   3.730  20.376  0.00  0.00    +0.000 A 
ATOM     19  C   UNL     1       0.866   3.134  19.133  0.00  0.00    +0.000 A 
ATOM     20  N   UNL     1       1.364   3.666  17.990  0.00  0.00    +0.000 NA
ATOM     21  C   UNL     1       2.036   4.835  18.105  0.00  0.00    +0.000 A 
ENDBRANCH  15  16
ENDBRANCH  13  15
ENDBRANCH   2  13
BRANCH   9  22
ATOM     22  C   UNL     1      -0.323  12.821  18.587  0.00  0.00    +0.000 C 
BRANCH  22  23
ATOM     23  C   UNL     1       0.986  13.591  18.609  0.00  0.00    +0.000 A 
ATOM     24  C   UNL     1       2.203  12.965  18.294  0.00  0.00    +0.000 A 
ATOM     25  C   UNL     1       3.396  13.696  18.274  0.00  0.00    +0.000 A 
ATOM     26  C   UNL     1       3.388  15.055  18.583  0.00  0.00    +0.000 A 
ATOM     27  C   UNL     1       2.192  15.681  18.926  0.00  0.00    +0.000 A 
ATOM     28  C   UNL     1       1.000  14.953  18.943  0.00  0.00    +0.000 A 
ENDBRANCH  22  23
ENDBRANCH   9  22
TORSDOF 5
ENDMDL
MODEL 7
REMARK VINA RESULT:      -6.6      4.271      6.384
REMARK  Name = 
REMARK  6 active torsions:
REMARK  status: ('A' for Active; 'I' for Inactive)
REMARK    1  A    between atoms: C_1  and  C_2
REMARK    2  A    between atoms: C_2  and  N_3
REMARK    3  A    between atoms: N_3  and  C_4
REMARK    4  A    between atoms: C_4  and  C_5
REMARK    5  A    between atoms: N_17  and  C_18
REMARK    6  A    between atoms: C_18  and  C_19
REMARK                            x       y       z     vdW  Elec       q    Type
REMARK                         _______ _______ _______ _____ _____    ______ ____
ROOT
ATOM      1  C   UNL     1       1.664   9.358  17.425  0.00  0.00    +0.000 C 
ATOM      2  C   UNL     1       1.386   9.003  18.876  0.00  0.00    +0.000 C 
ATOM      3  C   UNL     1       2.011   7.951  19.455  0.00  0.00    +0.000 C 
ATOM      4  C   UNL     1       1.730   7.467  20.824  0.00  0.00    +0.000 C 
ATOM      5  O   UNL     1       1.255   8.153  21.721  0.00  0.00    +0.000 OA
ATOM      6  N   UNL     1       2.048   6.147  21.008  0.00  0.00    +0.000 N 
ATOM      7  C   UNL     1       2.335   5.240  20.019  0.00  0.00    +0.000 C 
ATOM      8  O   UNL     1       2.404   4.045  20.297  0.00  0.00    +0.000 OA
ATOM      9  N   UNL     1       2.572   5.765  18.765  0.00  0.00    +0.000 N 
ATOM     10  C   UNL     1       2.902   7.094  18.639  0.00  0.00    +0.000 C 
ATOM     11  O   UNL     1       3.806   7.534  17.940  0.00  0.00    +0.000 OA
ATOM     12  H   UNL     1       1.853   5.759  21.920  0.00  0.00    +0.000 HD
ENDROOT
BRANCH   2  13
ATOM     13  N   UNL     1       0.328   9.730  19.431  0.00  0.00    +0.000 N 
ATOM     14  H   UNL     1       0.483   9.884  20.429  0.00  0.00    +0.000 HD
BRANCH  13  15
ATOM     15  C   UNL     1      -0.090  11.018  18.872  0.00  0.00    +0.000 C 
BRANCH  15  16
ATOM     16  C   UNL     1      -1.523  10.913  18.444  0.00  0.00    +0.000 A 
ATOM     17  C   UNL     1      -1.944  10.003  17.470  0.00  0.00    +0.000 A 
ATOM     18  C   UNL     1      -3.281   9.981  17.078  0.00  0.00    +0.000 A 
ATOM     19  C   UNL     1      -4.158  10.876  17.670  0.00  0.00    +0.000 A 
ATOM     20  N   UNL     1      -3.785  11.774  18.614  0.00  0.00    +0.000 NA
ATOM     21  C   UNL     1      -2.478  11.777  18.968  0.00  0.00    +0.000 A 
ENDBRANCH  15  16
ENDBRANCH  13  15
ENDBRANCH   2  13
BRANCH   9  22
ATOM     22  C   UNL     1       2.889   4.877  17.662  0.00  0.00    +0.000 C 
BRANCH  22  23
ATOM     23  C   UNL     1       4.386   4.776  17.429  0.00  0.00    +0.000 A 
ATOM     24  C   UNL     1       4.923   4.805  16.130  0.00  0.00    +0.000 A 
ATOM     25  C   UNL     1       6.307   4.757  15.932  0.00  0.00    +0.000 A 
ATOM     26  C   UNL     1       7.169   4.664  17.024  0.00  0.00    +0.000 A 
ATOM     27  C   UNL     1       6.647   4.605  18.314  0.00  0.00    +0.000 A 
ATOM     28  C   UNL     1       5.266   4.656  18.514  0.00  0.00    +0.000 A 
ENDBRANCH  22  23
ENDBRANCH   9  22
TORSDOF 5
ENDMDL
MODEL 8
REMARK VINA RESULT:      -6.6      2.780      6.608
REMARK  Name = 
REMARK  6 active torsions:
REMARK  status: ('A' for Active; 'I' for Inactive)
REMARK    1  A    between atoms: C_1  and  C_2
REMARK    2  A    between atoms: C_2  and  N_3
REMARK    3  A    between atoms: N_3  and  C_4
REMARK    4  A    between atoms: C_4  and  C_5
REMARK    5  A    between atoms: N_17  and  C_18
REMARK    6  A    between atoms: C_18  and  C_19
REMARK                            x       y       z     vdW  Elec       q    Type
REMARK                         _______ _______ _______ _____ _____    ______ ____
ROOT
ATOM      1  C   UNL     1       3.088   3.896  16.475  0.00  0.00    +0.000 C 
ATOM      2  C   UNL     1       3.927   3.127  17.483  0.00  0.00    +0.000 C 
ATOM      3  C   UNL     1       3.390   2.732  18.661  0.00  0.00    +0.000 C 
ATOM      4  C   UNL     1       4.151   2.072  19.744  0.00  0.00    +0.000 C 
ATOM      5  O   UNL     1       5.186   1.438  19.580  0.00  0.00    +0.000 OA
ATOM      6  N   UNL     1       3.590   2.241  20.982  0.00  0.00    +0.000 N 
ATOM      7  C   UNL     1       2.597   3.132  21.304  0.00  0.00    +0.000 C 
ATOM      8  O   UNL     1       2.323   3.329  22.486  0.00  0.00    +0.000 OA
ATOM      9  N   UNL     1       1.941   3.718  20.241  0.00  0.00    +0.000 N 
ATOM     10  C   UNL     1       2.004   3.131  19.000  0.00  0.00    +0.000 C 
ATOM     11  O   UNL     1       1.051   2.959  18.249  0.00  0.00    +0.000 OA
ATOM     12  H   UNL     1       4.084   1.830  21.761  0.00  0.00    +0.000 HD
ENDROOT
BRANCH   2  13
ATOM     13  N   UNL     1       5.282   3.062  17.141  0.00  0.00    +0.000 N 
ATOM     14  H   UNL     1       5.509   2.148  16.747  0.00  0.00    +0.000 HD
BRANCH  13  15
ATOM     15  C   UNL     1       5.896   4.058  16.260  0.00  0.00    +0.000 C 
BRANCH  15  16
ATOM     16  C   UNL     1       6.628   5.059  17.104  0.00  0.00    +0.000 A 
ATOM     17  C   UNL     1       6.821   6.381  16.692  0.00  0.00    +0.000 A 
ATOM     18  C   UNL     1       7.549   7.254  17.496  0.00  0.00    +0.000 A 
ATOM     19  C   UNL     1       8.067   6.778  18.690  0.00  0.00    +0.000 A 
ATOM     20  N   UNL     1       7.902   5.503  19.119  0.00  0.00    +0.000 NA
ATOM     21  C   UNL     1       7.198   4.676  18.313  0.00  0.00    +0.000 A 
ENDBRANCH  15  16
ENDBRANCH  13  15
ENDBRANCH   2  13
BRANCH   9  22
ATOM     22  C   UNL     1       0.873   4.668  20.491  0.00  0.00    +0.000 C 
BRANCH  22  23
ATOM     23  C   UNL     1       1.270   6.082  20.104  0.00  0.00    +0.000 A 
ATOM     24  C   UNL     1       0.956   7.177  20.927  0.00  0.00    +0.000 A 
ATOM     25  C   UNL     1       1.367   8.468  20.582  0.00  0.00    +0.000 A 
ATOM     26  C   UNL     1       2.082   8.684  19.404  0.00  0.00    +0.000 A 
ATOM     27  C   UNL     1       2.374   7.610  18.565  0.00  0.00    +0.000 A 
ATOM     28  C   UNL     1       1.967   6.320  18.911  0.00  0.00    +0.000 A 
ENDBRANCH  22  23
ENDBRANCH   9  22
TORSDOF 5
ENDMDL
MODEL 9
REMARK VINA RESULT:      -6.5      5.148      8.188
REMARK  Name = 
REMARK  6 active torsions:
REMARK  status: ('A' for Active; 'I' for Inactive)
REMARK    1  A    between atoms: C_1  and  C_2
REMARK    2  A    between atoms: C_2  and  N_3
REMARK    3  A    between atoms: N_3  and  C_4
REMARK    4  A    between atoms: C_4  and  C_5
REMARK    5  A    between atoms: N_17  and  C_18
REMARK    6  A    between atoms: C_18  and  C_19
REMARK                            x       y       z     vdW  Elec       q    Type
REMARK                         _______ _______ _______ _____ _____    ______ ____
ROOT
ATOM      1  C   UNL     1       1.846   9.373  17.654  0.00  0.00    +0.000 C 
ATOM      2  C   UNL     1       1.691   8.633  18.973  0.00  0.00    +0.000 C 
ATOM      3  C   UNL     1       0.792   9.056  19.893  0.00  0.00    +0.000 C 
ATOM      4  C   UNL     1       0.641   8.466  21.241  0.00  0.00    +0.000 C 
ATOM      5  O   UNL     1       0.968   7.324  21.542  0.00  0.00    +0.000 OA
ATOM      6  N   UNL     1       0.098   9.331  22.154  0.00  0.00    +0.000 N 
ATOM      7  C   UNL     1      -0.058  10.685  21.990  0.00  0.00    +0.000 C 
ATOM      8  O   UNL     1      -0.369  11.378  22.956  0.00  0.00    +0.000 OA
ATOM      9  N   UNL     1       0.112  11.163  20.707  0.00  0.00    +0.000 N 
ATOM     10  C   UNL     1       0.023  10.297  19.644  0.00  0.00    +0.000 C 
ATOM     11  O   UNL     1      -0.599  10.507  18.610  0.00  0.00    +0.000 OA
ATOM     12  H   UNL     1      -0.005   8.986  23.097  0.00  0.00    +0.000 HD
ENDROOT
BRANCH   2  13
ATOM     13  N   UNL     1       2.667   7.652  19.176  0.00  0.00    +0.000 N 
ATOM     14  H   UNL     1       2.407   7.043  19.953  0.00  0.00    +0.000 HD
BRANCH  13  15
ATOM     15  C   UNL     1       3.106   6.774  18.089  0.00  0.00    +0.000 C 
BRANCH  15  16
ATOM     16  C   UNL     1       2.777   5.358  18.453  0.00  0.00    +0.000 A 
ATOM     17  C   UNL     1       1.716   4.665  17.863  0.00  0.00    +0.000 A 
ATOM     18  C   UNL     1       1.427   3.366  18.274  0.00  0.00    +0.000 A 
ATOM     19  C   UNL     1       2.207   2.798  19.269  0.00  0.00    +0.000 A 
ATOM     20  N   UNL     1       3.241   3.441  19.865  0.00  0.00    +0.000 NA
ATOM     21  C   UNL     1       3.492   4.705  19.451  0.00  0.00    +0.000 A 
ENDBRANCH  15  16
ENDBRANCH  13  15
ENDBRANCH   2  13
BRANCH   9  22
ATOM     22  C   UNL     1      -0.040  12.582  20.443  0.00  0.00    +0.000 C 
BRANCH  22  23
ATOM     23  C   UNL     1       1.248  13.206  19.938  0.00  0.00    +0.000 A 
ATOM     24  C   UNL     1       1.485  13.375  18.563  0.00  0.00    +0.000 A 
ATOM     25  C   UNL     1       2.657  13.994  18.113  0.00  0.00    +0.000 A 
ATOM     26  C   UNL     1       3.611  14.434  19.029  0.00  0.00    +0.000 A 
ATOM     27  C   UNL     1       3.402  14.246  20.393  0.00  0.00    +0.000 A 
ATOM     28  C   UNL     1       2.231  13.633  20.844  0.00  0.00    +0.000 A 
ENDBRANCH  22  23
ENDBRANCH   9  22
TORSDOF 5
ENDMDL
