MODEL 1
REMARK VINA RESULT:      -8.0      0.000      0.000
REMARK  Name = 
REMARK  7 active torsions:
REMARK  status: ('A' for Active; 'I' for Inactive)
REMARK    1  A    between atoms: C_1  and  C_2
REMARK    2  A    between atoms: C_2  and  C_3
REMARK    3  A    between atoms: C_2  and  C_4
REMARK    4  A    between atoms: C_4  and  N_5
REMARK    5  A    between atoms: C_6  and  C_8
REMARK    6  A    between atoms: C_8  and  S_9
REMARK    7  A    between atoms: S_9  and  C_10
REMARK                            x       y       z     vdW  Elec       q    Type
REMARK                         _______ _______ _______ _____ _____    ______ ____
ROOT
ATOM      1  C   UNL     1       5.415   4.645  18.363  0.00  0.00    +0.000 A 
ATOM      2  N   UNL     1       4.546   5.583  18.677  0.00  0.00    +0.000 NA
ATOM      3  C   UNL     1       3.682   4.954  19.546  0.00  0.00    +0.000 A 
ATOM      4  C   UNL     1       2.494   5.433  20.219  0.00  0.00    +0.000 A 
ATOM      5  O   UNL     1       2.026   6.563  20.127  0.00  0.00    +0.000 OA
ATOM      6  N   UNL     1       1.902   4.450  21.007  0.00  0.00    +0.000 N 
ATOM      7  C   UNL     1       2.396   3.172  21.173  0.00  0.00    +0.000 A 
ATOM      8  N   UNL     1       1.712   2.368  22.024  0.00  0.00    +0.000 N 
ATOM      9  N   UNL     1       3.463   2.723  20.563  0.00  0.00    +0.000 NA
ATOM     10  C   UNL     1       4.052   3.650  19.771  0.00  0.00    +0.000 A 
ATOM     11  N   UNL     1       5.164   3.462  19.005  0.00  0.00    +0.000 N 
ATOM     12  H   UNL     1       1.078   4.745  21.505  0.00  0.00    +0.000 HD
ATOM     13  H   UNL     1       0.740   2.553  22.221  0.00  0.00    +0.000 HD
ATOM     14  H   UNL     1       1.954   1.384  21.960  0.00  0.00    +0.000 HD
ATOM     15  H   UNL     1       5.694   2.608  18.911  0.00  0.00    +0.000 HD
ENDROOT
BRANCH   1  16
ATOM     16  S   UNL     1       6.747   4.756  17.271  0.00  0.00    +0.000 S 
BRANCH  16  17
ATOM     17  C   UNL     1       5.956   5.501  15.815  0.00  0.00    +0.000 C 
BRANCH  17  19
ATOM     18  N   UNL     1       5.895   4.089  13.812  0.00  0.00    +0.000 N 
ATOM     19  C   UNL     1       6.639   4.989  14.552  0.00  0.00    +0.000 C 
ATOM     20  O   UNL     1       7.762   5.358  14.215  0.00  0.00    +0.000 OA
ATOM     21  H   UNL     1       4.980   3.813  14.145  0.00  0.00    +0.000 HD
BRANCH  18  22
ATOM     22  C   UNL     1       6.382   3.504  12.573  0.00  0.00    +0.000 C 
BRANCH  22  24
ATOM     23  C   UNL     1       4.301   3.222  11.149  0.00  0.00    +0.000 C 
ATOM     24  C   UNL     1       5.390   2.506  11.952  0.00  0.00    +0.000 C 
ATOM     25  C   UNL     1       6.127   1.518  11.043  0.00  0.00    +0.000 C 
ENDBRANCH  22  24
ENDBRANCH  18  22
ENDBRANCH  17  19
ENDBRANCH  16  17
ENDBRANCH   1  16
TORSDOF 5
ENDMDL
MODEL 2
REMARK VINA RESULT:      -7.9      1.367      1.374
REMARK  Name = 
REMARK  7 active torsions:
REMARK  status: ('A' for Active; 'I' for Inactive)
REMARK    1  A    between atoms: C_1  and  C_2
REMARK    2  A    between atoms: C_2  and  C_3
REMARK    3  A    between atoms: C_2  and  C_4
REMARK    4  A    between atoms: C_4  and  N_5
REMARK    5  A    between atoms: C_6  and  C_8
REMARK    6  A    between atoms: C_8  and  S_9
REMARK    7  A    between atoms: S_9  and  C_10
REMARK                            x       y       z     vdW  Elec       q    Type
REMARK                         _______ _______ _______ _____ _____    ______ ____
ROOT
ATOM      1  C   UNL     1       5.250   4.067  17.674  0.00  0.00    +0.000 A 
ATOM      2  N   UNL     1       4.063   4.269  17.143  0.00  0.00    +0.000 NA
ATOM      3  C   UNL     1       3.189   3.887  18.139  0.00  0.00    +0.000 A 
ATOM      4  C   UNL     1       1.743   3.839  18.167  0.00  0.00    +0.000 A 
ATOM      5  O   UNL     1       0.998   4.157  17.246  0.00  0.00    +0.000 OA
ATOM      6  N   UNL     1       1.255   3.369  19.384  0.00  0.00    +0.000 N 
ATOM      7  C   UNL     1       2.041   3.023  20.464  0.00  0.00    +0.000 A 
ATOM      8  N   UNL     1       1.384   2.638  21.587  0.00  0.00    +0.000 N 
ATOM      9  N   UNL     1       3.349   3.053  20.449  0.00  0.00    +0.000 NA
ATOM     10  C   UNL     1       3.857   3.486  19.271  0.00  0.00    +0.000 A 
ATOM     11  N   UNL     1       5.179   3.603  18.960  0.00  0.00    +0.000 N 
ATOM     12  H   UNL     1       0.252   3.332  19.452  0.00  0.00    +0.000 HD
ATOM     13  H   UNL     1       0.442   2.280  21.522  0.00  0.00    +0.000 HD
ATOM     14  H   UNL     1       1.967   2.181  22.280  0.00  0.00    +0.000 HD
ATOM     15  H   UNL     1       5.960   3.374  19.556  0.00  0.00    +0.000 HD
ENDROOT
BRANCH   1  16
ATOM     16  S   UNL     1       6.794   4.303  16.938  0.00  0.00    +0.000 S 
BRANCH  16  17
ATOM     17  C   UNL     1       6.408   5.567  15.692  0.00  0.00    +0.000 C 
BRANCH  17  19
ATOM     18  N   UNL     1       6.175   4.037  13.792  0.00  0.00    +0.000 N 
ATOM     19  C   UNL     1       6.889   5.094  14.326  0.00  0.00    +0.000 C 
ATOM     20  O   UNL     1       7.833   5.620  13.741  0.00  0.00    +0.000 OA
ATOM     21  H   UNL     1       5.414   3.637  14.325  0.00  0.00    +0.000 HD
BRANCH  18  22
ATOM     22  C   UNL     1       6.485   3.460  12.494  0.00  0.00    +0.000 C 
BRANCH  22  24
ATOM     23  C   UNL     1       4.316   3.278  11.190  0.00  0.00    +0.000 C 
ATOM     24  C   UNL     1       5.385   2.518  11.979  0.00  0.00    +0.000 C 
ATOM     25  C   UNL     1       5.990   1.424  11.094  0.00  0.00    +0.000 C 
ENDBRANCH  22  24
ENDBRANCH  18  22
ENDBRANCH  17  19
ENDBRANCH  16  17
ENDBRANCH   1  16
TORSDOF 5
ENDMDL
MODEL 3
REMARK VINA RESULT:      -7.9      3.096      6.756
REMARK  Name = 
REMARK  7 active torsions:
REMARK  status: ('A' for Active; 'I' for Inactive)
REMARK    1  A    between atoms: C_1  and  C_2
REMARK    2  A    between atoms: C_2  and  C_3
REMARK    3  A    between atoms: C_2  and  C_4
REMARK    4  A    between atoms: C_4  and  N_5
REMARK    5  A    between atoms: C_6  and  C_8
REMARK    6  A    between atoms: C_8  and  S_9
REMARK    7  A    between atoms: S_9  and  C_10
REMARK                            x       y       z     vdW  Elec       q    Type
REMARK                         _______ _______ _______ _____ _____    ______ ____
ROOT
ATOM      1  C   UNL     1       4.362   3.310  18.707  0.00  0.00    +0.000 A 
ATOM      2  N   UNL     1       5.354   4.001  19.226  0.00  0.00    +0.000 NA
ATOM      3  C   UNL     1       6.067   4.431  18.128  0.00  0.00    +0.000 A 
ATOM      4  C   UNL     1       7.285   5.205  18.028  0.00  0.00    +0.000 A 
ATOM      5  O   UNL     1       7.932   5.646  18.972  0.00  0.00    +0.000 OA
ATOM      6  N   UNL     1       7.676   5.405  16.707  0.00  0.00    +0.000 N 
ATOM      7  C   UNL     1       6.975   4.960  15.604  0.00  0.00    +0.000 A 
ATOM      8  N   UNL     1       7.483   5.297  14.392  0.00  0.00    +0.000 N 
ATOM      9  N   UNL     1       5.879   4.250  15.680  0.00  0.00    +0.000 NA
ATOM     10  C   UNL     1       5.482   4.020  16.954  0.00  0.00    +0.000 A 
ATOM     11  N   UNL     1       4.390   3.299  17.337  0.00  0.00    +0.000 N 
ATOM     12  H   UNL     1       8.513   5.951  16.591  0.00  0.00    +0.000 HD
ATOM     13  H   UNL     1       8.462   5.522  14.301  0.00  0.00    +0.000 HD
ATOM     14  H   UNL     1       7.089   4.780  13.613  0.00  0.00    +0.000 HD
ATOM     15  H   UNL     1       3.735   2.829  16.731  0.00  0.00    +0.000 HD
ENDROOT
BRANCH   1  16
ATOM     16  S   UNL     1       3.115   2.455  19.540  0.00  0.00    +0.000 S 
BRANCH  16  17
ATOM     17  C   UNL     1       2.828   3.541  20.968  0.00  0.00    +0.000 C 
BRANCH  17  19
ATOM     18  N   UNL     1       2.834   5.895  20.282  0.00  0.00    +0.000 N 
ATOM     19  C   UNL     1       2.057   4.775  20.516  0.00  0.00    +0.000 C 
ATOM     20  O   UNL     1       0.837   4.770  20.362  0.00  0.00    +0.000 OA
ATOM     21  H   UNL     1       3.833   5.842  20.437  0.00  0.00    +0.000 HD
BRANCH  18  22
ATOM     22  C   UNL     1       2.272   7.159  19.836  0.00  0.00    +0.000 C 
BRANCH  22  24
ATOM     23  C   UNL     1       1.834   8.712  17.878  0.00  0.00    +0.000 C 
ATOM     24  C   UNL     1       2.282   7.312  18.307  0.00  0.00    +0.000 C 
ATOM     25  C   UNL     1       3.682   7.033  17.752  0.00  0.00    +0.000 C 
ENDBRANCH  22  24
ENDBRANCH  18  22
ENDBRANCH  17  19
ENDBRANCH  16  17
ENDBRANCH   1  16
TORSDOF 5
ENDMDL
MODEL 4
REMARK VINA RESULT:      -7.6      1.723      1.765
REMARK  Name = 
REMARK  7 active torsions:
REMARK  status: ('A' for Active; 'I' for Inactive)
REMARK    1  A    between atoms: C_1  and  C_2
REMARK    2  A    between atoms: C_2  and  C_3
REMARK    3  A    between atoms: C_2  and  C_4
REMARK    4  A    between atoms: C_4  and  N_5
REMARK    5  A    between atoms: C_6  and  C_8
REMARK    6  A    between atoms: C_8  and  S_9
REMARK    7  A    between atoms: S_9  and  C_10
REMARK                            x       y       z     vdW  Elec       q    Type
REMARK                         _______ _______ _______ _____ _____    ______ ____
ROOT
ATOM      1  C   UNL     1       4.341   5.587  17.206  0.00  0.00    +0.000 A 
ATOM      2  N   UNL     1       3.803   5.979  18.341  0.00  0.00    +0.000 NA
ATOM      3  C   UNL     1       2.880   4.995  18.625  0.00  0.00    +0.000 A 
ATOM      4  C   UNL     1       1.941   4.860  19.718  0.00  0.00    +0.000 A 
ATOM      5  O   UNL     1       1.803   5.651  20.645  0.00  0.00    +0.000 OA
ATOM      6  N   UNL     1       1.172   3.705  19.611  0.00  0.00    +0.000 N 
ATOM      7  C   UNL     1       1.301   2.764  18.610  0.00  0.00    +0.000 A 
ATOM      8  N   UNL     1       0.499   1.673  18.701  0.00  0.00    +0.000 N 
ATOM      9  N   UNL     1       2.138   2.879  17.611  0.00  0.00    +0.000 NA
ATOM     10  C   UNL     1       2.889   4.004  17.674  0.00  0.00    +0.000 A 
ATOM     11  N   UNL     1       3.828   4.395  16.766  0.00  0.00    +0.000 N 
ATOM     12  H   UNL     1       0.513   3.564  20.359  0.00  0.00    +0.000 HD
ATOM     13  H   UNL     1      -0.359   1.722  19.229  0.00  0.00    +0.000 HD
ATOM     14  H   UNL     1       0.449   1.116  17.855  0.00  0.00    +0.000 HD
ATOM     15  H   UNL     1       4.086   3.911  15.919  0.00  0.00    +0.000 HD
ENDROOT
BRANCH   1  16
ATOM     16  S   UNL     1       5.545   6.393  16.268  0.00  0.00    +0.000 S 
BRANCH  16  17
ATOM     17  C   UNL     1       6.777   5.075  16.057  0.00  0.00    +0.000 C 
BRANCH  17  19
ATOM     18  N   UNL     1       6.258   3.982  13.926  0.00  0.00    +0.000 N 
ATOM     19  C   UNL     1       7.072   4.893  14.574  0.00  0.00    +0.000 C 
ATOM     20  O   UNL     1       7.960   5.517  13.997  0.00  0.00    +0.000 OA
ATOM     21  H   UNL     1       5.551   3.489  14.455  0.00  0.00    +0.000 HD
BRANCH  18  22
ATOM     22  C   UNL     1       6.388   3.687  12.508  0.00  0.00    +0.000 C 
BRANCH  22  24
ATOM     23  C   UNL     1       4.252   3.184  11.233  0.00  0.00    +0.000 C 
ATOM     24  C   UNL     1       5.417   2.594  12.032  0.00  0.00    +0.000 C 
ATOM     25  C   UNL     1       6.155   1.563  11.172  0.00  0.00    +0.000 C 
ENDBRANCH  22  24
ENDBRANCH  18  22
ENDBRANCH  17  19
ENDBRANCH  16  17
ENDBRANCH   1  16
TORSDOF 5
ENDMDL
MODEL 5
REMARK VINA RESULT:      -7.6      3.615      6.764
REMARK  Name = 
REMARK  7 active torsions:
REMARK  status: ('A' for Active; 'I' for Inactive)
REMARK    1  A    between atoms: C_1  and  C_2
REMARK    2  A    between atoms: C_2  and  C_3
REMARK    3  A    between atoms: C_2  and  C_4
REMARK    4  A    between atoms: C_4  and  N_5
REMARK    5  A    between atoms: C_6  and  C_8
REMARK    6  A    between atoms: C_8  and  S_9
REMARK    7  A    between atoms: S_9  and  C_10
REMARK                            x       y       z     vdW  Elec       q    Type
REMARK                         _______ _______ _______ _____ _____    ______ ____
ROOT
ATOM      1  C   UNL     1       4.287   3.197  18.004  0.00  0.00    +0.000 A 
ATOM      2  N   UNL     1       4.220   4.087  17.038  0.00  0.00    +0.000 NA
ATOM      3  C   UNL     1       5.227   4.978  17.341  0.00  0.00    +0.000 A 
ATOM      4  C   UNL     1       5.647   6.197  16.684  0.00  0.00    +0.000 A 
ATOM      5  O   UNL     1       5.146   6.674  15.672  0.00  0.00    +0.000 OA
ATOM      6  N   UNL     1       6.712   6.809  17.340  0.00  0.00    +0.000 N 
ATOM      7  C   UNL     1       7.335   6.307  18.465  0.00  0.00    +0.000 A 
ATOM      8  N   UNL     1       8.393   7.015  18.933  0.00  0.00    +0.000 N 
ATOM      9  N   UNL     1       6.959   5.212  19.074  0.00  0.00    +0.000 NA
ATOM     10  C   UNL     1       5.911   4.602  18.472  0.00  0.00    +0.000 A 
ATOM     11  N   UNL     1       5.297   3.459  18.891  0.00  0.00    +0.000 N 
ATOM     12  H   UNL     1       7.046   7.655  16.909  0.00  0.00    +0.000 HD
ATOM     13  H   UNL     1       8.480   7.996  18.714  0.00  0.00    +0.000 HD
ATOM     14  H   UNL     1       8.689   6.760  19.870  0.00  0.00    +0.000 HD
ATOM     15  H   UNL     1       5.529   2.916  19.710  0.00  0.00    +0.000 HD
ENDROOT
BRANCH   1  16
ATOM     16  S   UNL     1       3.271   1.823  18.253  0.00  0.00    +0.000 S 
BRANCH  16  17
ATOM     17  C   UNL     1       1.625   2.593  18.269  0.00  0.00    +0.000 C 
BRANCH  17  19
ATOM     18  N   UNL     1       1.906   4.775  19.350  0.00  0.00    +0.000 N 
ATOM     19  C   UNL     1       1.489   3.467  19.510  0.00  0.00    +0.000 C 
ATOM     20  O   UNL     1       1.031   3.041  20.569  0.00  0.00    +0.000 OA
ATOM     21  H   UNL     1       2.285   5.066  18.458  0.00  0.00    +0.000 HD
BRANCH  18  22
ATOM     22  C   UNL     1       1.840   5.755  20.422  0.00  0.00    +0.000 C 
BRANCH  22  24
ATOM     23  C   UNL     1       2.420   7.270  18.471  0.00  0.00    +0.000 C 
ATOM     24  C   UNL     1       2.337   7.145  19.995  0.00  0.00    +0.000 C 
ATOM     25  C   UNL     1       1.411   8.234  20.545  0.00  0.00    +0.000 C 
ENDBRANCH  22  24
ENDBRANCH  18  22
ENDBRANCH  17  19
ENDBRANCH  16  17
ENDBRANCH   1  16
TORSDOF 5
ENDMDL
MODEL 6
REMARK VINA RESULT:      -7.6      0.983      1.327
REMARK  Name = 
REMARK  7 active torsions:
REMARK  status: ('A' for Active; 'I' for Inactive)
REMARK    1  A    between atoms: C_1  and  C_2
REMARK    2  A    between atoms: C_2  and  C_3
REMARK    3  A    between atoms: C_2  and  C_4
REMARK    4  A    between atoms: C_4  and  N_5
REMARK    5  A    between atoms: C_6  and  C_8
REMARK    6  A    between atoms: C_8  and  S_9
REMARK    7  A    between atoms: S_9  and  C_10
REMARK                            x       y       z     vdW  Elec       q    Type
REMARK                         _______ _______ _______ _____ _____    ______ ____
ROOT
ATOM      1  C   UNL     1       5.697   4.551  18.682  0.00  0.00    +0.000 A 
ATOM      2  N   UNL     1       4.830   5.522  18.872  0.00  0.00    +0.000 NA
ATOM      3  C   UNL     1       3.845   4.938  19.639  0.00  0.00    +0.000 A 
ATOM      4  C   UNL     1       2.600   5.468  20.153  0.00  0.00    +0.000 A 
ATOM      5  O   UNL     1       2.186   6.610  19.986  0.00  0.00    +0.000 OA
ATOM      6  N   UNL     1       1.883   4.520  20.878  0.00  0.00    +0.000 N 
ATOM      7  C   UNL     1       2.310   3.231  21.124  0.00  0.00    +0.000 A 
ATOM      8  N   UNL     1       1.501   2.466  21.898  0.00  0.00    +0.000 N 
ATOM      9  N   UNL     1       3.428   2.736  20.657  0.00  0.00    +0.000 NA
ATOM     10  C   UNL     1       4.141   3.628  19.929  0.00  0.00    +0.000 A 
ATOM     11  N   UNL     1       5.330   3.389  19.308  0.00  0.00    +0.000 N 
ATOM     12  H   UNL     1       1.016   4.851  21.266  0.00  0.00    +0.000 HD
ATOM     13  H   UNL     1       0.518   2.686  21.972  0.00  0.00    +0.000 HD
ATOM     14  H   UNL     1       1.715   1.474  21.880  0.00  0.00    +0.000 HD
ATOM     15  H   UNL     1       5.838   2.518  19.293  0.00  0.00    +0.000 HD
ENDROOT
BRANCH   1  16
ATOM     16  S   UNL     1       7.156   4.598  17.761  0.00  0.00    +0.000 S 
BRANCH  16  17
ATOM     17  C   UNL     1       6.931   6.130  16.810  0.00  0.00    +0.000 C 
BRANCH  17  19
ATOM     18  N   UNL     1       6.196   4.610  15.033  0.00  0.00    +0.000 N 
ATOM     19  C   UNL     1       6.028   5.854  15.614  0.00  0.00    +0.000 C 
ATOM     20  O   UNL     1       5.206   6.672  15.206  0.00  0.00    +0.000 OA
ATOM     21  H   UNL     1       6.896   3.982  15.406  0.00  0.00    +0.000 HD
BRANCH  18  22
ATOM     22  C   UNL     1       5.414   4.169  13.890  0.00  0.00    +0.000 C 
BRANCH  22  24
ATOM     23  C   UNL     1       5.391   2.795  11.757  0.00  0.00    +0.000 C 
ATOM     24  C   UNL     1       6.265   3.473  12.815  0.00  0.00    +0.000 C 
ATOM     25  C   UNL     1       7.197   4.482  12.136  0.00  0.00    +0.000 C 
ENDBRANCH  22  24
ENDBRANCH  18  22
ENDBRANCH  17  19
ENDBRANCH  16  17
ENDBRANCH   1  16
TORSDOF 5
ENDMDL
MODEL 7
REMARK VINA RESULT:      -7.5      1.839      2.067
REMARK  Name = 
REMARK  7 active torsions:
REMARK  status: ('A' for Active; 'I' for Inactive)
REMARK    1  A    between atoms: C_1  and  C_2
REMARK    2  A    between atoms: C_2  and  C_3
REMARK    3  A    between atoms: C_2  and  C_4
REMARK    4  A    between atoms: C_4  and  N_5
REMARK    5  A    between atoms: C_6  and  C_8
REMARK    6  A    between atoms: C_8  and  S_9
REMARK    7  A    between atoms: S_9  and  C_10
REMARK                            x       y       z     vdW  Elec       q    Type
REMARK                         _______ _______ _______ _____ _____    ______ ____
ROOT
ATOM      1  C   UNL     1       5.514   4.079  17.970  0.00  0.00    +0.000 A 
ATOM      2  N   UNL     1       5.375   3.673  19.214  0.00  0.00    +0.000 NA
ATOM      3  C   UNL     1       4.094   3.165  19.253  0.00  0.00    +0.000 A 
ATOM      4  C   UNL     1       3.329   2.597  20.342  0.00  0.00    +0.000 A 
ATOM      5  O   UNL     1       3.721   2.457  21.495  0.00  0.00    +0.000 OA
ATOM      6  N   UNL     1       2.050   2.216  19.945  0.00  0.00    +0.000 N 
ATOM      7  C   UNL     1       1.562   2.322  18.658  0.00  0.00    +0.000 A 
ATOM      8  N   UNL     1       0.309   1.848  18.448  0.00  0.00    +0.000 N 
ATOM      9  N   UNL     1       2.240   2.843  17.667  0.00  0.00    +0.000 NA
ATOM     10  C   UNL     1       3.483   3.243  18.025  0.00  0.00    +0.000 A 
ATOM     11  N   UNL     1       4.402   3.834  17.210  0.00  0.00    +0.000 N 
ATOM     12  H   UNL     1       1.487   1.802  20.669  0.00  0.00    +0.000 HD
ATOM     13  H   UNL     1      -0.337   1.774  19.220  0.00  0.00    +0.000 HD
ATOM     14  H   UNL     1      -0.108   2.135  17.569  0.00  0.00    +0.000 HD
ATOM     15  H   UNL     1       4.283   4.065  16.235  0.00  0.00    +0.000 HD
ENDROOT
BRANCH   1  16
ATOM     16  S   UNL     1       6.878   4.860  17.257  0.00  0.00    +0.000 S 
BRANCH  16  17
ATOM     17  C   UNL     1       6.121   5.649  15.805  0.00  0.00    +0.000 C 
BRANCH  17  19
ATOM     18  N   UNL     1       5.977   4.216  13.822  0.00  0.00    +0.000 N 
ATOM     19  C   UNL     1       6.764   5.098  14.539  0.00  0.00    +0.000 C 
ATOM     20  O   UNL     1       7.893   5.424  14.178  0.00  0.00    +0.000 OA
ATOM     21  H   UNL     1       5.059   3.977  14.173  0.00  0.00    +0.000 HD
BRANCH  18  22
ATOM     22  C   UNL     1       6.422   3.600  12.582  0.00  0.00    +0.000 C 
BRANCH  22  24
ATOM     23  C   UNL     1       4.294   3.211  11.255  0.00  0.00    +0.000 C 
ATOM     24  C   UNL     1       5.431   2.555  12.044  0.00  0.00    +0.000 C 
ATOM     25  C   UNL     1       6.155   1.545  11.148  0.00  0.00    +0.000 C 
ENDBRANCH  22  24
ENDBRANCH  18  22
ENDBRANCH  17  19
ENDBRANCH  16  17
ENDBRANCH   1  16
TORSDOF 5
ENDMDL
MODEL 8
REMARK VINA RESULT:      -7.5      1.763      2.212
REMARK  Name = 
REMARK  7 active torsions:
REMARK  status: ('A' for Active; 'I' for Inactive)
REMARK    1  A    between atoms: C_1  and  C_2
REMARK    2  A    between atoms: C_2  and  C_3
REMARK    3  A    between atoms: C_2  and  C_4
REMARK    4  A    between atoms: C_4  and  N_5
REMARK    5  A    between atoms: C_6  and  C_8
REMARK    6  A    between atoms: C_8  and  S_9
REMARK    7  A    between atoms: S_9  and  C_10
REMARK                            x       y       z     vdW  Elec       q    Type
REMARK                         _______ _______ _______ _____ _____    ______ ____
ROOT
ATOM      1  C   UNL     1       4.596   4.792  17.233  0.00  0.00    +0.000 A 
ATOM      2  N   UNL     1       5.157   3.911  18.033  0.00  0.00    +0.000 NA
ATOM      3  C   UNL     1       4.137   3.539  18.882  0.00  0.00    +0.000 A 
ATOM      4  C   UNL     1       4.119   2.628  20.006  0.00  0.00    +0.000 A 
ATOM      5  O   UNL     1       5.076   1.982  20.418  0.00  0.00    +0.000 OA
ATOM      6  N   UNL     1       2.865   2.556  20.606  0.00  0.00    +0.000 N 
ATOM      7  C   UNL     1       1.745   3.235  20.171  0.00  0.00    +0.000 A 
ATOM      8  N   UNL     1       0.595   2.997  20.850  0.00  0.00    +0.000 N 
ATOM      9  N   UNL     1       1.750   4.069  19.163  0.00  0.00    +0.000 NA
ATOM     10  C   UNL     1       2.961   4.178  18.569  0.00  0.00    +0.000 A 
ATOM     11  N   UNL     1       3.268   4.982  17.511  0.00  0.00    +0.000 N 
ATOM     12  H   UNL     1       2.804   1.922  21.385  0.00  0.00    +0.000 HD
ATOM     13  H   UNL     1       0.632   2.656  21.799  0.00  0.00    +0.000 HD
ATOM     14  H   UNL     1      -0.149   3.662  20.663  0.00  0.00    +0.000 HD
ATOM     15  H   UNL     1       2.643   5.613  17.032  0.00  0.00    +0.000 HD
ENDROOT
BRANCH   1  16
ATOM     16  S   UNL     1       5.335   5.688  15.957  0.00  0.00    +0.000 S 
BRANCH  16  17
ATOM     17  C   UNL     1       6.854   4.730  15.680  0.00  0.00    +0.000 C 
BRANCH  17  19
ATOM     18  N   UNL     1       6.590   3.823  13.418  0.00  0.00    +0.000 N 
ATOM     19  C   UNL     1       7.217   4.776  14.201  0.00  0.00    +0.000 C 
ATOM     20  O   UNL     1       7.998   5.605  13.739  0.00  0.00    +0.000 OA
ATOM     21  H   UNL     1       5.965   3.159  13.856  0.00  0.00    +0.000 HD
BRANCH  18  22
ATOM     22  C   UNL     1       6.807   3.722  11.984  0.00  0.00    +0.000 C 
BRANCH  22  24
ATOM     23  C   UNL     1       5.984   1.383  11.446  0.00  0.00    +0.000 C 
ATOM     24  C   UNL     1       5.733   2.884  11.273  0.00  0.00    +0.000 C 
ATOM     25  C   UNL     1       4.342   3.232  11.811  0.00  0.00    +0.000 C 
ENDBRANCH  22  24
ENDBRANCH  18  22
ENDBRANCH  17  19
ENDBRANCH  16  17
ENDBRANCH   1  16
TORSDOF 5
ENDMDL
MODEL 9
REMARK VINA RESULT:      -7.4      3.158      6.806
REMARK  Name = 
REMARK  7 active torsions:
REMARK  status: ('A' for Active; 'I' for Inactive)
REMARK    1  A    between atoms: C_1  and  C_2
REMARK    2  A    between atoms: C_2  and  C_3
REMARK    3  A    between atoms: C_2  and  C_4
REMARK    4  A    between atoms: C_4  and  N_5
REMARK    5  A    between atoms: C_6  and  C_8
REMARK    6  A    between atoms: C_8  and  S_9
REMARK    7  A    between atoms: S_9  and  C_10
REMARK                            x       y       z     vdW  Elec       q    Type
REMARK                         _______ _______ _______ _____ _____    ______ ____
ROOT
ATOM      1  C   UNL     1       4.876   3.526  18.925  0.00  0.00    +0.000 A 
ATOM      2  N   UNL     1       5.680   4.512  19.260  0.00  0.00    +0.000 NA
ATOM      3  C   UNL     1       6.258   4.885  18.065  0.00  0.00    +0.000 A 
ATOM      4  C   UNL     1       7.256   5.889  17.765  0.00  0.00    +0.000 A 
ATOM      5  O   UNL     1       7.788   6.635  18.579  0.00  0.00    +0.000 OA
ATOM      6  N   UNL     1       7.574   5.926  16.410  0.00  0.00    +0.000 N 
ATOM      7  C   UNL     1       6.990   5.133  15.443  0.00  0.00    +0.000 A 
ATOM      8  N   UNL     1       7.390   5.349  14.165  0.00  0.00    +0.000 N 
ATOM      9  N   UNL     1       6.095   4.214  15.703  0.00  0.00    +0.000 NA
ATOM     10  C   UNL     1       5.777   4.139  17.017  0.00  0.00    +0.000 A 
ATOM     11  N   UNL     1       4.893   3.268  17.580  0.00  0.00    +0.000 N 
ATOM     12  H   UNL     1       8.256   6.621  16.153  0.00  0.00    +0.000 HD
ATOM     13  H   UNL     1       8.286   5.774  13.982  0.00  0.00    +0.000 HD
ATOM     14  H   UNL     1       7.123   4.619  13.512  0.00  0.00    +0.000 HD
ATOM     15  H   UNL     1       4.362   2.554  17.103  0.00  0.00    +0.000 HD
ENDROOT
BRANCH   1  16
ATOM     16  S   UNL     1       3.877   2.574  19.963  0.00  0.00    +0.000 S 
BRANCH  16  17
ATOM     17  C   UNL     1       2.613   3.783  20.452  0.00  0.00    +0.000 C 
BRANCH  17  19
ATOM     18  N   UNL     1       2.620   5.950  19.306  0.00  0.00    +0.000 N 
ATOM     19  C   UNL     1       2.227   4.626  19.243  0.00  0.00    +0.000 C 
ATOM     20  O   UNL     1       1.621   4.159  18.280  0.00  0.00    +0.000 OA
ATOM     21  H   UNL     1       3.108   6.281  20.129  0.00  0.00    +0.000 HD
BRANCH  18  22
ATOM     22  C   UNL     1       2.347   6.899  18.239  0.00  0.00    +0.000 C 
BRANCH  22  24
ATOM     23  C   UNL     1       1.364   9.195  17.789  0.00  0.00    +0.000 C 
ATOM     24  C   UNL     1       2.205   8.344  18.745  0.00  0.00    +0.000 C 
ATOM     25  C   UNL     1       1.567   8.361  20.137  0.00  0.00    +0.000 C 
ENDBRANCH  22  24
ENDBRANCH  18  22
ENDBRANCH  17  19
ENDBRANCH  16  17
ENDBRANCH   1  16
TORSDOF 5
ENDMDL
