MODEL 1
REMARK VINA RESULT:      -6.3      0.000      0.000
REMARK  Name = 
REMARK  2 active torsions:
REMARK  status: ('A' for Active; 'I' for Inactive)
REMARK    1  A    between atoms: C_1  and  C_2
REMARK    2  A    between atoms: C_9  and  N_10
REMARK                            x       y       z     vdW  Elec       q    Type
REMARK                         _______ _______ _______ _____ _____    ______ ____
ROOT
ATOM      1  C   UNL     1       2.187   7.418  19.710  0.00  0.00    +0.000 C 
ATOM      2  C   UNL     1       2.441   5.936  19.651  0.00  0.00    +0.000 A 
ATOM      3  C   UNL     1       1.845   5.107  20.603  0.00  0.00    +0.000 A 
ATOM      4  C   UNL     1       2.085   3.750  20.527  0.00  0.00    +0.000 A 
ATOM      5 CL   UNL     1       1.420   2.676  21.688  0.00  0.00    +0.000 Cl
ATOM      6  N   UNL     1       2.847   3.158  19.588  0.00  0.00    +0.000 NA
ATOM      7  C   UNL     1       3.435   3.949  18.676  0.00  0.00    +0.000 A 
ATOM      8  C   UNL     1       4.253   3.356  17.720  0.00  0.00    +0.000 A 
ATOM      9  C   UNL     1       4.915   4.098  16.737  0.00  0.00    +0.000 A 
ATOM     10  C   UNL     1       4.803   5.483  16.764  0.00  0.00    +0.000 A 
ATOM     11  C   UNL     1       3.967   6.105  17.693  0.00  0.00    +0.000 A 
ATOM     12  C   UNL     1       3.273   5.353  18.662  0.00  0.00    +0.000 A 
ENDROOT
BRANCH   9  13
ATOM     13  N   UNL     1       5.858   3.487  15.903  0.00  0.00    +0.000 N 
ATOM     14  H   UNL     1       5.469   2.782  15.283  0.00  0.00    +0.000 HD
ATOM     15  H   UNL     1       6.470   4.134  15.415  0.00  0.00    +0.000 HD
ENDBRANCH   9  13
TORSDOF 1
ENDMDL
MODEL 2
REMARK VINA RESULT:      -6.3      2.845      4.268
REMARK  Name = 
REMARK  2 active torsions:
REMARK  status: ('A' for Active; 'I' for Inactive)
REMARK    1  A    between atoms: C_1  and  C_2
REMARK    2  A    between atoms: C_9  and  N_10
REMARK                            x       y       z     vdW  Elec       q    Type
REMARK                         _______ _______ _______ _____ _____    ______ ____
ROOT
ATOM      1  C   UNL     1       3.290   7.737  17.791  0.00  0.00    +0.000 C 
ATOM      2  C   UNL     1       3.810   6.396  17.349  0.00  0.00    +0.000 A 
ATOM      3  C   UNL     1       4.922   6.343  16.506  0.00  0.00    +0.000 A 
ATOM      4  C   UNL     1       5.386   5.103  16.119  0.00  0.00    +0.000 A 
ATOM      5 CL   UNL     1       6.723   4.962  15.052  0.00  0.00    +0.000 Cl
ATOM      6  N   UNL     1       4.851   3.929  16.503  0.00  0.00    +0.000 NA
ATOM      7  C   UNL     1       3.773   3.971  17.302  0.00  0.00    +0.000 A 
ATOM      8  C   UNL     1       3.187   2.767  17.681  0.00  0.00    +0.000 A 
ATOM      9  C   UNL     1       2.056   2.710  18.502  0.00  0.00    +0.000 A 
ATOM     10  C   UNL     1       1.460   3.903  18.893  0.00  0.00    +0.000 A 
ATOM     11  C   UNL     1       2.041   5.126  18.553  0.00  0.00    +0.000 A 
ATOM     12  C   UNL     1       3.200   5.182  17.754  0.00  0.00    +0.000 A 
ENDROOT
BRANCH   9  13
ATOM     13  N   UNL     1       1.400   1.494  18.721  0.00  0.00    +0.000 N 
ATOM     14  H   UNL     1       0.407   1.513  18.508  0.00  0.00    +0.000 HD
ATOM     15  H   UNL     1       1.865   0.686  18.316  0.00  0.00    +0.000 HD
ENDBRANCH   9  13
TORSDOF 1
ENDMDL
MODEL 3
REMARK VINA RESULT:      -6.2      2.763      4.555
REMARK  Name = 
REMARK  2 active torsions:
REMARK  status: ('A' for Active; 'I' for Inactive)
REMARK    1  A    between atoms: C_1  and  C_2
REMARK    2  A    between atoms: C_9  and  N_10
REMARK                            x       y       z     vdW  Elec       q    Type
REMARK                         _______ _______ _______ _____ _____    ______ ____
ROOT
ATOM      1  C   UNL     1       5.164   4.052  15.451  0.00  0.00    +0.000 C 
ATOM      2  C   UNL     1       5.176   4.429  16.907  0.00  0.00    +0.000 A 
ATOM      3  C   UNL     1       6.364   4.884  17.480  0.00  0.00    +0.000 A 
ATOM      4  C   UNL     1       6.351   5.233  18.816  0.00  0.00    +0.000 A 
ATOM      5 CL   UNL     1       7.784   5.761  19.597  0.00  0.00    +0.000 Cl
ATOM      6  N   UNL     1       5.268   5.176  19.612  0.00  0.00    +0.000 NA
ATOM      7  C   UNL     1       4.124   4.726  19.072  0.00  0.00    +0.000 A 
ATOM      8  C   UNL     1       3.002   4.630  19.891  0.00  0.00    +0.000 A 
ATOM      9  C   UNL     1       1.771   4.164  19.422  0.00  0.00    +0.000 A 
ATOM     10  C   UNL     1       1.688   3.716  18.109  0.00  0.00    +0.000 A 
ATOM     11  C   UNL     1       2.787   3.827  17.255  0.00  0.00    +0.000 A 
ATOM     12  C   UNL     1       4.019   4.329  17.720  0.00  0.00    +0.000 A 
ENDROOT
BRANCH   9  13
ATOM     13  N   UNL     1       0.719   3.923  20.312  0.00  0.00    +0.000 N 
ATOM     14  H   UNL     1       0.950   4.099  21.286  0.00  0.00    +0.000 HD
ATOM     15  H   UNL     1      -0.165   4.346  20.044  0.00  0.00    +0.000 HD
ENDBRANCH   9  13
TORSDOF 1
ENDMDL
MODEL 4
REMARK VINA RESULT:      -6.2      2.387      4.195
REMARK  Name = 
REMARK  2 active torsions:
REMARK  status: ('A' for Active; 'I' for Inactive)
REMARK    1  A    between atoms: C_1  and  C_2
REMARK    2  A    between atoms: C_9  and  N_10
REMARK                            x       y       z     vdW  Elec       q    Type
REMARK                         _______ _______ _______ _____ _____    ______ ____
ROOT
ATOM      1  C   UNL     1       3.036   7.634  17.862  0.00  0.00    +0.000 C 
ATOM      2  C   UNL     1       3.532   6.217  17.953  0.00  0.00    +0.000 A 
ATOM      3  C   UNL     1       4.401   5.738  16.971  0.00  0.00    +0.000 A 
ATOM      4  C   UNL     1       4.850   4.437  17.077  0.00  0.00    +0.000 A 
ATOM      5 CL   UNL     1       5.887   3.768  15.885  0.00  0.00    +0.000 Cl
ATOM      6  N   UNL     1       4.519   3.590  18.069  0.00  0.00    +0.000 NA
ATOM      7  C   UNL     1       3.672   4.038  19.010  0.00  0.00    +0.000 A 
ATOM      8  C   UNL     1       3.293   3.164  20.025  0.00  0.00    +0.000 A 
ATOM      9  C   UNL     1       2.409   3.536  21.042  0.00  0.00    +0.000 A 
ATOM     10  C   UNL     1       1.838   4.802  20.994  0.00  0.00    +0.000 A 
ATOM     11  C   UNL     1       2.220   5.711  20.006  0.00  0.00    +0.000 A 
ATOM     12  C   UNL     1       3.138   5.346  19.000  0.00  0.00    +0.000 A 
ENDROOT
BRANCH   9  13
ATOM     13  N   UNL     1       1.923   2.581  21.943  0.00  0.00    +0.000 N 
ATOM     14  H   UNL     1       1.011   2.206  21.698  0.00  0.00    +0.000 HD
ATOM     15  H   UNL     1       2.588   1.852  22.183  0.00  0.00    +0.000 HD
ENDBRANCH   9  13
TORSDOF 1
ENDMDL
MODEL 5
REMARK VINA RESULT:      -6.2      1.556      1.749
REMARK  Name = 
REMARK  2 active torsions:
REMARK  status: ('A' for Active; 'I' for Inactive)
REMARK    1  A    between atoms: C_1  and  C_2
REMARK    2  A    between atoms: C_9  and  N_10
REMARK                            x       y       z     vdW  Elec       q    Type
REMARK                         _______ _______ _______ _____ _____    ______ ____
ROOT
ATOM      1  C   UNL     1       2.521   8.094  17.839  0.00  0.00    +0.000 C 
ATOM      2  C   UNL     1       3.041   6.819  18.443  0.00  0.00    +0.000 A 
ATOM      3  C   UNL     1       2.336   6.228  19.493  0.00  0.00    +0.000 A 
ATOM      4  C   UNL     1       2.827   5.054  20.027  0.00  0.00    +0.000 A 
ATOM      5 CL   UNL     1       2.037   4.294  21.346  0.00  0.00    +0.000 Cl
ATOM      6  N   UNL     1       3.938   4.423  19.602  0.00  0.00    +0.000 NA
ATOM      7  C   UNL     1       4.630   4.992  18.602  0.00  0.00    +0.000 A 
ATOM      8  C   UNL     1       5.799   4.371  18.173  0.00  0.00    +0.000 A 
ATOM      9  C   UNL     1       6.591   4.893  17.146  0.00  0.00    +0.000 A 
ATOM     10  C   UNL     1       6.230   6.112  16.585  0.00  0.00    +0.000 A 
ATOM     11  C   UNL     1       5.047   6.744  16.972  0.00  0.00    +0.000 A 
ATOM     12  C   UNL     1       4.232   6.200  17.985  0.00  0.00    +0.000 A 
ENDROOT
BRANCH   9  13
ATOM     13  N   UNL     1       7.842   4.333  16.861  0.00  0.00    +0.000 N 
ATOM     14  H   UNL     1       8.461   4.944  16.337  0.00  0.00    +0.000 HD
ATOM     15  H   UNL     1       8.305   3.909  17.660  0.00  0.00    +0.000 HD
ENDBRANCH   9  13
TORSDOF 1
ENDMDL
MODEL 6
REMARK VINA RESULT:      -6.2      1.734      1.968
REMARK  Name = 
REMARK  2 active torsions:
REMARK  status: ('A' for Active; 'I' for Inactive)
REMARK    1  A    between atoms: C_1  and  C_2
REMARK    2  A    between atoms: C_9  and  N_10
REMARK                            x       y       z     vdW  Elec       q    Type
REMARK                         _______ _______ _______ _____ _____    ______ ____
ROOT
ATOM      1  C   UNL     1       2.379   7.366  18.615  0.00  0.00    +0.000 C 
ATOM      2  C   UNL     1       2.752   5.977  18.173  0.00  0.00    +0.000 A 
ATOM      3  C   UNL     1       1.929   4.908  18.528  0.00  0.00    +0.000 A 
ATOM      4  C   UNL     1       2.285   3.643  18.106  0.00  0.00    +0.000 A 
ATOM      5 CL   UNL     1       1.344   2.276  18.540  0.00  0.00    +0.000 Cl
ATOM      6  N   UNL     1       3.371   3.361  17.362  0.00  0.00    +0.000 NA
ATOM      7  C   UNL     1       4.176   4.382  17.028  0.00  0.00    +0.000 A 
ATOM      8  C   UNL     1       5.321   4.103  16.287  0.00  0.00    +0.000 A 
ATOM      9  C   UNL     1       6.225   5.098  15.901  0.00  0.00    +0.000 A 
ATOM     10  C   UNL     1       6.002   6.399  16.335  0.00  0.00    +0.000 A 
ATOM     11  C   UNL     1       4.848   6.716  17.053  0.00  0.00    +0.000 A 
ATOM     12  C   UNL     1       3.920   5.717  17.413  0.00  0.00    +0.000 A 
ENDROOT
BRANCH   9  13
ATOM     13  N   UNL     1       7.444   4.755  15.307  0.00  0.00    +0.000 N 
ATOM     14  H   UNL     1       7.554   5.099  14.357  0.00  0.00    +0.000 HD
ATOM     15  H   UNL     1       8.260   4.943  15.881  0.00  0.00    +0.000 HD
ENDBRANCH   9  13
TORSDOF 1
ENDMDL
MODEL 7
REMARK VINA RESULT:      -6.2      2.708      3.525
REMARK  Name = 
REMARK  2 active torsions:
REMARK  status: ('A' for Active; 'I' for Inactive)
REMARK    1  A    between atoms: C_1  and  C_2
REMARK    2  A    between atoms: C_9  and  N_10
REMARK                            x       y       z     vdW  Elec       q    Type
REMARK                         _______ _______ _______ _____ _____    ______ ____
ROOT
ATOM      1  C   UNL     1       2.230   3.318  18.204  0.00  0.00    +0.000 C 
ATOM      2  C   UNL     1       2.842   4.660  17.907  0.00  0.00    +0.000 A 
ATOM      3  C   UNL     1       2.207   5.813  18.371  0.00  0.00    +0.000 A 
ATOM      4  C   UNL     1       2.790   7.033  18.094  0.00  0.00    +0.000 A 
ATOM      5 CL   UNL     1       2.044   8.494  18.597  0.00  0.00    +0.000 Cl
ATOM      6  N   UNL     1       3.939   7.197  17.413  0.00  0.00    +0.000 NA
ATOM      7  C   UNL     1       4.549   6.094  16.950  0.00  0.00    +0.000 A 
ATOM      8  C   UNL     1       5.721   6.248  16.216  0.00  0.00    +0.000 A 
ATOM      9  C   UNL     1       6.420   5.160  15.685  0.00  0.00    +0.000 A 
ATOM     10  C   UNL     1       5.885   3.887  15.842  0.00  0.00    +0.000 A 
ATOM     11  C   UNL     1       4.727   3.697  16.599  0.00  0.00    +0.000 A 
ATOM     12  C   UNL     1       4.041   4.792  17.162  0.00  0.00    +0.000 A 
ENDROOT
BRANCH   9  13
ATOM     13  N   UNL     1       7.495   5.366  14.813  0.00  0.00    +0.000 N 
ATOM     14  H   UNL     1       7.237   5.375  13.831  0.00  0.00    +0.000 HD
ATOM     15  H   UNL     1       8.095   6.147  15.061  0.00  0.00    +0.000 HD
ENDBRANCH   9  13
TORSDOF 1
ENDMDL
MODEL 8
REMARK VINA RESULT:      -6.1      2.789      3.861
REMARK  Name = 
REMARK  2 active torsions:
REMARK  status: ('A' for Active; 'I' for Inactive)
REMARK    1  A    between atoms: C_1  and  C_2
REMARK    2  A    between atoms: C_9  and  N_10
REMARK                            x       y       z     vdW  Elec       q    Type
REMARK                         _______ _______ _______ _____ _____    ______ ____
ROOT
ATOM      1  C   UNL     1       3.369   7.603  17.480  0.00  0.00    +0.000 C 
ATOM      2  C   UNL     1       4.104   6.359  17.895  0.00  0.00    +0.000 A 
ATOM      3  C   UNL     1       5.495   6.397  18.006  0.00  0.00    +0.000 A 
ATOM      4  C   UNL     1       6.149   5.246  18.396  0.00  0.00    +0.000 A 
ATOM      5 CL   UNL     1       7.860   5.207  18.514  0.00  0.00    +0.000 Cl
ATOM      6  N   UNL     1       5.541   4.081  18.692  0.00  0.00    +0.000 NA
ATOM      7  C   UNL     1       4.204   4.032  18.575  0.00  0.00    +0.000 A 
ATOM      8  C   UNL     1       3.564   2.826  18.844  0.00  0.00    +0.000 A 
ATOM      9  C   UNL     1       2.178   2.674  18.739  0.00  0.00    +0.000 A 
ATOM     10  C   UNL     1       1.426   3.751  18.283  0.00  0.00    +0.000 A 
ATOM     11  C   UNL     1       2.036   4.982  18.033  0.00  0.00    +0.000 A 
ATOM     12  C   UNL     1       3.429   5.142  18.171  0.00  0.00    +0.000 A 
ENDROOT
BRANCH   9  13
ATOM     13  N   UNL     1       1.593   1.408  18.853  0.00  0.00    +0.000 N 
ATOM     14  H   UNL     1       1.844   0.910  19.701  0.00  0.00    +0.000 HD
ATOM     15  H   UNL     1       0.593   1.389  18.676  0.00  0.00    +0.000 HD
ENDBRANCH   9  13
TORSDOF 1
ENDMDL
MODEL 9
REMARK VINA RESULT:      -6.0      2.799      4.495
REMARK  Name = 
REMARK  2 active torsions:
REMARK  status: ('A' for Active; 'I' for Inactive)
REMARK    1  A    between atoms: C_1  and  C_2
REMARK    2  A    between atoms: C_9  and  N_10
REMARK                            x       y       z     vdW  Elec       q    Type
REMARK                         _______ _______ _______ _____ _____    ______ ____
ROOT
ATOM      1  C   UNL     1       5.422   4.585  16.879  0.00  0.00    +0.000 C 
ATOM      2  C   UNL     1       4.350   5.232  17.713  0.00  0.00    +0.000 A 
ATOM      3  C   UNL     1       3.958   6.539  17.420  0.00  0.00    +0.000 A 
ATOM      4  C   UNL     1       2.968   7.111  18.193  0.00  0.00    +0.000 A 
ATOM      5 CL   UNL     1       2.465   8.728  17.917  0.00  0.00    +0.000 Cl
ATOM      6  N   UNL     1       2.338   6.496  19.211  0.00  0.00    +0.000 NA
ATOM      7  C   UNL     1       2.719   5.243  19.508  0.00  0.00    +0.000 A 
ATOM      8  C   UNL     1       2.101   4.604  20.579  0.00  0.00    +0.000 A 
ATOM      9  C   UNL     1       2.437   3.304  20.971  0.00  0.00    +0.000 A 
ATOM     10  C   UNL     1       3.473   2.659  20.307  0.00  0.00    +0.000 A 
ATOM     11  C   UNL     1       4.092   3.262  19.211  0.00  0.00    +0.000 A 
ATOM     12  C   UNL     1       3.729   4.559  18.795  0.00  0.00    +0.000 A 
ENDROOT
BRANCH   9  13
ATOM     13  N   UNL     1       1.915   2.763  22.151  0.00  0.00    +0.000 N 
ATOM     14  H   UNL     1       2.582   2.716  22.916  0.00  0.00    +0.000 HD
ATOM     15  H   UNL     1       1.026   3.160  22.439  0.00  0.00    +0.000 HD
ENDBRANCH   9  13
TORSDOF 1
ENDMDL
