MODEL 1
REMARK VINA RESULT:      -8.2      0.000      0.000
REMARK  Name = 
REMARK  7 active torsions:
REMARK  status: ('A' for Active; 'I' for Inactive)
REMARK    1  A    between atoms: C_1  and  C_2
REMARK    2  A    between atoms: C_2  and  C_3
REMARK    3  A    between atoms: C_3  and  N_4
REMARK    4  A    between atoms: C_3  and  C_25
REMARK    5  A    between atoms: C_5  and  C_7
REMARK    6  A    between atoms: C_10  and  C_11
REMARK    7  A    between atoms: C_17  and  C_18
REMARK                            x       y       z     vdW  Elec       q    Type
REMARK                         _______ _______ _______ _____ _____    ______ ____
ROOT
ATOM      1  C   UNL     1       1.189   9.595  19.622  0.00  0.00    +0.000 A 
ATOM      2  C   UNL     1       0.281   9.710  20.727  0.00  0.00    +0.000 A 
ATOM      3 CL   UNL     1      -0.475   8.384  21.505  0.00  0.00    +0.000 Cl
ATOM      4  C   UNL     1       0.105  11.056  21.058  0.00  0.00    +0.000 A 
ATOM      5  N   UNL     1       0.972  11.734  20.236  0.00  0.00    +0.000 N 
ATOM      6  C   UNL     1       1.463  10.911  19.245  0.00  0.00    +0.000 A 
ATOM      7  C   UNL     1       2.193  11.462  18.054  0.00  0.00    +0.000 C 
ATOM      8  O   UNL     1       2.490  12.867  18.190  0.00  0.00    +0.000 OA
ATOM      9  C   UNL     1       1.490  13.618  18.889  0.00  0.00    +0.000 C 
ATOM     10  C   UNL     1       1.464  13.099  20.313  0.00  0.00    +0.000 C 
ENDROOT
BRANCH   4  11
ATOM     11  C   UNL     1      -0.662  11.567  22.185  0.00  0.00    +0.000 C 
ATOM     12  O   UNL     1      -0.530  11.067  23.303  0.00  0.00    +0.000 OA
ATOM     13  N   UNL     1      -1.528  12.645  22.031  0.00  0.00    +0.000 N 
ATOM     14  C   UNL     1      -2.085  13.262  23.221  0.00  0.00    +0.000 C 
ATOM     15  C   UNL     1      -2.256  14.709  22.811  0.00  0.00    +0.000 C 
ATOM     16  C   UNL     1      -2.593  14.645  21.322  0.00  0.00    +0.000 C 
ATOM     17  C   UNL     1      -2.111  13.264  20.839  0.00  0.00    +0.000 C 
ATOM     18  C   UNL     1      -3.234  12.447  20.213  0.00  0.00    +0.000 C 
ENDBRANCH   4  11
BRANCH   1  20
ATOM     19  N   UNL     1       2.525   7.581  19.732  0.00  0.00    +0.000 N 
ATOM     20  C   UNL     1       1.758   8.414  18.949  0.00  0.00    +0.000 C 
ATOM     21  O   UNL     1       1.587   8.214  17.749  0.00  0.00    +0.000 OA
ATOM     22  H   UNL     1       2.665   7.829  20.703  0.00  0.00    +0.000 HD
BRANCH  19  23
ATOM     23  C   UNL     1       3.228   6.411  19.218  0.00  0.00    +0.000 C 
BRANCH  23  24
ATOM     24  C   UNL     1       2.326   5.179  19.300  0.00  0.00    +0.000 A 
ATOM     25  C   UNL     1       1.831   4.736  20.538  0.00  0.00    +0.000 A 
ATOM     26  C   UNL     1       1.050   3.578  20.623  0.00  0.00    +0.000 A 
ATOM     27  C   UNL     1       0.749   2.849  19.475  0.00  0.00    +0.000 A 
ATOM     28  C   UNL     1       1.223   3.279  18.239  0.00  0.00    +0.000 A 
ATOM     29  C   UNL     1       2.001   4.435  18.151  0.00  0.00    +0.000 A 
ENDBRANCH  23  24
BRANCH  23  31
ATOM     30  C   UNL     1       5.174   6.267  17.527  0.00  0.00    +0.000 C 
ATOM     31  C   UNL     1       3.708   6.592  17.761  0.00  0.00    +0.000 C 
ENDBRANCH  23  31
ENDBRANCH  19  23
ENDBRANCH   1  20
TORSDOF 5
ENDMDL
MODEL 2
REMARK VINA RESULT:      -8.0      2.594      3.936
REMARK  Name = 
REMARK  7 active torsions:
REMARK  status: ('A' for Active; 'I' for Inactive)
REMARK    1  A    between atoms: C_1  and  C_2
REMARK    2  A    between atoms: C_2  and  C_3
REMARK    3  A    between atoms: C_3  and  N_4
REMARK    4  A    between atoms: C_3  and  C_25
REMARK    5  A    between atoms: C_5  and  C_7
REMARK    6  A    between atoms: C_10  and  C_11
REMARK    7  A    between atoms: C_17  and  C_18
REMARK                            x       y       z     vdW  Elec       q    Type
REMARK                         _______ _______ _______ _____ _____    ______ ____
ROOT
ATOM      1  C   UNL     1       0.771   9.254  20.241  0.00  0.00    +0.000 A 
ATOM      2  C   UNL     1       0.395   9.818  18.976  0.00  0.00    +0.000 A 
ATOM      3 CL   UNL     1       0.995   9.290  17.461  0.00  0.00    +0.000 Cl
ATOM      4  C   UNL     1      -0.518  10.856  19.173  0.00  0.00    +0.000 A 
ATOM      5  N   UNL     1      -0.768  10.850  20.524  0.00  0.00    +0.000 N 
ATOM      6  C   UNL     1       0.136  10.053  21.193  0.00  0.00    +0.000 A 
ATOM      7  C   UNL     1       0.270  10.097  22.688  0.00  0.00    +0.000 C 
ATOM      8  O   UNL     1      -0.769  10.879  23.312  0.00  0.00    +0.000 OA
ATOM      9  C   UNL     1      -1.197  12.012  22.548  0.00  0.00    +0.000 C 
ATOM     10  C   UNL     1      -1.837  11.476  21.283  0.00  0.00    +0.000 C 
ENDROOT
BRANCH   4  11
ATOM     11  C   UNL     1      -1.203  11.604  18.129  0.00  0.00    +0.000 C 
ATOM     12  O   UNL     1      -0.967  12.803  17.968  0.00  0.00    +0.000 OA
ATOM     13  N   UNL     1      -2.106  10.979  17.275  0.00  0.00    +0.000 N 
ATOM     14  C   UNL     1      -2.579  11.707  16.112  0.00  0.00    +0.000 C 
ATOM     15  C   UNL     1      -2.819  10.612  15.095  0.00  0.00    +0.000 C 
ATOM     16  C   UNL     1      -3.276   9.414  15.926  0.00  0.00    +0.000 C 
ATOM     17  C   UNL     1      -2.800   9.693  17.365  0.00  0.00    +0.000 C 
ATOM     18  C   UNL     1      -3.950   9.687  18.364  0.00  0.00    +0.000 C 
ENDBRANCH   4  11
BRANCH   1  20
ATOM     19  N   UNL     1       2.236   7.469  19.515  0.00  0.00    +0.000 N 
ATOM     20  C   UNL     1       1.632   8.106  20.577  0.00  0.00    +0.000 C 
ATOM     21  O   UNL     1       1.767   7.721  21.735  0.00  0.00    +0.000 OA
ATOM     22  H   UNL     1       2.045   7.808  18.581  0.00  0.00    +0.000 HD
BRANCH  19  23
ATOM     23  C   UNL     1       3.057   6.272  19.653  0.00  0.00    +0.000 C 
BRANCH  23  24
ATOM     24  C   UNL     1       2.188   5.021  19.517  0.00  0.00    +0.000 A 
ATOM     25  C   UNL     1       1.700   4.361  20.658  0.00  0.00    +0.000 A 
ATOM     26  C   UNL     1       0.951   3.187  20.539  0.00  0.00    +0.000 A 
ATOM     27  C   UNL     1       0.673   2.655  19.281  0.00  0.00    +0.000 A 
ATOM     28  C   UNL     1       1.140   3.301  18.140  0.00  0.00    +0.000 A 
ATOM     29  C   UNL     1       1.886   4.475  18.256  0.00  0.00    +0.000 A 
ENDBRANCH  23  24
BRANCH  23  31
ATOM     30  C   UNL     1       5.358   5.299  19.001  0.00  0.00    +0.000 C 
ATOM     31  C   UNL     1       4.202   6.208  18.618  0.00  0.00    +0.000 C 
ENDBRANCH  23  31
ENDBRANCH  19  23
ENDBRANCH   1  20
TORSDOF 5
ENDMDL
MODEL 3
REMARK VINA RESULT:      -7.9      2.566      4.019
REMARK  Name = 
REMARK  7 active torsions:
REMARK  status: ('A' for Active; 'I' for Inactive)
REMARK    1  A    between atoms: C_1  and  C_2
REMARK    2  A    between atoms: C_2  and  C_3
REMARK    3  A    between atoms: C_3  and  N_4
REMARK    4  A    between atoms: C_3  and  C_25
REMARK    5  A    between atoms: C_5  and  C_7
REMARK    6  A    between atoms: C_10  and  C_11
REMARK    7  A    between atoms: C_17  and  C_18
REMARK                            x       y       z     vdW  Elec       q    Type
REMARK                         _______ _______ _______ _____ _____    ______ ____
ROOT
ATOM      1  C   UNL     1       0.818   9.167  20.225  0.00  0.00    +0.000 A 
ATOM      2  C   UNL     1       0.434   9.757  18.975  0.00  0.00    +0.000 A 
ATOM      3 CL   UNL     1       1.026   9.261  17.445  0.00  0.00    +0.000 Cl
ATOM      4  C   UNL     1      -0.478  10.791  19.199  0.00  0.00    +0.000 A 
ATOM      5  N   UNL     1      -0.720  10.756  20.551  0.00  0.00    +0.000 N 
ATOM      6  C   UNL     1       0.189   9.946  21.198  0.00  0.00    +0.000 A 
ATOM      7  C   UNL     1       0.331   9.960  22.693  0.00  0.00    +0.000 C 
ATOM      8  O   UNL     1      -0.705  10.727  23.339  0.00  0.00    +0.000 OA
ATOM      9  C   UNL     1      -1.138  11.876  22.601  0.00  0.00    +0.000 C 
ATOM     10  C   UNL     1      -1.785  11.365  21.329  0.00  0.00    +0.000 C 
ENDROOT
BRANCH   4  11
ATOM     11  C   UNL     1      -1.170  11.559  18.174  0.00  0.00    +0.000 C 
ATOM     12  O   UNL     1      -0.938  12.762  18.040  0.00  0.00    +0.000 OA
ATOM     13  N   UNL     1      -2.074  10.951  17.311  0.00  0.00    +0.000 N 
ATOM     14  C   UNL     1      -2.553  11.703  16.166  0.00  0.00    +0.000 C 
ATOM     15  C   UNL     1      -2.794  10.631  15.125  0.00  0.00    +0.000 C 
ATOM     16  C   UNL     1      -3.244   9.413  15.930  0.00  0.00    +0.000 C 
ATOM     17  C   UNL     1      -2.763   9.660  17.373  0.00  0.00    +0.000 C 
ATOM     18  C   UNL     1      -3.909   9.628  18.376  0.00  0.00    +0.000 C 
ENDBRANCH   4  11
BRANCH   1  20
ATOM     19  N   UNL     1       2.326   7.435  19.461  0.00  0.00    +0.000 N 
ATOM     20  C   UNL     1       1.682   8.014  20.533  0.00  0.00    +0.000 C 
ATOM     21  O   UNL     1       1.784   7.574  21.675  0.00  0.00    +0.000 OA
ATOM     22  H   UNL     1       2.161   7.818  18.539  0.00  0.00    +0.000 HD
BRANCH  19  23
ATOM     23  C   UNL     1       3.157   6.242  19.566  0.00  0.00    +0.000 C 
BRANCH  23  24
ATOM     24  C   UNL     1       2.283   4.988  19.508  0.00  0.00    +0.000 A 
ATOM     25  C   UNL     1       1.888   4.448  18.273  0.00  0.00    +0.000 A 
ATOM     26  C   UNL     1       1.045   3.333  18.218  0.00  0.00    +0.000 A 
ATOM     27  C   UNL     1       0.588   2.739  19.392  0.00  0.00    +0.000 A 
ATOM     28  C   UNL     1       0.977   3.255  20.624  0.00  0.00    +0.000 A 
ATOM     29  C   UNL     1       1.821   4.366  20.682  0.00  0.00    +0.000 A 
ENDBRANCH  23  24
BRANCH  23  31
ATOM     30  C   UNL     1       4.082   7.183  17.347  0.00  0.00    +0.000 C 
ATOM     31  C   UNL     1       4.234   6.162  18.462  0.00  0.00    +0.000 C 
ENDBRANCH  23  31
ENDBRANCH  19  23
ENDBRANCH   1  20
TORSDOF 5
ENDMDL
MODEL 4
REMARK VINA RESULT:      -7.7      2.516      7.951
REMARK  Name = 
REMARK  7 active torsions:
REMARK  status: ('A' for Active; 'I' for Inactive)
REMARK    1  A    between atoms: C_1  and  C_2
REMARK    2  A    between atoms: C_2  and  C_3
REMARK    3  A    between atoms: C_3  and  N_4
REMARK    4  A    between atoms: C_3  and  C_25
REMARK    5  A    between atoms: C_5  and  C_7
REMARK    6  A    between atoms: C_10  and  C_11
REMARK    7  A    between atoms: C_17  and  C_18
REMARK                            x       y       z     vdW  Elec       q    Type
REMARK                         _______ _______ _______ _____ _____    ______ ____
ROOT
ATOM      1  C   UNL     1       3.037   7.305  18.228  0.00  0.00    +0.000 A 
ATOM      2  C   UNL     1       3.034   6.290  19.243  0.00  0.00    +0.000 A 
ATOM      3 CL   UNL     1       2.146   6.382  20.705  0.00  0.00    +0.000 Cl
ATOM      4  C   UNL     1       3.866   5.235  18.860  0.00  0.00    +0.000 A 
ATOM      5  N   UNL     1       4.280   5.559  17.591  0.00  0.00    +0.000 N 
ATOM      6  C   UNL     1       3.970   6.868  17.286  0.00  0.00    +0.000 A 
ATOM      7  C   UNL     1       4.560   7.558  16.090  0.00  0.00    +0.000 C 
ATOM      8  O   UNL     1       5.279   6.652  15.228  0.00  0.00    +0.000 OA
ATOM      9  C   UNL     1       5.961   5.597  15.916  0.00  0.00    +0.000 C 
ATOM     10  C   UNL     1       4.898   4.734  16.566  0.00  0.00    +0.000 C 
ENDROOT
BRANCH   4  11
ATOM     11  C   UNL     1       4.044   3.982  19.579  0.00  0.00    +0.000 C 
ATOM     12  O   UNL     1       5.175   3.525  19.757  0.00  0.00    +0.000 OA
ATOM     13  N   UNL     1       2.955   3.297  20.105  0.00  0.00    +0.000 N 
ATOM     14  C   UNL     1       3.204   2.187  21.008  0.00  0.00    +0.000 C 
ATOM     15  C   UNL     1       2.005   2.220  21.932  0.00  0.00    +0.000 C 
ATOM     16  C   UNL     1       0.857   2.708  21.049  0.00  0.00    +0.000 C 
ATOM     17  C   UNL     1       1.518   3.404  19.844  0.00  0.00    +0.000 C 
ATOM     18  C   UNL     1       1.091   2.789  18.518  0.00  0.00    +0.000 C 
ENDBRANCH   4  11
BRANCH   1  20
ATOM     19  N   UNL     1       1.856   9.130  19.291  0.00  0.00    +0.000 N 
ATOM     20  C   UNL     1       2.281   8.564  18.109  0.00  0.00    +0.000 C 
ATOM     21  O   UNL     1       2.015   9.053  17.015  0.00  0.00    +0.000 OA
ATOM     22  H   UNL     1       2.069   8.651  20.156  0.00  0.00    +0.000 HD
BRANCH  19  23
ATOM     23  C   UNL     1       1.032  10.332  19.360  0.00  0.00    +0.000 C 
BRANCH  23  24
ATOM     24  C   UNL     1       0.272  10.371  20.686  0.00  0.00    +0.000 A 
ATOM     25  C   UNL     1      -0.312  11.565  21.141  0.00  0.00    +0.000 A 
ATOM     26  C   UNL     1      -0.961  11.616  22.379  0.00  0.00    +0.000 A 
ATOM     27  C   UNL     1      -1.041  10.478  23.178  0.00  0.00    +0.000 A 
ATOM     28  C   UNL     1      -0.477   9.284  22.739  0.00  0.00    +0.000 A 
ATOM     29  C   UNL     1       0.170   9.229  21.502  0.00  0.00    +0.000 A 
ENDBRANCH  23  24
BRANCH  23  31
ATOM     30  C   UNL     1       1.448  12.508  18.035  0.00  0.00    +0.000 C 
ATOM     31  C   UNL     1       1.854  11.631  19.207  0.00  0.00    +0.000 C 
ENDBRANCH  23  31
ENDBRANCH  19  23
ENDBRANCH   1  20
TORSDOF 5
ENDMDL
MODEL 5
REMARK VINA RESULT:      -7.7      0.925      2.613
REMARK  Name = 
REMARK  7 active torsions:
REMARK  status: ('A' for Active; 'I' for Inactive)
REMARK    1  A    between atoms: C_1  and  C_2
REMARK    2  A    between atoms: C_2  and  C_3
REMARK    3  A    between atoms: C_3  and  N_4
REMARK    4  A    between atoms: C_3  and  C_25
REMARK    5  A    between atoms: C_5  and  C_7
REMARK    6  A    between atoms: C_10  and  C_11
REMARK    7  A    between atoms: C_17  and  C_18
REMARK                            x       y       z     vdW  Elec       q    Type
REMARK                         _______ _______ _______ _____ _____    ______ ____
ROOT
ATOM      1  C   UNL     1       1.334   9.690  19.167  0.00  0.00    +0.000 A 
ATOM      2  C   UNL     1       0.480   9.711  20.320  0.00  0.00    +0.000 A 
ATOM      3 CL   UNL     1      -0.375   8.352  20.919  0.00  0.00    +0.000 Cl
ATOM      4  C   UNL     1       0.448  10.997  20.864  0.00  0.00    +0.000 A 
ATOM      5  N   UNL     1       1.348  11.715  20.115  0.00  0.00    +0.000 N 
ATOM      6  C   UNL     1       1.722  11.019  18.985  0.00  0.00    +0.000 A 
ATOM      7  C   UNL     1       2.462  11.683  17.860  0.00  0.00    +0.000 C 
ATOM      8  O   UNL     1       2.899  13.016  18.197  0.00  0.00    +0.000 OA
ATOM      9  C   UNL     1       2.002  13.734  19.052  0.00  0.00    +0.000 C 
ATOM     10  C   UNL     1       1.974  13.000  20.378  0.00  0.00    +0.000 C 
ENDROOT
BRANCH   4  11
ATOM     11  C   UNL     1      -0.227  11.391  22.092  0.00  0.00    +0.000 C 
ATOM     12  O   UNL     1      -0.048  10.751  23.130  0.00  0.00    +0.000 OA
ATOM     13  N   UNL     1      -1.053  12.509  22.128  0.00  0.00    +0.000 N 
ATOM     14  C   UNL     1      -1.509  12.993  23.419  0.00  0.00    +0.000 C 
ATOM     15  C   UNL     1      -1.642  14.485  23.200  0.00  0.00    +0.000 C 
ATOM     16  C   UNL     1      -2.072  14.618  21.739  0.00  0.00    +0.000 C 
ATOM     17  C   UNL     1      -1.680  13.292  21.061  0.00  0.00    +0.000 C 
ATOM     18  C   UNL     1      -2.873  12.599  20.416  0.00  0.00    +0.000 C 
ENDBRANCH   4  11
BRANCH   1  20
ATOM     19  N   UNL     1       2.120   7.415  18.925  0.00  0.00    +0.000 N 
ATOM     20  C   UNL     1       1.761   8.584  18.292  0.00  0.00    +0.000 C 
ATOM     21  O   UNL     1       1.830   8.719  17.073  0.00  0.00    +0.000 OA
ATOM     22  H   UNL     1       2.086   7.386  19.935  0.00  0.00    +0.000 HD
BRANCH  19  23
ATOM     23  C   UNL     1       2.640   6.246  18.225  0.00  0.00    +0.000 C 
BRANCH  23  24
ATOM     24  C   UNL     1       4.169   6.240  18.277  0.00  0.00    +0.000 A 
ATOM     25  C   UNL     1       4.920   6.959  17.333  0.00  0.00    +0.000 A 
ATOM     26  C   UNL     1       6.318   6.912  17.346  0.00  0.00    +0.000 A 
ATOM     27  C   UNL     1       6.986   6.151  18.302  0.00  0.00    +0.000 A 
ATOM     28  C   UNL     1       6.258   5.439  19.251  0.00  0.00    +0.000 A 
ATOM     29  C   UNL     1       4.862   5.486  19.242  0.00  0.00    +0.000 A 
ENDBRANCH  23  24
BRANCH  23  31
ATOM     30  C   UNL     1       1.781   3.855  17.764  0.00  0.00    +0.000 C 
ATOM     31  C   UNL     1       2.108   4.916  18.802  0.00  0.00    +0.000 C 
ENDBRANCH  23  31
ENDBRANCH  19  23
ENDBRANCH   1  20
TORSDOF 5
ENDMDL
MODEL 6
REMARK VINA RESULT:      -7.6      2.938      8.872
REMARK  Name = 
REMARK  7 active torsions:
REMARK  status: ('A' for Active; 'I' for Inactive)
REMARK    1  A    between atoms: C_1  and  C_2
REMARK    2  A    between atoms: C_2  and  C_3
REMARK    3  A    between atoms: C_3  and  N_4
REMARK    4  A    between atoms: C_3  and  C_25
REMARK    5  A    between atoms: C_5  and  C_7
REMARK    6  A    between atoms: C_10  and  C_11
REMARK    7  A    between atoms: C_17  and  C_18
REMARK                            x       y       z     vdW  Elec       q    Type
REMARK                         _______ _______ _______ _____ _____    ______ ____
ROOT
ATOM      1  C   UNL     1       2.202   6.791  19.585  0.00  0.00    +0.000 A 
ATOM      2  C   UNL     1       3.074   6.739  18.448  0.00  0.00    +0.000 A 
ATOM      3 CL   UNL     1       3.477   8.088  17.471  0.00  0.00    +0.000 Cl
ATOM      4  C   UNL     1       3.531   5.432  18.259  0.00  0.00    +0.000 A 
ATOM      5  N   UNL     1       3.026   4.729  19.325  0.00  0.00    +0.000 N 
ATOM      6  C   UNL     1       2.074   5.464  20.000  0.00  0.00    +0.000 A 
ATOM      7  C   UNL     1       1.165   4.833  21.016  0.00  0.00    +0.000 C 
ATOM      8  O   UNL     1       1.549   3.479  21.334  0.00  0.00    +0.000 OA
ATOM      9  C   UNL     1       2.093   2.743  20.232  0.00  0.00    +0.000 C 
ATOM     10  C   UNL     1       3.392   3.422  19.846  0.00  0.00    +0.000 C 
ENDROOT
BRANCH   4  11
ATOM     11  C   UNL     1       4.508   5.001  17.270  0.00  0.00    +0.000 C 
ATOM     12  O   UNL     1       4.199   4.168  16.416  0.00  0.00    +0.000 OA
ATOM     13  N   UNL     1       5.790   5.540  17.249  0.00  0.00    +0.000 N 
ATOM     14  C   UNL     1       6.643   5.254  16.109  0.00  0.00    +0.000 C 
ATOM     15  C   UNL     1       7.499   6.498  15.999  0.00  0.00    +0.000 C 
ATOM     16  C   UNL     1       7.681   6.963  17.443  0.00  0.00    +0.000 C 
ATOM     17  C   UNL     1       6.543   6.303  18.246  0.00  0.00    +0.000 C 
ATOM     18  C   UNL     1       7.066   5.454  19.397  0.00  0.00    +0.000 C 
ENDBRANCH   4  11
BRANCH   1  20
ATOM     19  N   UNL     1       0.981   8.873  19.409  0.00  0.00    +0.000 N 
ATOM     20  C   UNL     1       1.527   7.923  20.244  0.00  0.00    +0.000 C 
ATOM     21  O   UNL     1       1.495   8.029  21.467  0.00  0.00    +0.000 OA
ATOM     22  H   UNL     1       1.084   8.749  18.410  0.00  0.00    +0.000 HD
BRANCH  19  23
ATOM     23  C   UNL     1       0.346  10.096  19.884  0.00  0.00    +0.000 C 
BRANCH  23  24
ATOM     24  C   UNL     1       1.225  11.304  19.559  0.00  0.00    +0.000 A 
ATOM     25  C   UNL     1       1.302  12.393  20.444  0.00  0.00    +0.000 A 
ATOM     26  C   UNL     1       2.063  13.522  20.124  0.00  0.00    +0.000 A 
ATOM     27  C   UNL     1       2.760  13.581  18.920  0.00  0.00    +0.000 A 
ATOM     28  C   UNL     1       2.702  12.508  18.035  0.00  0.00    +0.000 A 
ATOM     29  C   UNL     1       1.946  11.378  18.353  0.00  0.00    +0.000 A 
ENDBRANCH  23  24
BRANCH  23  31
ATOM     30  C   UNL     1      -1.176   9.999  17.800  0.00  0.00    +0.000 C 
ATOM     31  C   UNL     1      -1.060  10.315  19.282  0.00  0.00    +0.000 C 
ENDBRANCH  23  31
ENDBRANCH  19  23
ENDBRANCH   1  20
TORSDOF 5
ENDMDL
MODEL 7
REMARK VINA RESULT:      -7.6      0.868      2.552
REMARK  Name = 
REMARK  7 active torsions:
REMARK  status: ('A' for Active; 'I' for Inactive)
REMARK    1  A    between atoms: C_1  and  C_2
REMARK    2  A    between atoms: C_2  and  C_3
REMARK    3  A    between atoms: C_3  and  N_4
REMARK    4  A    between atoms: C_3  and  C_25
REMARK    5  A    between atoms: C_5  and  C_7
REMARK    6  A    between atoms: C_10  and  C_11
REMARK    7  A    between atoms: C_17  and  C_18
REMARK                            x       y       z     vdW  Elec       q    Type
REMARK                         _______ _______ _______ _____ _____    ______ ____
ROOT
ATOM      1  C   UNL     1       1.295   9.554  19.214  0.00  0.00    +0.000 A 
ATOM      2  C   UNL     1       0.452   9.621  20.374  0.00  0.00    +0.000 A 
ATOM      3 CL   UNL     1      -0.408   8.292  21.028  0.00  0.00    +0.000 Cl
ATOM      4  C   UNL     1       0.436  10.926  20.872  0.00  0.00    +0.000 A 
ATOM      5  N   UNL     1       1.334  11.610  20.090  0.00  0.00    +0.000 N 
ATOM      6  C   UNL     1       1.692  10.872  18.982  0.00  0.00    +0.000 A 
ATOM      7  C   UNL     1       2.427  11.489  17.827  0.00  0.00    +0.000 C 
ATOM      8  O   UNL     1       2.877  12.830  18.114  0.00  0.00    +0.000 OA
ATOM      9  C   UNL     1       1.994  13.585  18.951  0.00  0.00    +0.000 C 
ATOM     10  C   UNL     1       1.973  12.898  20.302  0.00  0.00    +0.000 C 
ENDROOT
BRANCH   4  11
ATOM     11  C   UNL     1      -0.225  11.369  22.092  0.00  0.00    +0.000 C 
ATOM     12  O   UNL     1      -0.064  10.747  23.144  0.00  0.00    +0.000 OA
ATOM     13  N   UNL     1      -1.016  12.512  22.103  0.00  0.00    +0.000 N 
ATOM     14  C   UNL     1      -1.455  13.039  23.383  0.00  0.00    +0.000 C 
ATOM     15  C   UNL     1      -1.542  14.529  23.130  0.00  0.00    +0.000 C 
ATOM     16  C   UNL     1      -1.970  14.643  21.668  0.00  0.00    +0.000 C 
ATOM     17  C   UNL     1      -1.620  13.289  21.019  0.00  0.00    +0.000 C 
ATOM     18  C   UNL     1      -2.835  12.619  20.391  0.00  0.00    +0.000 C 
ENDBRANCH   4  11
BRANCH   1  20
ATOM     19  N   UNL     1       2.103   7.279  19.046  0.00  0.00    +0.000 N 
ATOM     20  C   UNL     1       1.705   8.414  18.375  0.00  0.00    +0.000 C 
ATOM     21  O   UNL     1       1.727   8.494  17.149  0.00  0.00    +0.000 OA
ATOM     22  H   UNL     1       2.106   7.296  20.057  0.00  0.00    +0.000 HD
BRANCH  19  23
ATOM     23  C   UNL     1       2.613   6.085  18.381  0.00  0.00    +0.000 C 
BRANCH  23  24
ATOM     24  C   UNL     1       4.139   6.145  18.293  0.00  0.00    +0.000 A 
ATOM     25  C   UNL     1       4.937   5.470  19.232  0.00  0.00    +0.000 A 
ATOM     26  C   UNL     1       6.331   5.567  19.186  0.00  0.00    +0.000 A 
ATOM     27  C   UNL     1       6.950   6.335  18.202  0.00  0.00    +0.000 A 
ATOM     28  C   UNL     1       6.175   7.003  17.258  0.00  0.00    +0.000 A 
ATOM     29  C   UNL     1       4.783   6.906  17.300  0.00  0.00    +0.000 A 
ENDBRANCH  23  24
BRANCH  23  31
ATOM     30  C   UNL     1       1.559   4.971  20.458  0.00  0.00    +0.000 C 
ATOM     31  C   UNL     1       2.197   4.779  19.092  0.00  0.00    +0.000 C 
ENDBRANCH  23  31
ENDBRANCH  19  23
ENDBRANCH   1  20
TORSDOF 5
ENDMDL
MODEL 8
REMARK VINA RESULT:      -7.6      4.806      7.404
REMARK  Name = 
REMARK  7 active torsions:
REMARK  status: ('A' for Active; 'I' for Inactive)
REMARK    1  A    between atoms: C_1  and  C_2
REMARK    2  A    between atoms: C_2  and  C_3
REMARK    3  A    between atoms: C_3  and  N_4
REMARK    4  A    between atoms: C_3  and  C_25
REMARK    5  A    between atoms: C_5  and  C_7
REMARK    6  A    between atoms: C_10  and  C_11
REMARK    7  A    between atoms: C_17  and  C_18
REMARK                            x       y       z     vdW  Elec       q    Type
REMARK                         _______ _______ _______ _____ _____    ______ ____
ROOT
ATOM      1  C   UNL     1      -0.556  12.026  19.775  0.00  0.00    +0.000 A 
ATOM      2  C   UNL     1       0.845  12.278  19.589  0.00  0.00    +0.000 A 
ATOM      3 CL   UNL     1       1.815  11.528  18.392  0.00  0.00    +0.000 Cl
ATOM      4  C   UNL     1       1.287  13.211  20.529  0.00  0.00    +0.000 A 
ATOM      5  N   UNL     1       0.153  13.593  21.203  0.00  0.00    +0.000 N 
ATOM      6  C   UNL     1      -0.903  12.755  20.914  0.00  0.00    +0.000 A 
ATOM      7  C   UNL     1      -2.166  12.770  21.726  0.00  0.00    +0.000 C 
ATOM      8  O   UNL     1      -2.209  13.870  22.659  0.00  0.00    +0.000 OA
ATOM      9  C   UNL     1      -0.937  14.225  23.214  0.00  0.00    +0.000 C 
ATOM     10  C   UNL     1      -0.083  14.735  22.070  0.00  0.00    +0.000 C 
ENDROOT
BRANCH   4  11
ATOM     11  C   UNL     1       2.620  13.793  20.596  0.00  0.00    +0.000 C 
ATOM     12  O   UNL     1       3.348  13.565  21.564  0.00  0.00    +0.000 OA
ATOM     13  N   UNL     1       3.108  14.583  19.561  0.00  0.00    +0.000 N 
ATOM     14  C   UNL     1       4.515  14.941  19.567  0.00  0.00    +0.000 C 
ATOM     15  C   UNL     1       4.850  15.047  18.094  0.00  0.00    +0.000 C 
ATOM     16  C   UNL     1       3.566  15.567  17.448  0.00  0.00    +0.000 C 
ATOM     17  C   UNL     1       2.436  15.257  18.448  0.00  0.00    +0.000 C 
ATOM     18  C   UNL     1       1.673  16.508  18.863  0.00  0.00    +0.000 C 
ENDBRANCH   4  11
BRANCH   1  20
ATOM     19  N   UNL     1      -2.569  11.860  18.442  0.00  0.00    +0.000 N 
ATOM     20  C   UNL     1      -1.505  11.196  19.012  0.00  0.00    +0.000 C 
ATOM     21  O   UNL     1      -1.372   9.978  18.929  0.00  0.00    +0.000 OA
ATOM     22  H   UNL     1      -2.645  12.859  18.589  0.00  0.00    +0.000 HD
BRANCH  19  23
ATOM     23  C   UNL     1      -3.644  11.192  17.719  0.00  0.00    +0.000 C 
BRANCH  23  24
ATOM     24  C   UNL     1      -4.987  11.837  18.063  0.00  0.00    +0.000 A 
ATOM     25  C   UNL     1      -5.802  12.376  17.054  0.00  0.00    +0.000 A 
ATOM     26  C   UNL     1      -7.005  13.015  17.371  0.00  0.00    +0.000 A 
ATOM     27  C   UNL     1      -7.416  13.121  18.698  0.00  0.00    +0.000 A 
ATOM     28  C   UNL     1      -6.626  12.584  19.710  0.00  0.00    +0.000 A 
ATOM     29  C   UNL     1      -5.425  11.944  19.396  0.00  0.00    +0.000 A 
ENDBRANCH  23  24
BRANCH  23  31
ATOM     30  C   UNL     1      -2.873   9.943  15.595  0.00  0.00    +0.000 C 
ATOM     31  C   UNL     1      -3.445  11.220  16.188  0.00  0.00    +0.000 C 
ENDBRANCH  23  31
ENDBRANCH  19  23
ENDBRANCH   1  20
TORSDOF 5
ENDMDL
MODEL 9
REMARK VINA RESULT:      -7.6      1.967      3.358
REMARK  Name = 
REMARK  7 active torsions:
REMARK  status: ('A' for Active; 'I' for Inactive)
REMARK    1  A    between atoms: C_1  and  C_2
REMARK    2  A    between atoms: C_2  and  C_3
REMARK    3  A    between atoms: C_3  and  N_4
REMARK    4  A    between atoms: C_3  and  C_25
REMARK    5  A    between atoms: C_5  and  C_7
REMARK    6  A    between atoms: C_10  and  C_11
REMARK    7  A    between atoms: C_17  and  C_18
REMARK                            x       y       z     vdW  Elec       q    Type
REMARK                         _______ _______ _______ _____ _____    ______ ____
ROOT
ATOM      1  C   UNL     1       1.240   9.805  19.454  0.00  0.00    +0.000 A 
ATOM      2  C   UNL     1       1.286  11.196  19.101  0.00  0.00    +0.000 A 
ATOM      3 CL   UNL     1       2.145  11.830  17.761  0.00  0.00    +0.000 Cl
ATOM      4  C   UNL     1       0.538  11.941  20.016  0.00  0.00    +0.000 A 
ATOM      5  N   UNL     1      -0.035  11.006  20.843  0.00  0.00    +0.000 N 
ATOM      6  C   UNL     1       0.532   9.763  20.656  0.00  0.00    +0.000 A 
ATOM      7  C   UNL     1       0.299   8.637  21.622  0.00  0.00    +0.000 C 
ATOM      8  O   UNL     1      -0.718   8.949  22.597  0.00  0.00    +0.000 OA
ATOM      9  C   UNL     1      -0.750  10.322  23.001  0.00  0.00    +0.000 C 
ATOM     10  C   UNL     1      -1.139  11.132  21.780  0.00  0.00    +0.000 C 
ENDROOT
BRANCH   4  11
ATOM     11  C   UNL     1       0.265  13.369  19.937  0.00  0.00    +0.000 C 
ATOM     12  O   UNL     1      -0.709  13.779  19.303  0.00  0.00    +0.000 OA
ATOM     13  N   UNL     1       1.072  14.289  20.596  0.00  0.00    +0.000 N 
ATOM     14  C   UNL     1       0.625  15.668  20.681  0.00  0.00    +0.000 C 
ATOM     15  C   UNL     1       1.206  16.138  21.997  0.00  0.00    +0.000 C 
ATOM     16  C   UNL     1       2.527  15.381  22.122  0.00  0.00    +0.000 C 
ATOM     17  C   UNL     1       2.412  14.172  21.175  0.00  0.00    +0.000 C 
ATOM     18  C   UNL     1       3.525  14.144  20.136  0.00  0.00    +0.000 C 
ENDBRANCH   4  11
BRANCH   1  20
ATOM     19  N   UNL     1       2.544   7.770  19.569  0.00  0.00    +0.000 N 
ATOM     20  C   UNL     1       1.789   8.613  18.784  0.00  0.00    +0.000 C 
ATOM     21  O   UNL     1       1.614   8.412  17.585  0.00  0.00    +0.000 OA
ATOM     22  H   UNL     1       2.688   8.019  20.539  0.00  0.00    +0.000 HD
BRANCH  19  23
ATOM     23  C   UNL     1       3.227   6.587  19.058  0.00  0.00    +0.000 C 
BRANCH  23  24
ATOM     24  C   UNL     1       2.329   5.358  19.204  0.00  0.00    +0.000 A 
ATOM     25  C   UNL     1       1.816   4.991  20.460  0.00  0.00    +0.000 A 
ATOM     26  C   UNL     1       1.039   3.837  20.605  0.00  0.00    +0.000 A 
ATOM     27  C   UNL     1       0.758   3.036  19.501  0.00  0.00    +0.000 A 
ATOM     28  C   UNL     1       1.250   3.389  18.248  0.00  0.00    +0.000 A 
ATOM     29  C   UNL     1       2.024   4.542  18.100  0.00  0.00    +0.000 A 
ENDBRANCH  23  24
BRANCH  23  31
ATOM     30  C   UNL     1       5.145   6.598  17.330  0.00  0.00    +0.000 C 
ATOM     31  C   UNL     1       3.652   6.732  17.581  0.00  0.00    +0.000 C 
ENDBRANCH  23  31
ENDBRANCH  19  23
ENDBRANCH   1  20
TORSDOF 5
ENDMDL
