MODEL 1
REMARK VINA RESULT:      -8.4      0.000      0.000
REMARK  Name = 
REMARK  7 active torsions:
REMARK  status: ('A' for Active; 'I' for Inactive)
REMARK    1  A    between atoms: C_1  and  C_2
REMARK    2  A    between atoms: C_2  and  N_3
REMARK    3  A    between atoms: N_6  and  C_7
REMARK    4  A    between atoms: N_15  and  C_16
REMARK    5  A    between atoms: C_19  and  O_20
REMARK    6  A    between atoms: O_20  and  C_21
REMARK    7  A    between atoms: C_21  and  C_22
REMARK                            x       y       z     vdW  Elec       q    Type
REMARK                         _______ _______ _______ _____ _____    ______ ____
ROOT
ATOM      1  C   UNL     1       4.238   4.503  17.246  0.00  0.00    +0.000 A 
ATOM      2  C   UNL     1       4.024   3.561  18.246  0.00  0.00    +0.000 A 
ATOM      3  C   UNL     1       3.362   3.915  19.421  0.00  0.00    +0.000 A 
ATOM      4  C   UNL     1       2.878   5.194  19.627  0.00  0.00    +0.000 A 
ATOM      5  N   UNL     1       2.212   5.405  20.761  0.00  0.00    +0.000 NA
ATOM      6  C   UNL     1       1.700   6.621  20.929  0.00  0.00    +0.000 A 
ATOM      7  N   UNL     1       1.790   7.626  20.061  0.00  0.00    +0.000 NA
ATOM      8  C   UNL     1       2.460   7.411  18.912  0.00  0.00    +0.000 A 
ATOM      9  N   UNL     1       2.494   8.470  17.948  0.00  0.00    +0.000 N 
ATOM     10  C   UNL     1       3.084   6.172  18.640  0.00  0.00    +0.000 A 
ATOM     11  C   UNL     1       3.821   5.823  17.468  0.00  0.00    +0.000 A 
ATOM     12  H   UNL     1       2.417   8.068  17.021  0.00  0.00    +0.000 HD
ENDROOT
BRANCH   9  13
ATOM     13  C   UNL     1       1.673   9.633  18.040  0.00  0.00    +0.000 A 
ATOM     14  C   UNL     1       2.199  10.892  18.334  0.00  0.00    +0.000 A 
ATOM     15  C   UNL     1       1.360  11.977  18.598  0.00  0.00    +0.000 A 
ATOM     16  C   UNL     1      -0.030  11.857  18.517  0.00  0.00    +0.000 A 
ATOM     17  C   UNL     1      -0.568  10.618  18.143  0.00  0.00    +0.000 A 
ATOM     18 CL   UNL     1      -2.261  10.274  18.057  0.00  0.00    +0.000 Cl
ATOM     19  C   UNL     1       0.284   9.525  17.888  0.00  0.00    +0.000 A 
BRANCH  16  20
ATOM     20  O   UNL     1      -0.667  13.005  18.901  0.00  0.00    +0.000 OA
BRANCH  20  21
ATOM     21  C   UNL     1      -0.298  13.616  20.133  0.00  0.00    +0.000 C 
BRANCH  21  22
ATOM     22  C   UNL     1      -1.126  13.057  21.273  0.00  0.00    +0.000 A 
ATOM     23  C   UNL     1      -2.407  13.547  21.575  0.00  0.00    +0.000 A 
ATOM     24  C   UNL     1      -3.179  12.961  22.584  0.00  0.00    +0.000 A 
ATOM     25  C   UNL     1      -2.682  11.872  23.296  0.00  0.00    +0.000 A 
ATOM     26  C   UNL     1      -1.419  11.381  22.997  0.00  0.00    +0.000 A 
ATOM     27  F   UNL     1      -0.943  10.326  23.673  0.00  0.00    +0.000 F 
ATOM     28  C   UNL     1      -0.642  11.958  21.996  0.00  0.00    +0.000 A 
ENDBRANCH  21  22
ENDBRANCH  20  21
ENDBRANCH  16  20
ENDBRANCH   9  13
BRANCH   1  32
ATOM     29  N   UNL     1       6.252   4.248  14.231  0.00  0.00    +0.000 N 
ATOM     30  C   UNL     1       5.822   4.875  15.376  0.00  0.00    +0.000 C 
ATOM     31  O   UNL     1       6.350   5.902  15.790  0.00  0.00    +0.000 OA
ATOM     32  N   UNL     1       4.810   4.164  16.000  0.00  0.00    +0.000 N 
ATOM     33  H   UNL     1       5.592   3.671  13.732  0.00  0.00    +0.000 HD
ATOM     34  H   UNL     1       4.697   3.212  15.682  0.00  0.00    +0.000 HD
BRANCH  29  36
ATOM     35  C   UNL     1       7.340   4.408  12.019  0.00  0.00    +0.000 C 
ATOM     36  C   UNL     1       7.377   4.788  13.490  0.00  0.00    +0.000 C 
ENDBRANCH  29  36
ENDBRANCH   1  32
TORSDOF 6
ENDMDL
MODEL 2
REMARK VINA RESULT:      -8.4      4.097     10.403
REMARK  Name = 
REMARK  7 active torsions:
REMARK  status: ('A' for Active; 'I' for Inactive)
REMARK    1  A    between atoms: C_1  and  C_2
REMARK    2  A    between atoms: C_2  and  N_3
REMARK    3  A    between atoms: N_6  and  C_7
REMARK    4  A    between atoms: N_15  and  C_16
REMARK    5  A    between atoms: C_19  and  O_20
REMARK    6  A    between atoms: O_20  and  C_21
REMARK    7  A    between atoms: C_21  and  C_22
REMARK                            x       y       z     vdW  Elec       q    Type
REMARK                         _______ _______ _______ _____ _____    ______ ____
ROOT
ATOM      1  C   UNL     1      -2.288  12.778  21.328  0.00  0.00    +0.000 A 
ATOM      2  C   UNL     1      -3.449  12.936  20.580  0.00  0.00    +0.000 A 
ATOM      3  C   UNL     1      -3.585  12.303  19.345  0.00  0.00    +0.000 A 
ATOM      4  C   UNL     1      -2.594  11.486  18.831  0.00  0.00    +0.000 A 
ATOM      5  N   UNL     1      -2.854  10.887  17.671  0.00  0.00    +0.000 NA
ATOM      6  C   UNL     1      -1.921  10.059  17.209  0.00  0.00    +0.000 A 
ATOM      7  N   UNL     1      -0.769   9.778  17.813  0.00  0.00    +0.000 NA
ATOM      8  C   UNL     1      -0.507  10.380  18.989  0.00  0.00    +0.000 A 
ATOM      9  N   UNL     1       0.699  10.021  19.672  0.00  0.00    +0.000 N 
ATOM     10  C   UNL     1      -1.405  11.312  19.559  0.00  0.00    +0.000 A 
ATOM     11  C   UNL     1      -1.242  12.016  20.791  0.00  0.00    +0.000 A 
ATOM     12  H   UNL     1       0.511   9.985  20.668  0.00  0.00    +0.000 HD
ENDROOT
BRANCH   9  13
ATOM     13  C   UNL     1       1.506   8.908  19.293  0.00  0.00    +0.000 A 
ATOM     14  C   UNL     1       2.146   8.842  18.054  0.00  0.00    +0.000 A 
ATOM     15  C   UNL     1       2.778   7.670  17.632  0.00  0.00    +0.000 A 
ATOM     16  C   UNL     1       2.846   6.544  18.459  0.00  0.00    +0.000 A 
ATOM     17  C   UNL     1       2.278   6.625  19.738  0.00  0.00    +0.000 A 
ATOM     18 CL   UNL     1       2.213   5.313  20.863  0.00  0.00    +0.000 Cl
ATOM     19  C   UNL     1       1.633   7.808  20.151  0.00  0.00    +0.000 A 
BRANCH  16  20
ATOM     20  O   UNL     1       3.422   5.477  17.825  0.00  0.00    +0.000 OA
BRANCH  20  21
ATOM     21  C   UNL     1       4.470   5.716  16.893  0.00  0.00    +0.000 C 
BRANCH  21  22
ATOM     22  C   UNL     1       5.745   6.109  17.615  0.00  0.00    +0.000 A 
ATOM     23  C   UNL     1       6.291   5.324  18.643  0.00  0.00    +0.000 A 
ATOM     24  C   UNL     1       7.508   5.670  19.239  0.00  0.00    +0.000 A 
ATOM     25  C   UNL     1       8.198   6.800  18.806  0.00  0.00    +0.000 A 
ATOM     26  C   UNL     1       7.664   7.576  17.786  0.00  0.00    +0.000 A 
ATOM     27  F   UNL     1       8.331   8.657  17.360  0.00  0.00    +0.000 F 
ATOM     28  C   UNL     1       6.453   7.241  17.188  0.00  0.00    +0.000 A 
ENDBRANCH  21  22
ENDBRANCH  20  21
ENDBRANCH  16  20
ENDBRANCH   9  13
BRANCH   1  32
ATOM     29  N   UNL     1      -1.515  14.773  24.267  0.00  0.00    +0.000 N 
ATOM     30  C   UNL     1      -1.369  14.414  22.949  0.00  0.00    +0.000 C 
ATOM     31  O   UNL     1      -0.675  15.063  22.173  0.00  0.00    +0.000 OA
ATOM     32  N   UNL     1      -2.149  13.316  22.627  0.00  0.00    +0.000 N 
ATOM     33  H   UNL     1      -1.754  14.051  24.930  0.00  0.00    +0.000 HD
ATOM     34  H   UNL     1      -2.865  13.087  23.301  0.00  0.00    +0.000 HD
BRANCH  29  36
ATOM     35  C   UNL     1      -1.412  16.414  26.111  0.00  0.00    +0.000 C 
ATOM     36  C   UNL     1      -0.856  15.964  24.770  0.00  0.00    +0.000 C 
ENDBRANCH  29  36
ENDBRANCH   1  32
TORSDOF 6
ENDMDL
MODEL 3
REMARK VINA RESULT:      -8.2      2.068      2.532
REMARK  Name = 
REMARK  7 active torsions:
REMARK  status: ('A' for Active; 'I' for Inactive)
REMARK    1  A    between atoms: C_1  and  C_2
REMARK    2  A    between atoms: C_2  and  N_3
REMARK    3  A    between atoms: N_6  and  C_7
REMARK    4  A    between atoms: N_15  and  C_16
REMARK    5  A    between atoms: C_19  and  O_20
REMARK    6  A    between atoms: O_20  and  C_21
REMARK    7  A    between atoms: C_21  and  C_22
REMARK                            x       y       z     vdW  Elec       q    Type
REMARK                         _______ _______ _______ _____ _____    ______ ____
ROOT
ATOM      1  C   UNL     1       4.752   3.490  17.673  0.00  0.00    +0.000 A 
ATOM      2  C   UNL     1       4.145   2.249  17.827  0.00  0.00    +0.000 A 
ATOM      3  C   UNL     1       3.002   2.114  18.613  0.00  0.00    +0.000 A 
ATOM      4  C   UNL     1       2.420   3.197  19.245  0.00  0.00    +0.000 A 
ATOM      5  N   UNL     1       1.298   2.963  19.923  0.00  0.00    +0.000 NA
ATOM      6  C   UNL     1       0.712   4.018  20.482  0.00  0.00    +0.000 A 
ATOM      7  N   UNL     1       1.148   5.274  20.409  0.00  0.00    +0.000 NA
ATOM      8  C   UNL     1       2.279   5.513  19.719  0.00  0.00    +0.000 A 
ATOM      9  N   UNL     1       2.706   6.872  19.580  0.00  0.00    +0.000 N 
ATOM     10  C   UNL     1       3.013   4.465  19.117  0.00  0.00    +0.000 A 
ATOM     11  C   UNL     1       4.222   4.586  18.366  0.00  0.00    +0.000 A 
ATOM     12  H   UNL     1       3.082   7.002  18.648  0.00  0.00    +0.000 HD
ENDROOT
BRANCH   9  13
ATOM     13  C   UNL     1       1.884   7.985  19.927  0.00  0.00    +0.000 A 
ATOM     14  C   UNL     1       1.572   8.991  19.012  0.00  0.00    +0.000 A 
ATOM     15  C   UNL     1       0.920  10.158  19.420  0.00  0.00    +0.000 A 
ATOM     16  C   UNL     1       0.503  10.332  20.743  0.00  0.00    +0.000 A 
ATOM     17  C   UNL     1       0.738   9.292  21.654  0.00  0.00    +0.000 A 
ATOM     18 CL   UNL     1       0.349   9.363  23.338  0.00  0.00    +0.000 Cl
ATOM     19  C   UNL     1       1.405   8.123  21.236  0.00  0.00    +0.000 A 
BRANCH  16  20
ATOM     20  O   UNL     1      -0.029  11.574  20.954  0.00  0.00    +0.000 OA
BRANCH  20  21
ATOM     21  C   UNL     1      -1.441  11.707  21.068  0.00  0.00    +0.000 C 
BRANCH  21  22
ATOM     22  C   UNL     1      -1.801  12.539  22.283  0.00  0.00    +0.000 A 
ATOM     23  C   UNL     1      -1.016  13.626  22.701  0.00  0.00    +0.000 A 
ATOM     24  C   UNL     1      -1.413  14.423  23.781  0.00  0.00    +0.000 A 
ATOM     25  C   UNL     1      -2.605  14.148  24.447  0.00  0.00    +0.000 A 
ATOM     26  C   UNL     1      -3.386  13.078  24.033  0.00  0.00    +0.000 A 
ATOM     27  F   UNL     1      -4.538  12.818  24.666  0.00  0.00    +0.000 F 
ATOM     28  C   UNL     1      -2.999  12.277  22.962  0.00  0.00    +0.000 A 
ENDBRANCH  21  22
ENDBRANCH  20  21
ENDBRANCH  16  20
ENDBRANCH   9  13
BRANCH   1  32
ATOM     29  N   UNL     1       6.993   4.373  14.951  0.00  0.00    +0.000 N 
ATOM     30  C   UNL     1       5.755   4.181  15.514  0.00  0.00    +0.000 C 
ATOM     31  O   UNL     1       4.722   4.488  14.927  0.00  0.00    +0.000 OA
ATOM     32  N   UNL     1       5.849   3.691  16.806  0.00  0.00    +0.000 N 
ATOM     33  H   UNL     1       7.752   3.788  15.267  0.00  0.00    +0.000 HD
ATOM     34  H   UNL     1       6.764   3.765  17.226  0.00  0.00    +0.000 HD
BRANCH  29  36
ATOM     35  C   UNL     1       6.970   3.960  12.516  0.00  0.00    +0.000 C 
ATOM     36  C   UNL     1       7.105   4.977  13.636  0.00  0.00    +0.000 C 
ENDBRANCH  29  36
ENDBRANCH   1  32
TORSDOF 6
ENDMDL
MODEL 4
REMARK VINA RESULT:      -8.1      1.504      1.825
REMARK  Name = 
REMARK  7 active torsions:
REMARK  status: ('A' for Active; 'I' for Inactive)
REMARK    1  A    between atoms: C_1  and  C_2
REMARK    2  A    between atoms: C_2  and  N_3
REMARK    3  A    between atoms: N_6  and  C_7
REMARK    4  A    between atoms: N_15  and  C_16
REMARK    5  A    between atoms: C_19  and  O_20
REMARK    6  A    between atoms: O_20  and  C_21
REMARK    7  A    between atoms: C_21  and  C_22
REMARK                            x       y       z     vdW  Elec       q    Type
REMARK                         _______ _______ _______ _____ _____    ______ ____
ROOT
ATOM      1  C   UNL     1       4.842   5.904  16.848  0.00  0.00    +0.000 A 
ATOM      2  C   UNL     1       4.881   4.730  17.590  0.00  0.00    +0.000 A 
ATOM      3  C   UNL     1       4.125   4.605  18.755  0.00  0.00    +0.000 A 
ATOM      4  C   UNL     1       3.301   5.621  19.201  0.00  0.00    +0.000 A 
ATOM      5  N   UNL     1       2.581   5.372  20.294  0.00  0.00    +0.000 NA
ATOM      6  C   UNL     1       1.748   6.331  20.686  0.00  0.00    +0.000 A 
ATOM      7  N   UNL     1       1.572   7.500  20.075  0.00  0.00    +0.000 NA
ATOM      8  C   UNL     1       2.295   7.752  18.968  0.00  0.00    +0.000 A 
ATOM      9  N   UNL     1       2.052   8.979  18.272  0.00  0.00    +0.000 N 
ATOM     10  C   UNL     1       3.244   6.824  18.479  0.00  0.00    +0.000 A 
ATOM     11  C   UNL     1       4.071   6.973  17.324  0.00  0.00    +0.000 A 
ATOM     12  H   UNL     1       2.107   8.804  17.275  0.00  0.00    +0.000 HD
ENDROOT
BRANCH   9  13
ATOM     13  C   UNL     1       0.938   9.825  18.553  0.00  0.00    +0.000 A 
ATOM     14  C   UNL     1       0.991  10.823  19.527  0.00  0.00    +0.000 A 
ATOM     15  C   UNL     1      -0.161  11.514  19.911  0.00  0.00    +0.000 A 
ATOM     16  C   UNL     1      -1.391  11.276  19.292  0.00  0.00    +0.000 A 
ATOM     17  C   UNL     1      -1.440  10.334  18.255  0.00  0.00    +0.000 A 
ATOM     18 CL   UNL     1      -2.885   9.868  17.426  0.00  0.00    +0.000 Cl
ATOM     19  C   UNL     1      -0.276   9.633  17.881  0.00  0.00    +0.000 A 
BRANCH  16  20
ATOM     20  O   UNL     1      -2.405  11.986  19.875  0.00  0.00    +0.000 OA
BRANCH  20  21
ATOM     21  C   UNL     1      -2.114  12.790  21.012  0.00  0.00    +0.000 C 
BRANCH  21  22
ATOM     22  C   UNL     1      -3.341  12.932  21.891  0.00  0.00    +0.000 A 
ATOM     23  C   UNL     1      -4.591  13.307  21.371  0.00  0.00    +0.000 A 
ATOM     24  C   UNL     1      -5.722  13.357  22.192  0.00  0.00    +0.000 A 
ATOM     25  C   UNL     1      -5.619  13.022  23.540  0.00  0.00    +0.000 A 
ATOM     26  C   UNL     1      -4.387  12.645  24.056  0.00  0.00    +0.000 A 
ATOM     27  F   UNL     1      -4.288  12.312  25.351  0.00  0.00    +0.000 F 
ATOM     28  C   UNL     1      -3.254  12.595  23.249  0.00  0.00    +0.000 A 
ENDBRANCH  21  22
ENDBRANCH  20  21
ENDBRANCH  16  20
ENDBRANCH   9  13
BRANCH   1  32
ATOM     29  N   UNL     1       6.733   5.429  13.780  0.00  0.00    +0.000 N 
ATOM     30  C   UNL     1       6.307   5.062  15.033  0.00  0.00    +0.000 C 
ATOM     31  O   UNL     1       6.570   3.963  15.511  0.00  0.00    +0.000 OA
ATOM     32  N   UNL     1       5.510   6.037  15.610  0.00  0.00    +0.000 N 
ATOM     33  H   UNL     1       6.835   6.414  13.585  0.00  0.00    +0.000 HD
ATOM     34  H   UNL     1       5.167   6.742  14.973  0.00  0.00    +0.000 HD
BRANCH  29  36
ATOM     35  C   UNL     1       6.612   3.627  12.095  0.00  0.00    +0.000 C 
ATOM     36  C   UNL     1       7.497   4.496  12.973  0.00  0.00    +0.000 C 
ENDBRANCH  29  36
ENDBRANCH   1  32
TORSDOF 6
ENDMDL
MODEL 5
REMARK VINA RESULT:      -7.9      2.230      2.578
REMARK  Name = 
REMARK  7 active torsions:
REMARK  status: ('A' for Active; 'I' for Inactive)
REMARK    1  A    between atoms: C_1  and  C_2
REMARK    2  A    between atoms: C_2  and  N_3
REMARK    3  A    between atoms: N_6  and  C_7
REMARK    4  A    between atoms: N_15  and  C_16
REMARK    5  A    between atoms: C_19  and  O_20
REMARK    6  A    between atoms: O_20  and  C_21
REMARK    7  A    between atoms: C_21  and  C_22
REMARK                            x       y       z     vdW  Elec       q    Type
REMARK                         _______ _______ _______ _____ _____    ______ ____
ROOT
ATOM      1  C   UNL     1       4.601   5.130  16.883  0.00  0.00    +0.000 A 
ATOM      2  C   UNL     1       4.553   3.799  17.280  0.00  0.00    +0.000 A 
ATOM      3  C   UNL     1       3.857   3.430  18.431  0.00  0.00    +0.000 A 
ATOM      4  C   UNL     1       3.177   4.356  19.200  0.00  0.00    +0.000 A 
ATOM      5  N   UNL     1       2.499   3.884  20.245  0.00  0.00    +0.000 NA
ATOM      6  C   UNL     1       1.801   4.771  20.948  0.00  0.00    +0.000 A 
ATOM      7  N   UNL     1       1.720   6.074  20.687  0.00  0.00    +0.000 NA
ATOM      8  C   UNL     1       2.401   6.551  19.628  0.00  0.00    +0.000 A 
ATOM      9  N   UNL     1       2.254   7.939  19.306  0.00  0.00    +0.000 N 
ATOM     10  C   UNL     1       3.212   5.711  18.830  0.00  0.00    +0.000 A 
ATOM     11  C   UNL     1       3.981   6.093  17.690  0.00  0.00    +0.000 A 
ATOM     12  H   UNL     1       2.231   8.038  18.298  0.00  0.00    +0.000 HD
ENDROOT
BRANCH   9  13
ATOM     13  C   UNL     1       1.259   8.773  19.896  0.00  0.00    +0.000 A 
ATOM     14  C   UNL     1       0.544   9.714  19.153  0.00  0.00    +0.000 A 
ATOM     15  C   UNL     1      -0.291  10.642  19.782  0.00  0.00    +0.000 A 
ATOM     16  C   UNL     1      -0.488  10.620  21.166  0.00  0.00    +0.000 A 
ATOM     17  C   UNL     1       0.160   9.627  21.912  0.00  0.00    +0.000 A 
ATOM     18 CL   UNL     1       0.081   9.493  23.635  0.00  0.00    +0.000 Cl
ATOM     19  C   UNL     1       1.009   8.702  21.272  0.00  0.00    +0.000 A 
BRANCH  16  20
ATOM     20  O   UNL     1      -1.264  11.664  21.589  0.00  0.00    +0.000 OA
BRANCH  20  21
ATOM     21  C   UNL     1      -0.633  12.794  22.181  0.00  0.00    +0.000 C 
BRANCH  21  22
ATOM     22  C   UNL     1      -1.559  13.457  23.182  0.00  0.00    +0.000 A 
ATOM     23  C   UNL     1      -2.842  12.956  23.457  0.00  0.00    +0.000 A 
ATOM     24  C   UNL     1      -3.645  13.543  24.440  0.00  0.00    +0.000 A 
ATOM     25  C   UNL     1      -3.169  14.631  25.168  0.00  0.00    +0.000 A 
ATOM     26  C   UNL     1      -1.900  15.126  24.903  0.00  0.00    +0.000 A 
ATOM     27  F   UNL     1      -1.436  16.166  25.609  0.00  0.00    +0.000 F 
ATOM     28  C   UNL     1      -1.094  14.551  23.925  0.00  0.00    +0.000 A 
ENDBRANCH  21  22
ENDBRANCH  20  21
ENDBRANCH  16  20
ENDBRANCH   9  13
BRANCH   1  32
ATOM     29  N   UNL     1       6.684   5.535  13.932  0.00  0.00    +0.000 N 
ATOM     30  C   UNL     1       6.401   5.037  15.181  0.00  0.00    +0.000 C 
ATOM     31  O   UNL     1       7.117   4.201  15.723  0.00  0.00    +0.000 OA
ATOM     32  N   UNL     1       5.205   5.534  15.672  0.00  0.00    +0.000 N 
ATOM     33  H   UNL     1       6.325   6.447  13.694  0.00  0.00    +0.000 HD
ATOM     34  H   UNL     1       4.613   5.981  14.986  0.00  0.00    +0.000 HD
BRANCH  29  36
ATOM     35  C   UNL     1       7.475   4.383  11.894  0.00  0.00    +0.000 C 
ATOM     36  C   UNL     1       7.846   5.053  13.207  0.00  0.00    +0.000 C 
ENDBRANCH  29  36
ENDBRANCH   1  32
TORSDOF 6
ENDMDL
MODEL 6
REMARK VINA RESULT:      -7.9      1.684      2.265
REMARK  Name = 
REMARK  7 active torsions:
REMARK  status: ('A' for Active; 'I' for Inactive)
REMARK    1  A    between atoms: C_1  and  C_2
REMARK    2  A    between atoms: C_2  and  N_3
REMARK    3  A    between atoms: N_6  and  C_7
REMARK    4  A    between atoms: N_15  and  C_16
REMARK    5  A    between atoms: C_19  and  O_20
REMARK    6  A    between atoms: O_20  and  C_21
REMARK    7  A    between atoms: C_21  and  C_22
REMARK                            x       y       z     vdW  Elec       q    Type
REMARK                         _______ _______ _______ _____ _____    ______ ____
ROOT
ATOM      1  C   UNL     1       4.139   3.741  16.959  0.00  0.00    +0.000 A 
ATOM      2  C   UNL     1       3.860   2.466  17.434  0.00  0.00    +0.000 A 
ATOM      3  C   UNL     1       3.191   2.293  18.645  0.00  0.00    +0.000 A 
ATOM      4  C   UNL     1       2.762   3.369  19.400  0.00  0.00    +0.000 A 
ATOM      5  N   UNL     1       2.082   3.088  20.510  0.00  0.00    +0.000 NA
ATOM      6  C   UNL     1       1.623   4.126  21.203  0.00  0.00    +0.000 A 
ATOM      7  N   UNL     1       1.779   5.406  20.873  0.00  0.00    +0.000 NA
ATOM      8  C   UNL     1       2.463   5.691  19.749  0.00  0.00    +0.000 A 
ATOM      9  N   UNL     1       2.567   7.065  19.357  0.00  0.00    +0.000 N 
ATOM     10  C   UNL     1       3.034   4.672  18.952  0.00  0.00    +0.000 A 
ATOM     11  C   UNL     1       3.779   4.844  17.746  0.00  0.00    +0.000 A 
ATOM     12  H   UNL     1       2.491   7.122  18.348  0.00  0.00    +0.000 HD
ENDROOT
BRANCH   9  13
ATOM     13  C   UNL     1       1.799   8.105  19.959  0.00  0.00    +0.000 A 
ATOM     14  C   UNL     1       1.559   8.151  21.333  0.00  0.00    +0.000 A 
ATOM     15  C   UNL     1       0.658   9.071  21.875  0.00  0.00    +0.000 A 
ATOM     16  C   UNL     1       0.013  10.016  21.071  0.00  0.00    +0.000 A 
ATOM     17  C   UNL     1       0.309  10.033  19.701  0.00  0.00    +0.000 A 
ATOM     18 CL   UNL     1      -0.443  11.086  18.553  0.00  0.00    +0.000 Cl
ATOM     19  C   UNL     1       1.211   9.095  19.161  0.00  0.00    +0.000 A 
BRANCH  16  20
ATOM     20  O   UNL     1      -0.894  10.757  21.778  0.00  0.00    +0.000 OA
BRANCH  20  21
ATOM     21  C   UNL     1      -0.589  12.115  22.074  0.00  0.00    +0.000 C 
BRANCH  21  22
ATOM     22  C   UNL     1      -1.751  12.778  22.787  0.00  0.00    +0.000 A 
ATOM     23  C   UNL     1      -2.005  14.155  22.678  0.00  0.00    +0.000 A 
ATOM     24  C   UNL     1      -3.128  14.727  23.285  0.00  0.00    +0.000 A 
ATOM     25  C   UNL     1      -4.016  13.926  24.000  0.00  0.00    +0.000 A 
ATOM     26  C   UNL     1      -3.771  12.564  24.105  0.00  0.00    +0.000 A 
ATOM     27  F   UNL     1      -4.630  11.789  24.783  0.00  0.00    +0.000 F 
ATOM     28  C   UNL     1      -2.656  11.985  23.508  0.00  0.00    +0.000 A 
ENDBRANCH  21  22
ENDBRANCH  20  21
ENDBRANCH  16  20
ENDBRANCH   9  13
BRANCH   1  32
ATOM     29  N   UNL     1       6.325   4.489  14.153  0.00  0.00    +0.000 N 
ATOM     30  C   UNL     1       5.985   4.491  15.484  0.00  0.00    +0.000 C 
ATOM     31  O   UNL     1       6.769   4.861  16.353  0.00  0.00    +0.000 OA
ATOM     32  N   UNL     1       4.722   3.964  15.691  0.00  0.00    +0.000 N 
ATOM     33  H   UNL     1       5.581   4.553  13.475  0.00  0.00    +0.000 HD
ATOM     34  H   UNL     1       4.338   3.453  14.909  0.00  0.00    +0.000 HD
BRANCH  29  36
ATOM     35  C   UNL     1       7.716   5.290  12.274  0.00  0.00    +0.000 C 
ATOM     36  C   UNL     1       7.653   4.910  13.744  0.00  0.00    +0.000 C 
ENDBRANCH  29  36
ENDBRANCH   1  32
TORSDOF 6
ENDMDL
MODEL 7
REMARK VINA RESULT:      -7.9      2.654      3.059
REMARK  Name = 
REMARK  7 active torsions:
REMARK  status: ('A' for Active; 'I' for Inactive)
REMARK    1  A    between atoms: C_1  and  C_2
REMARK    2  A    between atoms: C_2  and  N_3
REMARK    3  A    between atoms: N_6  and  C_7
REMARK    4  A    between atoms: N_15  and  C_16
REMARK    5  A    between atoms: C_19  and  O_20
REMARK    6  A    between atoms: O_20  and  C_21
REMARK    7  A    between atoms: C_21  and  C_22
REMARK                            x       y       z     vdW  Elec       q    Type
REMARK                         _______ _______ _______ _____ _____    ______ ____
ROOT
ATOM      1  C   UNL     1       5.326   4.628  16.888  0.00  0.00    +0.000 A 
ATOM      2  C   UNL     1       4.979   3.286  16.984  0.00  0.00    +0.000 A 
ATOM      3  C   UNL     1       3.912   2.887  17.788  0.00  0.00    +0.000 A 
ATOM      4  C   UNL     1       3.152   3.800  18.495  0.00  0.00    +0.000 A 
ATOM      5  N   UNL     1       2.122   3.314  19.186  0.00  0.00    +0.000 NA
ATOM      6  C   UNL     1       1.360   4.202  19.818  0.00  0.00    +0.000 A 
ATOM      7  N   UNL     1       1.539   5.521  19.807  0.00  0.00    +0.000 NA
ATOM      8  C   UNL     1       2.577   6.014  19.106  0.00  0.00    +0.000 A 
ATOM      9  N   UNL     1       2.724   7.437  19.035  0.00  0.00    +0.000 N 
ATOM     10  C   UNL     1       3.481   5.164  18.427  0.00  0.00    +0.000 A 
ATOM     11  C   UNL     1       4.615   5.561  17.656  0.00  0.00    +0.000 A 
ATOM     12  H   UNL     1       3.036   7.686  18.103  0.00  0.00    +0.000 HD
ENDROOT
BRANCH   9  13
ATOM     13  C   UNL     1       1.713   8.346  19.465  0.00  0.00    +0.000 A 
ATOM     14  C   UNL     1       1.101   9.244  18.589  0.00  0.00    +0.000 A 
ATOM     15  C   UNL     1       0.249  10.244  19.064  0.00  0.00    +0.000 A 
ATOM     16  C   UNL     1      -0.070  10.342  20.422  0.00  0.00    +0.000 A 
ATOM     17  C   UNL     1       0.473   9.393  21.300  0.00  0.00    +0.000 A 
ATOM     18 CL   UNL     1       0.239   9.403  23.014  0.00  0.00    +0.000 Cl
ATOM     19  C   UNL     1       1.340   8.395  20.815  0.00  0.00    +0.000 A 
BRANCH  16  20
ATOM     20  O   UNL     1      -0.841  11.439  20.690  0.00  0.00    +0.000 OA
BRANCH  20  21
ATOM     21  C   UNL     1      -1.252  12.270  19.610  0.00  0.00    +0.000 C 
BRANCH  21  22
ATOM     22  C   UNL     1      -2.747  12.151  19.387  0.00  0.00    +0.000 A 
ATOM     23  C   UNL     1      -3.681  12.642  20.314  0.00  0.00    +0.000 A 
ATOM     24  C   UNL     1      -5.053  12.587  20.046  0.00  0.00    +0.000 A 
ATOM     25  C   UNL     1      -5.506  12.049  18.844  0.00  0.00    +0.000 A 
ATOM     26  C   UNL     1      -4.586  11.567  17.923  0.00  0.00    +0.000 A 
ATOM     27  F   UNL     1      -5.019  11.060  16.761  0.00  0.00    +0.000 F 
ATOM     28  C   UNL     1      -3.219  11.615  18.180  0.00  0.00    +0.000 A 
ENDBRANCH  21  22
ENDBRANCH  20  21
ENDBRANCH  16  20
ENDBRANCH   9  13
BRANCH   1  32
ATOM     29  N   UNL     1       7.494   5.342  14.059  0.00  0.00    +0.000 N 
ATOM     30  C   UNL     1       6.509   4.638  14.709  0.00  0.00    +0.000 C 
ATOM     31  O   UNL     1       5.848   3.774  14.143  0.00  0.00    +0.000 OA
ATOM     32  N   UNL     1       6.331   5.086  16.008  0.00  0.00    +0.000 N 
ATOM     33  H   UNL     1       8.237   5.738  14.614  0.00  0.00    +0.000 HD
ATOM     34  H   UNL     1       6.755   5.980  16.214  0.00  0.00    +0.000 HD
BRANCH  29  36
ATOM     35  C   UNL     1       8.361   6.290  11.949  0.00  0.00    +0.000 C 
ATOM     36  C   UNL     1       7.758   5.087  12.655  0.00  0.00    +0.000 C 
ENDBRANCH  29  36
ENDBRANCH   1  32
TORSDOF 6
ENDMDL
MODEL 8
REMARK VINA RESULT:      -7.9      2.042      2.475
REMARK  Name = 
REMARK  7 active torsions:
REMARK  status: ('A' for Active; 'I' for Inactive)
REMARK    1  A    between atoms: C_1  and  C_2
REMARK    2  A    between atoms: C_2  and  N_3
REMARK    3  A    between atoms: N_6  and  C_7
REMARK    4  A    between atoms: N_15  and  C_16
REMARK    5  A    between atoms: C_19  and  O_20
REMARK    6  A    between atoms: O_20  and  C_21
REMARK    7  A    between atoms: C_21  and  C_22
REMARK                            x       y       z     vdW  Elec       q    Type
REMARK                         _______ _______ _______ _____ _____    ______ ____
ROOT
ATOM      1  C   UNL     1       4.206   4.140  16.886  0.00  0.00    +0.000 A 
ATOM      2  C   UNL     1       3.998   2.873  17.416  0.00  0.00    +0.000 A 
ATOM      3  C   UNL     1       3.327   2.714  18.628  0.00  0.00    +0.000 A 
ATOM      4  C   UNL     1       2.828   3.795  19.331  0.00  0.00    +0.000 A 
ATOM      5  N   UNL     1       2.154   3.524  20.447  0.00  0.00    +0.000 NA
ATOM      6  C   UNL     1       1.628   4.562  21.089  0.00  0.00    +0.000 A 
ATOM      7  N   UNL     1       1.711   5.834  20.703  0.00  0.00    +0.000 NA
ATOM      8  C   UNL     1       2.388   6.109  19.572  0.00  0.00    +0.000 A 
ATOM      9  N   UNL     1       2.415   7.467  19.120  0.00  0.00    +0.000 N 
ATOM     10  C   UNL     1       3.027   5.091  18.827  0.00  0.00    +0.000 A 
ATOM     11  C   UNL     1       3.773   5.253  17.620  0.00  0.00    +0.000 A 
ATOM     12  H   UNL     1       2.346   7.475  18.109  0.00  0.00    +0.000 HD
ENDROOT
BRANCH   9  13
ATOM     13  C   UNL     1       1.581   8.486  19.669  0.00  0.00    +0.000 A 
ATOM     14  C   UNL     1       1.128   9.564  18.907  0.00  0.00    +0.000 A 
ATOM     15  C   UNL     1       0.467  10.640  19.505  0.00  0.00    +0.000 A 
ATOM     16  C   UNL     1       0.181  10.646  20.874  0.00  0.00    +0.000 A 
ATOM     17  C   UNL     1       0.558   9.531  21.634  0.00  0.00    +0.000 A 
ATOM     18 CL   UNL     1       0.342   9.398  23.346  0.00  0.00    +0.000 Cl
ATOM     19  C   UNL     1       1.233   8.455  21.025  0.00  0.00    +0.000 A 
BRANCH  16  20
ATOM     20  O   UNL     1      -0.385  11.826  21.274  0.00  0.00    +0.000 OA
BRANCH  20  21
ATOM     21  C   UNL     1      -1.560  12.282  20.614  0.00  0.00    +0.000 C 
BRANCH  21  22
ATOM     22  C   UNL     1      -2.700  12.434  21.602  0.00  0.00    +0.000 A 
ATOM     23  C   UNL     1      -2.512  12.286  22.986  0.00  0.00    +0.000 A 
ATOM     24  C   UNL     1      -3.565  12.507  23.880  0.00  0.00    +0.000 A 
ATOM     25  C   UNL     1      -4.815  12.889  23.401  0.00  0.00    +0.000 A 
ATOM     26  C   UNL     1      -5.004  13.042  22.034  0.00  0.00    +0.000 A 
ATOM     27  F   UNL     1      -6.204  13.420  21.572  0.00  0.00    +0.000 F 
ATOM     28  C   UNL     1      -3.964  12.822  21.136  0.00  0.00    +0.000 A 
ENDBRANCH  21  22
ENDBRANCH  20  21
ENDBRANCH  16  20
ENDBRANCH   9  13
BRANCH   1  32
ATOM     29  N   UNL     1       6.414   4.728  14.059  0.00  0.00    +0.000 N 
ATOM     30  C   UNL     1       6.102   4.718  15.397  0.00  0.00    +0.000 C 
ATOM     31  O   UNL     1       6.941   4.955  16.261  0.00  0.00    +0.000 OA
ATOM     32  N   UNL     1       4.787   4.340  15.614  0.00  0.00    +0.000 N 
ATOM     33  H   UNL     1       5.671   4.909  13.402  0.00  0.00    +0.000 HD
ATOM     34  H   UNL     1       4.329   3.911  14.823  0.00  0.00    +0.000 HD
BRANCH  29  36
ATOM     35  C   UNL     1       7.854   5.450  12.186  0.00  0.00    +0.000 C 
ATOM     36  C   UNL     1       7.775   5.000  13.636  0.00  0.00    +0.000 C 
ENDBRANCH  29  36
ENDBRANCH   1  32
TORSDOF 6
ENDMDL
MODEL 9
REMARK VINA RESULT:      -7.9      2.524      2.895
REMARK  Name = 
REMARK  7 active torsions:
REMARK  status: ('A' for Active; 'I' for Inactive)
REMARK    1  A    between atoms: C_1  and  C_2
REMARK    2  A    between atoms: C_2  and  N_3
REMARK    3  A    between atoms: N_6  and  C_7
REMARK    4  A    between atoms: N_15  and  C_16
REMARK    5  A    between atoms: C_19  and  O_20
REMARK    6  A    between atoms: O_20  and  C_21
REMARK    7  A    between atoms: C_21  and  C_22
REMARK                            x       y       z     vdW  Elec       q    Type
REMARK                         _______ _______ _______ _____ _____    ______ ____
ROOT
ATOM      1  C   UNL     1       4.649   5.042  16.937  0.00  0.00    +0.000 A 
ATOM      2  C   UNL     1       4.634   3.735  17.408  0.00  0.00    +0.000 A 
ATOM      3  C   UNL     1       3.954   3.415  18.583  0.00  0.00    +0.000 A 
ATOM      4  C   UNL     1       3.259   4.367  19.305  0.00  0.00    +0.000 A 
ATOM      5  N   UNL     1       2.599   3.940  20.380  0.00  0.00    +0.000 NA
ATOM      6  C   UNL     1       1.886   4.850  21.038  0.00  0.00    +0.000 A 
ATOM      7  N   UNL     1       1.773   6.133  20.705  0.00  0.00    +0.000 NA
ATOM      8  C   UNL     1       2.437   6.566  19.616  0.00  0.00    +0.000 A 
ATOM      9  N   UNL     1       2.256   7.929  19.218  0.00  0.00    +0.000 N 
ATOM     10  C   UNL     1       3.261   5.700  18.860  0.00  0.00    +0.000 A 
ATOM     11  C   UNL     1       4.013   6.035  17.694  0.00  0.00    +0.000 A 
ATOM     12  H   UNL     1       2.224   7.972  18.206  0.00  0.00    +0.000 HD
ENDROOT
BRANCH   9  13
ATOM     13  C   UNL     1       1.246   8.773  19.769  0.00  0.00    +0.000 A 
ATOM     14  C   UNL     1       0.549   9.699  18.992  0.00  0.00    +0.000 A 
ATOM     15  C   UNL     1      -0.302  10.637  19.582  0.00  0.00    +0.000 A 
ATOM     16  C   UNL     1      -0.532  10.642  20.962  0.00  0.00    +0.000 A 
ATOM     17  C   UNL     1       0.099   9.663  21.742  0.00  0.00    +0.000 A 
ATOM     18 CL   UNL     1      -0.020   9.561  23.465  0.00  0.00    +0.000 Cl
ATOM     19  C   UNL     1       0.964   8.728  21.140  0.00  0.00    +0.000 A 
BRANCH  16  20
ATOM     20  O   UNL     1      -1.319  11.692  21.346  0.00  0.00    +0.000 OA
BRANCH  20  21
ATOM     21  C   UNL     1      -1.799  12.591  20.353  0.00  0.00    +0.000 C 
BRANCH  21  22
ATOM     22  C   UNL     1      -3.298  12.442  20.180  0.00  0.00    +0.000 A 
ATOM     23  C   UNL     1      -4.206  12.830  21.179  0.00  0.00    +0.000 A 
ATOM     24  C   UNL     1      -5.585  12.752  20.963  0.00  0.00    +0.000 A 
ATOM     25  C   UNL     1      -6.073  12.296  19.740  0.00  0.00    +0.000 A 
ATOM     26  C   UNL     1      -5.179  11.917  18.749  0.00  0.00    +0.000 A 
ATOM     27  F   UNL     1      -5.646  11.488  17.568  0.00  0.00    +0.000 F 
ATOM     28  C   UNL     1      -3.804  11.988  18.954  0.00  0.00    +0.000 A 
ENDBRANCH  21  22
ENDBRANCH  20  21
ENDBRANCH  16  20
ENDBRANCH   9  13
BRANCH   1  32
ATOM     29  N   UNL     1       6.808   5.488  14.047  0.00  0.00    +0.000 N 
ATOM     30  C   UNL     1       6.551   5.135  15.349  0.00  0.00    +0.000 C 
ATOM     31  O   UNL     1       7.399   4.596  16.054  0.00  0.00    +0.000 OA
ATOM     32  N   UNL     1       5.236   5.391  15.701  0.00  0.00    +0.000 N 
ATOM     33  H   UNL     1       6.263   6.235  13.643  0.00  0.00    +0.000 HD
ATOM     34  H   UNL     1       4.612   5.566  14.925  0.00  0.00    +0.000 HD
BRANCH  29  36
ATOM     35  C   UNL     1       8.349   5.983  12.181  0.00  0.00    +0.000 C 
ATOM     36  C   UNL     1       8.105   5.203  13.462  0.00  0.00    +0.000 C 
ENDBRANCH  29  36
ENDBRANCH   1  32
TORSDOF 6
ENDMDL
