MODEL 1
REMARK VINA RESULT:      -6.9      0.000      0.000
REMARK  Name = 
REMARK  9 active torsions:
REMARK  status: ('A' for Active; 'I' for Inactive)
REMARK    1  A    between atoms: C_1  and  O_2
REMARK    2  A    between atoms: O_2  and  C_3
REMARK    3  A    between atoms: C_7  and  O_8
REMARK    4  A    between atoms: C_9  and  O_10
REMARK    5  A    between atoms: C_14  and  O_15
REMARK    6  A    between atoms: C_14  and  C_16
REMARK    7  A    between atoms: C_16  and  C_17
REMARK    8  A    between atoms: C_20  and  O_21
REMARK    9  A    between atoms: C_22  and  O_23
REMARK                            x       y       z     vdW  Elec       q    Type
REMARK                         _______ _______ _______ _____ _____    ______ ____
ROOT
ATOM      1  C   UNL     1       4.281   3.367  19.063  0.00  0.00    +0.000 C 
ATOM      2  C   UNL     1       5.244   4.364  18.437  0.00  0.00    +0.000 A 
ATOM      3  C   UNL     1       6.007   5.224  19.249  0.00  0.00    +0.000 A 
ATOM      4  C   UNL     1       6.898   6.146  18.686  0.00  0.00    +0.000 A 
ATOM      5  C   UNL     1       7.029   6.205  17.305  0.00  0.00    +0.000 A 
ATOM      6  C   UNL     1       6.294   5.350  16.490  0.00  0.00    +0.000 A 
ATOM      7  C   UNL     1       5.418   4.414  17.042  0.00  0.00    +0.000 A 
ATOM      8  O   UNL     1       4.726   3.623  16.165  0.00  0.00    +0.000 OA
ATOM      9  C   UNL     1       4.053   2.521  16.758  0.00  0.00    +0.000 C 
ATOM     10  C   UNL     1       3.236   2.906  18.004  0.00  0.00    +0.000 C 
ENDROOT
BRANCH   1  12
ATOM     11  C   UNL     1       4.796   1.764  20.796  0.00  0.00    +0.000 C 
ATOM     12  O   UNL     1       5.139   2.303  19.527  0.00  0.00    +0.000 OA
ENDBRANCH   1  12
BRANCH   5  13
ATOM     13  O   UNL     1       7.873   7.094  16.694  0.00  0.00    +0.000 OA
ATOM     14  H   UNL     1       7.643   7.990  16.997  0.00  0.00    +0.000 HD
ENDBRANCH   5  13
BRANCH   6  15
ATOM     15  O   UNL     1       6.443   5.443  15.128  0.00  0.00    +0.000 OA
ATOM     16  H   UNL     1       6.892   6.299  14.989  0.00  0.00    +0.000 HD
ENDBRANCH   6  15
BRANCH  10  17
ATOM     17  O   UNL     1       2.482   1.753  18.436  0.00  0.00    +0.000 OA
ATOM     18  H   UNL     1       1.546   1.895  18.205  0.00  0.00    +0.000 HD
ENDBRANCH  10  17
BRANCH  10  19
ATOM     19  C   UNL     1       2.203   4.019  17.649  0.00  0.00    +0.000 C 
BRANCH  19  20
ATOM     20  C   UNL     1       2.091   5.177  18.625  0.00  0.00    +0.000 A 
ATOM     21  C   UNL     1       1.715   4.966  19.965  0.00  0.00    +0.000 A 
ATOM     22  C   UNL     1       1.597   6.032  20.862  0.00  0.00    +0.000 A 
ATOM     23  C   UNL     1       1.837   7.321  20.412  0.00  0.00    +0.000 A 
ATOM     24  C   UNL     1       2.185   7.547  19.084  0.00  0.00    +0.000 A 
ATOM     25  C   UNL     1       2.315   6.491  18.189  0.00  0.00    +0.000 A 
BRANCH  23  26
ATOM     26  O   UNL     1       1.737   8.406  21.239  0.00  0.00    +0.000 OA
ATOM     27  H   UNL     1       1.579   8.080  22.142  0.00  0.00    +0.000 HD
ENDBRANCH  23  26
BRANCH  24  28
ATOM     28  O   UNL     1       2.397   8.823  18.645  0.00  0.00    +0.000 OA
ATOM     29  H   UNL     1       1.806   9.370  19.199  0.00  0.00    +0.000 HD
ENDBRANCH  24  28
ENDBRANCH  19  20
ENDBRANCH  10  19
TORSDOF 8
ENDMDL
MODEL 2
REMARK VINA RESULT:      -6.5      2.053      2.700
REMARK  Name = 
REMARK  9 active torsions:
REMARK  status: ('A' for Active; 'I' for Inactive)
REMARK    1  A    between atoms: C_1  and  O_2
REMARK    2  A    between atoms: O_2  and  C_3
REMARK    3  A    between atoms: C_7  and  O_8
REMARK    4  A    between atoms: C_9  and  O_10
REMARK    5  A    between atoms: C_14  and  O_15
REMARK    6  A    between atoms: C_14  and  C_16
REMARK    7  A    between atoms: C_16  and  C_17
REMARK    8  A    between atoms: C_20  and  O_21
REMARK    9  A    between atoms: C_22  and  O_23
REMARK                            x       y       z     vdW  Elec       q    Type
REMARK                         _______ _______ _______ _____ _____    ______ ____
ROOT
ATOM      1  C   UNL     1       3.783   4.604  19.649  0.00  0.00    +0.000 C 
ATOM      2  C   UNL     1       4.816   4.949  18.590  0.00  0.00    +0.000 A 
ATOM      3  C   UNL     1       6.142   4.490  18.711  0.00  0.00    +0.000 A 
ATOM      4  C   UNL     1       7.105   4.800  17.741  0.00  0.00    +0.000 A 
ATOM      5  C   UNL     1       6.738   5.570  16.645  0.00  0.00    +0.000 A 
ATOM      6  C   UNL     1       5.429   6.017  16.503  0.00  0.00    +0.000 A 
ATOM      7  C   UNL     1       4.457   5.696  17.454  0.00  0.00    +0.000 A 
ATOM      8  O   UNL     1       3.198   6.189  17.240  0.00  0.00    +0.000 OA
ATOM      9  C   UNL     1       2.190   5.633  18.073  0.00  0.00    +0.000 C 
ATOM     10  C   UNL     1       2.584   5.594  19.561  0.00  0.00    +0.000 C 
ENDROOT
BRANCH   1  12
ATOM     11  C   UNL     1       3.656   2.311  20.402  0.00  0.00    +0.000 C 
ATOM     12  O   UNL     1       3.425   3.238  19.350  0.00  0.00    +0.000 OA
ENDBRANCH   1  12
BRANCH   5  13
ATOM     13  O   UNL     1       7.636   5.918  15.671  0.00  0.00    +0.000 OA
ATOM     14  H   UNL     1       8.489   6.112  16.099  0.00  0.00    +0.000 HD
ENDBRANCH   5  13
BRANCH   6  15
ATOM     15  O   UNL     1       5.105   6.783  15.410  0.00  0.00    +0.000 OA
ATOM     16  H   UNL     1       4.242   7.177  15.635  0.00  0.00    +0.000 HD
ENDBRANCH   6  15
BRANCH  10  17
ATOM     17  O   UNL     1       1.444   5.153  20.328  0.00  0.00    +0.000 OA
ATOM     18  H   UNL     1       0.855   4.647  19.739  0.00  0.00    +0.000 HD
ENDBRANCH  10  17
BRANCH  10  19
ATOM     19  C   UNL     1       2.944   7.027  20.061  0.00  0.00    +0.000 C 
BRANCH  19  20
ATOM     20  C   UNL     1       1.827   8.055  20.034  0.00  0.00    +0.000 A 
ATOM     21  C   UNL     1       0.959   8.216  21.129  0.00  0.00    +0.000 A 
ATOM     22  C   UNL     1      -0.080   9.152  21.099  0.00  0.00    +0.000 A 
ATOM     23  C   UNL     1      -0.265   9.918  19.958  0.00  0.00    +0.000 A 
ATOM     24  C   UNL     1       0.570   9.751  18.858  0.00  0.00    +0.000 A 
ATOM     25  C   UNL     1       1.612   8.831  18.885  0.00  0.00    +0.000 A 
BRANCH  23  26
ATOM     26  O   UNL     1      -1.264  10.849  19.866  0.00  0.00    +0.000 OA
ATOM     27  H   UNL     1      -1.823  10.614  19.105  0.00  0.00    +0.000 HD
ENDBRANCH  23  26
BRANCH  24  28
ATOM     28  O   UNL     1       0.365  10.495  17.731  0.00  0.00    +0.000 OA
ATOM     29  H   UNL     1       0.322  11.416  18.055  0.00  0.00    +0.000 HD
ENDBRANCH  24  28
ENDBRANCH  19  20
ENDBRANCH  10  19
TORSDOF 8
ENDMDL
MODEL 3
REMARK VINA RESULT:      -6.4      2.040      2.945
REMARK  Name = 
REMARK  9 active torsions:
REMARK  status: ('A' for Active; 'I' for Inactive)
REMARK    1  A    between atoms: C_1  and  O_2
REMARK    2  A    between atoms: O_2  and  C_3
REMARK    3  A    between atoms: C_7  and  O_8
REMARK    4  A    between atoms: C_9  and  O_10
REMARK    5  A    between atoms: C_14  and  O_15
REMARK    6  A    between atoms: C_14  and  C_16
REMARK    7  A    between atoms: C_16  and  C_17
REMARK    8  A    between atoms: C_20  and  O_21
REMARK    9  A    between atoms: C_22  and  O_23
REMARK                            x       y       z     vdW  Elec       q    Type
REMARK                         _______ _______ _______ _____ _____    ______ ____
ROOT
ATOM      1  C   UNL     1       3.831   4.604  19.571  0.00  0.00    +0.000 C 
ATOM      2  C   UNL     1       4.857   4.951  18.504  0.00  0.00    +0.000 A 
ATOM      3  C   UNL     1       6.184   4.496  18.618  0.00  0.00    +0.000 A 
ATOM      4  C   UNL     1       7.140   4.806  17.641  0.00  0.00    +0.000 A 
ATOM      5  C   UNL     1       6.764   5.573  16.546  0.00  0.00    +0.000 A 
ATOM      6  C   UNL     1       5.453   6.016  16.411  0.00  0.00    +0.000 A 
ATOM      7  C   UNL     1       4.488   5.694  17.369  0.00  0.00    +0.000 A 
ATOM      8  O   UNL     1       3.226   6.183  17.162  0.00  0.00    +0.000 OA
ATOM      9  C   UNL     1       2.226   5.626  18.003  0.00  0.00    +0.000 C 
ATOM     10  C   UNL     1       2.629   5.591  19.488  0.00  0.00    +0.000 C 
ENDROOT
BRANCH   1  12
ATOM     11  C   UNL     1       3.713   2.313  20.330  0.00  0.00    +0.000 C 
ATOM     12  O   UNL     1       3.476   3.237  19.277  0.00  0.00    +0.000 OA
ENDBRANCH   1  12
BRANCH   5  13
ATOM     13  O   UNL     1       7.655   5.922  15.565  0.00  0.00    +0.000 OA
ATOM     14  H   UNL     1       8.538   5.990  15.968  0.00  0.00    +0.000 HD
ENDBRANCH   5  13
BRANCH   6  15
ATOM     15  O   UNL     1       5.120   6.778  15.319  0.00  0.00    +0.000 OA
ATOM     16  H   UNL     1       5.851   6.636  14.689  0.00  0.00    +0.000 HD
ENDBRANCH   6  15
BRANCH  10  17
ATOM     17  O   UNL     1       1.495   5.149  20.264  0.00  0.00    +0.000 OA
ATOM     18  H   UNL     1       1.736   5.184  21.208  0.00  0.00    +0.000 HD
ENDBRANCH  10  17
BRANCH  10  19
ATOM     19  C   UNL     1       2.988   7.026  19.984  0.00  0.00    +0.000 C 
BRANCH  19  20
ATOM     20  C   UNL     1       1.864   8.047  19.975  0.00  0.00    +0.000 A 
ATOM     21  C   UNL     1       1.612   8.843  18.843  0.00  0.00    +0.000 A 
ATOM     22  C   UNL     1       0.587   9.793  18.838  0.00  0.00    +0.000 A 
ATOM     23  C   UNL     1      -0.180   9.964  19.981  0.00  0.00    +0.000 A 
ATOM     24  C   UNL     1       0.074   9.201  21.116  0.00  0.00    +0.000 A 
ATOM     25  C   UNL     1       1.085   8.246  21.125  0.00  0.00    +0.000 A 
BRANCH  23  26
ATOM     26  O   UNL     1      -1.196  10.878  20.040  0.00  0.00    +0.000 OA
ATOM     27  H   UNL     1      -0.802  11.767  20.002  0.00  0.00    +0.000 HD
ENDBRANCH  23  26
BRANCH  24  28
ATOM     28  O   UNL     1      -0.672   9.392  22.244  0.00  0.00    +0.000 OA
ATOM     29  H   UNL     1      -0.085   9.901  22.838  0.00  0.00    +0.000 HD
ENDBRANCH  24  28
ENDBRANCH  19  20
ENDBRANCH  10  19
TORSDOF 8
ENDMDL
MODEL 4
REMARK VINA RESULT:      -6.3      4.733      7.986
REMARK  Name = 
REMARK  9 active torsions:
REMARK  status: ('A' for Active; 'I' for Inactive)
REMARK    1  A    between atoms: C_1  and  O_2
REMARK    2  A    between atoms: O_2  and  C_3
REMARK    3  A    between atoms: C_7  and  O_8
REMARK    4  A    between atoms: C_9  and  O_10
REMARK    5  A    between atoms: C_14  and  O_15
REMARK    6  A    between atoms: C_14  and  C_16
REMARK    7  A    between atoms: C_16  and  C_17
REMARK    8  A    between atoms: C_20  and  O_21
REMARK    9  A    between atoms: C_22  and  O_23
REMARK                            x       y       z     vdW  Elec       q    Type
REMARK                         _______ _______ _______ _____ _____    ______ ____
ROOT
ATOM      1  C   UNL     1       0.694  11.103  18.923  0.00  0.00    +0.000 C 
ATOM      2  C   UNL     1       1.363   9.738  18.914  0.00  0.00    +0.000 A 
ATOM      3  C   UNL     1       2.048   9.288  17.769  0.00  0.00    +0.000 A 
ATOM      4  C   UNL     1       2.670   8.033  17.748  0.00  0.00    +0.000 A 
ATOM      5  C   UNL     1       2.610   7.228  18.877  0.00  0.00    +0.000 A 
ATOM      6  C   UNL     1       1.951   7.666  20.021  0.00  0.00    +0.000 A 
ATOM      7  C   UNL     1       1.346   8.923  20.060  0.00  0.00    +0.000 A 
ATOM      8  O   UNL     1       0.709   9.267  21.223  0.00  0.00    +0.000 OA
ATOM      9  C   UNL     1       0.338  10.635  21.317  0.00  0.00    +0.000 C 
ATOM     10  C   UNL     1      -0.372  11.162  20.057  0.00  0.00    +0.000 C 
ENDROOT
BRANCH   1  12
ATOM     11  C   UNL     1       1.855  13.086  18.171  0.00  0.00    +0.000 C 
ATOM     12  O   UNL     1       1.790  12.024  19.113  0.00  0.00    +0.000 OA
ENDBRANCH   1  12
BRANCH   5  13
ATOM     13  O   UNL     1       3.186   5.985  18.913  0.00  0.00    +0.000 OA
ATOM     14  H   UNL     1       3.469   5.808  19.828  0.00  0.00    +0.000 HD
ENDBRANCH   5  13
BRANCH   6  15
ATOM     15  O   UNL     1       1.905   6.839  21.117  0.00  0.00    +0.000 OA
ATOM     16  H   UNL     1       2.552   7.220  21.739  0.00  0.00    +0.000 HD
ENDBRANCH   6  15
BRANCH  10  17
ATOM     17  O   UNL     1      -0.833  12.505  20.315  0.00  0.00    +0.000 OA
ATOM     18  H   UNL     1      -0.769  13.016  19.487  0.00  0.00    +0.000 HD
ENDBRANCH  10  17
BRANCH  10  19
ATOM     19  C   UNL     1      -1.633  10.298  19.747  0.00  0.00    +0.000 C 
BRANCH  19  20
ATOM     20  C   UNL     1      -2.242  10.459  18.366  0.00  0.00    +0.000 A 
ATOM     21  C   UNL     1      -1.733   9.756  17.259  0.00  0.00    +0.000 A 
ATOM     22  C   UNL     1      -2.283   9.914  15.983  0.00  0.00    +0.000 A 
ATOM     23  C   UNL     1      -3.336  10.798  15.808  0.00  0.00    +0.000 A 
ATOM     24  C   UNL     1      -3.833  11.519  16.889  0.00  0.00    +0.000 A 
ATOM     25  C   UNL     1      -3.300  11.359  18.162  0.00  0.00    +0.000 A 
BRANCH  23  26
ATOM     26  O   UNL     1      -3.916  10.998  14.585  0.00  0.00    +0.000 OA
ATOM     27  H   UNL     1      -3.803  10.185  14.063  0.00  0.00    +0.000 HD
ENDBRANCH  23  26
BRANCH  24  28
ATOM     28  O   UNL     1      -4.857  12.404  16.701  0.00  0.00    +0.000 OA
ATOM     29  H   UNL     1      -4.578  13.203  17.191  0.00  0.00    +0.000 HD
ENDBRANCH  24  28
ENDBRANCH  19  20
ENDBRANCH  10  19
TORSDOF 8
ENDMDL
MODEL 5
REMARK VINA RESULT:      -6.3      1.708      2.302
REMARK  Name = 
REMARK  9 active torsions:
REMARK  status: ('A' for Active; 'I' for Inactive)
REMARK    1  A    between atoms: C_1  and  O_2
REMARK    2  A    between atoms: O_2  and  C_3
REMARK    3  A    between atoms: C_7  and  O_8
REMARK    4  A    between atoms: C_9  and  O_10
REMARK    5  A    between atoms: C_14  and  O_15
REMARK    6  A    between atoms: C_14  and  C_16
REMARK    7  A    between atoms: C_16  and  C_17
REMARK    8  A    between atoms: C_20  and  O_21
REMARK    9  A    between atoms: C_22  and  O_23
REMARK                            x       y       z     vdW  Elec       q    Type
REMARK                         _______ _______ _______ _____ _____    ______ ____
ROOT
ATOM      1  C   UNL     1       5.241   5.391  18.970  0.00  0.00    +0.000 C 
ATOM      2  C   UNL     1       5.845   5.350  17.575  0.00  0.00    +0.000 A 
ATOM      3  C   UNL     1       6.771   6.329  17.171  0.00  0.00    +0.000 A 
ATOM      4  C   UNL     1       7.336   6.302  15.889  0.00  0.00    +0.000 A 
ATOM      5  C   UNL     1       6.975   5.290  15.010  0.00  0.00    +0.000 A 
ATOM      6  C   UNL     1       6.073   4.305  15.402  0.00  0.00    +0.000 A 
ATOM      7  C   UNL     1       5.520   4.312  16.684  0.00  0.00    +0.000 A 
ATOM      8  O   UNL     1       4.632   3.312  16.978  0.00  0.00    +0.000 OA
ATOM      9  C   UNL     1       4.297   3.198  18.354  0.00  0.00    +0.000 C 
ATOM     10  C   UNL     1       3.934   4.545  19.005  0.00  0.00    +0.000 C 
ENDROOT
BRANCH   1  12
ATOM     11  C   UNL     1       7.508   5.598  19.784  0.00  0.00    +0.000 C 
ATOM     12  O   UNL     1       6.289   4.869  19.815  0.00  0.00    +0.000 OA
ENDBRANCH   1  12
BRANCH   5  13
ATOM     13  O   UNL     1       7.481   5.217  13.740  0.00  0.00    +0.000 OA
ATOM     14  H   UNL     1       7.529   6.120  13.380  0.00  0.00    +0.000 HD
ENDBRANCH   5  13
BRANCH   6  15
ATOM     15  O   UNL     1       5.733   3.324  14.503  0.00  0.00    +0.000 OA
ATOM     16  H   UNL     1       5.200   3.785  13.827  0.00  0.00    +0.000 HD
ENDBRANCH   6  15
BRANCH  10  17
ATOM     17  O   UNL     1       3.471   4.298  20.350  0.00  0.00    +0.000 OA
ATOM     18  H   UNL     1       4.212   4.452  20.963  0.00  0.00    +0.000 HD
ENDBRANCH  10  17
BRANCH  10  19
ATOM     19  C   UNL     1       2.757   5.218  18.234  0.00  0.00    +0.000 C 
BRANCH  19  20
ATOM     20  C   UNL     1       2.332   6.595  18.713  0.00  0.00    +0.000 A 
ATOM     21  C   UNL     1       1.917   6.808  20.040  0.00  0.00    +0.000 A 
ATOM     22  C   UNL     1       1.512   8.072  20.479  0.00  0.00    +0.000 A 
ATOM     23  C   UNL     1       1.502   9.127  19.580  0.00  0.00    +0.000 A 
ATOM     24  C   UNL     1       1.885   8.925  18.258  0.00  0.00    +0.000 A 
ATOM     25  C   UNL     1       2.301   7.674  17.817  0.00  0.00    +0.000 A 
BRANCH  23  26
ATOM     26  O   UNL     1       1.114  10.387  19.947  0.00  0.00    +0.000 OA
ATOM     27  H   UNL     1       0.157  10.463  19.790  0.00  0.00    +0.000 HD
ENDBRANCH  23  26
BRANCH  24  28
ATOM     28  O   UNL     1       1.851   9.966  17.374  0.00  0.00    +0.000 OA
ATOM     29  H   UNL     1       1.951  10.761  17.934  0.00  0.00    +0.000 HD
ENDBRANCH  24  28
ENDBRANCH  19  20
ENDBRANCH  10  19
TORSDOF 8
ENDMDL
MODEL 6
REMARK VINA RESULT:      -6.0      1.660      2.532
REMARK  Name = 
REMARK  9 active torsions:
REMARK  status: ('A' for Active; 'I' for Inactive)
REMARK    1  A    between atoms: C_1  and  O_2
REMARK    2  A    between atoms: O_2  and  C_3
REMARK    3  A    between atoms: C_7  and  O_8
REMARK    4  A    between atoms: C_9  and  O_10
REMARK    5  A    between atoms: C_14  and  O_15
REMARK    6  A    between atoms: C_14  and  C_16
REMARK    7  A    between atoms: C_16  and  C_17
REMARK    8  A    between atoms: C_20  and  O_21
REMARK    9  A    between atoms: C_22  and  O_23
REMARK                            x       y       z     vdW  Elec       q    Type
REMARK                         _______ _______ _______ _____ _____    ______ ____
ROOT
ATOM      1  C   UNL     1       5.211   5.348  18.936  0.00  0.00    +0.000 C 
ATOM      2  C   UNL     1       5.829   5.314  17.547  0.00  0.00    +0.000 A 
ATOM      3  C   UNL     1       6.739   6.312  17.148  0.00  0.00    +0.000 A 
ATOM      4  C   UNL     1       7.317   6.292  15.872  0.00  0.00    +0.000 A 
ATOM      5  C   UNL     1       6.986   5.269  14.994  0.00  0.00    +0.000 A 
ATOM      6  C   UNL     1       6.101   4.267  15.380  0.00  0.00    +0.000 A 
ATOM      7  C   UNL     1       5.535   4.267  16.657  0.00  0.00    +0.000 A 
ATOM      8  O   UNL     1       4.665   3.250  16.946  0.00  0.00    +0.000 OA
ATOM      9  C   UNL     1       4.318   3.134  18.319  0.00  0.00    +0.000 C 
ATOM     10  C   UNL     1       3.921   4.476  18.961  0.00  0.00    +0.000 C 
ENDROOT
BRANCH   1  12
ATOM     11  C   UNL     1       7.467   5.601  19.765  0.00  0.00    +0.000 C 
ATOM     12  O   UNL     1       6.260   4.852  19.794  0.00  0.00    +0.000 OA
ENDBRANCH   1  12
BRANCH   5  13
ATOM     13  O   UNL     1       7.507   5.202  13.729  0.00  0.00    +0.000 OA
ATOM     14  H   UNL     1       7.863   4.306  13.594  0.00  0.00    +0.000 HD
ENDBRANCH   5  13
BRANCH   6  15
ATOM     15  O   UNL     1       5.790   3.276  14.482  0.00  0.00    +0.000 OA
ATOM     16  H   UNL     1       6.556   2.671  14.511  0.00  0.00    +0.000 HD
ENDBRANCH   6  15
BRANCH  10  17
ATOM     17  O   UNL     1       3.449   4.223  20.302  0.00  0.00    +0.000 OA
ATOM     18  H   UNL     1       4.196   3.889  20.831  0.00  0.00    +0.000 HD
ENDBRANCH  10  17
BRANCH  10  19
ATOM     19  C   UNL     1       2.738   5.121  18.175  0.00  0.00    +0.000 C 
BRANCH  19  20
ATOM     20  C   UNL     1       2.307   6.507  18.618  0.00  0.00    +0.000 A 
ATOM     21  C   UNL     1       2.210   7.568  17.700  0.00  0.00    +0.000 A 
ATOM     22  C   UNL     1       1.827   8.850  18.109  0.00  0.00    +0.000 A 
ATOM     23  C   UNL     1       1.559   9.077  19.450  0.00  0.00    +0.000 A 
ATOM     24  C   UNL     1       1.675   8.043  20.373  0.00  0.00    +0.000 A 
ATOM     25  C   UNL     1       2.043   6.764  19.973  0.00  0.00    +0.000 A 
BRANCH  23  26
ATOM     26  O   UNL     1       1.182  10.309  19.913  0.00  0.00    +0.000 OA
ATOM     27  H   UNL     1       0.493  10.653  19.319  0.00  0.00    +0.000 HD
ENDBRANCH  23  26
BRANCH  24  28
ATOM     28  O   UNL     1       1.430   8.283  21.695  0.00  0.00    +0.000 OA
ATOM     29  H   UNL     1       2.232   7.960  22.152  0.00  0.00    +0.000 HD
ENDBRANCH  24  28
ENDBRANCH  19  20
ENDBRANCH  10  19
TORSDOF 8
ENDMDL
MODEL 7
REMARK VINA RESULT:      -6.0      1.417      5.456
REMARK  Name = 
REMARK  9 active torsions:
REMARK  status: ('A' for Active; 'I' for Inactive)
REMARK    1  A    between atoms: C_1  and  O_2
REMARK    2  A    between atoms: O_2  and  C_3
REMARK    3  A    between atoms: C_7  and  O_8
REMARK    4  A    between atoms: C_9  and  O_10
REMARK    5  A    between atoms: C_14  and  O_15
REMARK    6  A    between atoms: C_14  and  C_16
REMARK    7  A    between atoms: C_16  and  C_17
REMARK    8  A    between atoms: C_20  and  O_21
REMARK    9  A    between atoms: C_22  and  O_23
REMARK                            x       y       z     vdW  Elec       q    Type
REMARK                         _______ _______ _______ _____ _____    ______ ____
ROOT
ATOM      1  C   UNL     1       2.558   4.587  17.954  0.00  0.00    +0.000 C 
ATOM      2  C   UNL     1       2.247   6.002  18.414  0.00  0.00    +0.000 A 
ATOM      3  C   UNL     1       1.961   7.010  17.474  0.00  0.00    +0.000 A 
ATOM      4  C   UNL     1       1.672   8.319  17.885  0.00  0.00    +0.000 A 
ATOM      5  C   UNL     1       1.666   8.617  19.241  0.00  0.00    +0.000 A 
ATOM      6  C   UNL     1       1.930   7.627  20.182  0.00  0.00    +0.000 A 
ATOM      7  C   UNL     1       2.200   6.316  19.784  0.00  0.00    +0.000 A 
ATOM      8  O   UNL     1       2.461   5.411  20.777  0.00  0.00    +0.000 OA
ATOM      9  C   UNL     1       2.470   4.053  20.359  0.00  0.00    +0.000 C 
ATOM     10  C   UNL     1       3.299   3.814  19.084  0.00  0.00    +0.000 C 
ENDROOT
BRANCH   1  12
ATOM     11  C   UNL     1       0.761   3.091  18.566  0.00  0.00    +0.000 C 
ATOM     12  O   UNL     1       1.263   4.036  17.632  0.00  0.00    +0.000 OA
ENDBRANCH   1  12
BRANCH   5  13
ATOM     13  O   UNL     1       1.405   9.879  19.705  0.00  0.00    +0.000 OA
ATOM     14  H   UNL     1       0.660   9.825  20.329  0.00  0.00    +0.000 HD
ENDBRANCH   5  13
BRANCH   6  15
ATOM     15  O   UNL     1       1.924   7.962  21.514  0.00  0.00    +0.000 OA
ATOM     16  H   UNL     1       2.793   7.664  21.845  0.00  0.00    +0.000 HD
ENDBRANCH   6  15
BRANCH  10  17
ATOM     17  O   UNL     1       3.362   2.394  18.835  0.00  0.00    +0.000 OA
ATOM     18  H   UNL     1       3.710   2.256  17.935  0.00  0.00    +0.000 HD
ENDBRANCH  10  17
BRANCH  10  19
ATOM     19  C   UNL     1       4.765   4.306  19.294  0.00  0.00    +0.000 C 
BRANCH  19  20
ATOM     20  C   UNL     1       5.551   4.644  18.040  0.00  0.00    +0.000 A 
ATOM     21  C   UNL     1       5.575   3.771  16.938  0.00  0.00    +0.000 A 
ATOM     22  C   UNL     1       6.311   4.074  15.788  0.00  0.00    +0.000 A 
ATOM     23  C   UNL     1       7.045   5.250  15.747  0.00  0.00    +0.000 A 
ATOM     24  C   UNL     1       7.050   6.111  16.840  0.00  0.00    +0.000 A 
ATOM     25  C   UNL     1       6.312   5.822  17.982  0.00  0.00    +0.000 A 
BRANCH  23  26
ATOM     26  O   UNL     1       7.786   5.602  14.652  0.00  0.00    +0.000 OA
ATOM     27  H   UNL     1       8.356   4.848  14.422  0.00  0.00    +0.000 HD
ENDBRANCH  23  26
BRANCH  24  28
ATOM     28  O   UNL     1       7.794   7.255  16.798  0.00  0.00    +0.000 OA
ATOM     29  H   UNL     1       8.343   7.157  15.995  0.00  0.00    +0.000 HD
ENDBRANCH  24  28
ENDBRANCH  19  20
ENDBRANCH  10  19
TORSDOF 8
ENDMDL
MODEL 8
REMARK VINA RESULT:      -5.9      5.096      9.641
REMARK  Name = 
REMARK  9 active torsions:
REMARK  status: ('A' for Active; 'I' for Inactive)
REMARK    1  A    between atoms: C_1  and  O_2
REMARK    2  A    between atoms: O_2  and  C_3
REMARK    3  A    between atoms: C_7  and  O_8
REMARK    4  A    between atoms: C_9  and  O_10
REMARK    5  A    between atoms: C_14  and  O_15
REMARK    6  A    between atoms: C_14  and  C_16
REMARK    7  A    between atoms: C_16  and  C_17
REMARK    8  A    between atoms: C_20  and  O_21
REMARK    9  A    between atoms: C_22  and  O_23
REMARK                            x       y       z     vdW  Elec       q    Type
REMARK                         _______ _______ _______ _____ _____    ______ ____
ROOT
ATOM      1  C   UNL     1       0.650  12.308  20.334  0.00  0.00    +0.000 C 
ATOM      2  C   UNL     1      -0.688  12.343  21.056  0.00  0.00    +0.000 A 
ATOM      3  C   UNL     1      -0.761  12.063  22.434  0.00  0.00    +0.000 A 
ATOM      4  C   UNL     1      -1.986  12.093  23.112  0.00  0.00    +0.000 A 
ATOM      5  C   UNL     1      -3.142  12.407  22.410  0.00  0.00    +0.000 A 
ATOM      6  C   UNL     1      -3.083  12.702  21.052  0.00  0.00    +0.000 A 
ATOM      7  C   UNL     1      -1.864  12.695  20.371  0.00  0.00    +0.000 A 
ATOM      8  O   UNL     1      -1.902  12.985  19.033  0.00  0.00    +0.000 OA
ATOM      9  C   UNL     1      -0.634  13.224  18.438  0.00  0.00    +0.000 C 
ATOM     10  C   UNL     1       0.418  12.161  18.801  0.00  0.00    +0.000 C 
ENDROOT
BRANCH   1  12
ATOM     11  C   UNL     1       2.684  13.492  20.883  0.00  0.00    +0.000 C 
ATOM     12  O   UNL     1       1.276  13.555  20.706  0.00  0.00    +0.000 OA
ENDBRANCH   1  12
BRANCH   5  13
ATOM     13  O   UNL     1      -4.371  12.439  23.013  0.00  0.00    +0.000 OA
ATOM     14  H   UNL     1      -4.283  12.054  23.902  0.00  0.00    +0.000 HD
ENDBRANCH   5  13
BRANCH   6  15
ATOM     15  O   UNL     1      -4.248  13.001  20.388  0.00  0.00    +0.000 OA
ATOM     16  H   UNL     1      -4.938  12.507  20.870  0.00  0.00    +0.000 HD
ENDBRANCH   6  15
BRANCH  10  17
ATOM     17  O   UNL     1       1.614  12.415  18.034  0.00  0.00    +0.000 OA
ATOM     18  H   UNL     1       2.383  12.132  18.561  0.00  0.00    +0.000 HD
ENDBRANCH  10  17
BRANCH  10  19
ATOM     19  C   UNL     1      -0.088  10.741  18.399  0.00  0.00    +0.000 C 
BRANCH  19  20
ATOM     20  C   UNL     1       0.821   9.575  18.743  0.00  0.00    +0.000 A 
ATOM     21  C   UNL     1       1.575   8.922  17.751  0.00  0.00    +0.000 A 
ATOM     22  C   UNL     1       2.401   7.838  18.064  0.00  0.00    +0.000 A 
ATOM     23  C   UNL     1       2.459   7.391  19.375  0.00  0.00    +0.000 A 
ATOM     24  C   UNL     1       1.700   8.012  20.362  0.00  0.00    +0.000 A 
ATOM     25  C   UNL     1       0.885   9.097  20.061  0.00  0.00    +0.000 A 
BRANCH  23  26
ATOM     26  O   UNL     1       3.247   6.335  19.745  0.00  0.00    +0.000 OA
ATOM     27  H   UNL     1       3.926   6.214  19.058  0.00  0.00    +0.000 HD
ENDBRANCH  23  26
BRANCH  24  28
ATOM     28  O   UNL     1       1.747   7.549  21.646  0.00  0.00    +0.000 OA
ATOM     29  H   UNL     1       2.324   6.761  21.598  0.00  0.00    +0.000 HD
ENDBRANCH  24  28
ENDBRANCH  19  20
ENDBRANCH  10  19
TORSDOF 8
ENDMDL
MODEL 9
REMARK VINA RESULT:      -5.9      2.585      6.443
REMARK  Name = 
REMARK  9 active torsions:
REMARK  status: ('A' for Active; 'I' for Inactive)
REMARK    1  A    between atoms: C_1  and  O_2
REMARK    2  A    between atoms: O_2  and  C_3
REMARK    3  A    between atoms: C_7  and  O_8
REMARK    4  A    between atoms: C_9  and  O_10
REMARK    5  A    between atoms: C_14  and  O_15
REMARK    6  A    between atoms: C_14  and  C_16
REMARK    7  A    between atoms: C_16  and  C_17
REMARK    8  A    between atoms: C_20  and  O_21
REMARK    9  A    between atoms: C_22  and  O_23
REMARK                            x       y       z     vdW  Elec       q    Type
REMARK                         _______ _______ _______ _____ _____    ______ ____
ROOT
ATOM      1  C   UNL     1       5.910   4.261  18.619  0.00  0.00    +0.000 C 
ATOM      2  C   UNL     1       4.471   3.848  18.878  0.00  0.00    +0.000 A 
ATOM      3  C   UNL     1       4.160   2.976  19.939  0.00  0.00    +0.000 A 
ATOM      4  C   UNL     1       2.837   2.587  20.190  0.00  0.00    +0.000 A 
ATOM      5  C   UNL     1       1.822   3.075  19.378  0.00  0.00    +0.000 A 
ATOM      6  C   UNL     1       2.112   3.950  18.336  0.00  0.00    +0.000 A 
ATOM      7  C   UNL     1       3.424   4.359  18.091  0.00  0.00    +0.000 A 
ATOM      8  O   UNL     1       3.618   5.212  17.037  0.00  0.00    +0.000 OA
ATOM      9  C   UNL     1       4.908   5.806  16.980  0.00  0.00    +0.000 C 
ATOM     10  C   UNL     1       6.053   4.794  17.163  0.00  0.00    +0.000 C 
ENDROOT
BRANCH   1  12
ATOM     11  C   UNL     1       7.542   5.543  19.858  0.00  0.00    +0.000 C 
ATOM     12  O   UNL     1       6.169   5.262  19.627  0.00  0.00    +0.000 OA
ENDBRANCH   1  12
BRANCH   5  13
ATOM     13  O   UNL     1       0.512   2.722  19.563  0.00  0.00    +0.000 OA
ATOM     14  H   UNL     1      -0.047   3.390  19.130  0.00  0.00    +0.000 HD
ENDBRANCH   5  13
BRANCH   6  15
ATOM     15  O   UNL     1       1.083   4.406  17.548  0.00  0.00    +0.000 OA
ATOM     16  H   UNL     1       0.693   5.141  18.057  0.00  0.00    +0.000 HD
ENDBRANCH   6  15
BRANCH  10  17
ATOM     17  O   UNL     1       7.308   5.472  16.942  0.00  0.00    +0.000 OA
ATOM     18  H   UNL     1       7.198   6.084  16.191  0.00  0.00    +0.000 HD
ENDBRANCH  10  17
BRANCH  10  19
ATOM     19  C   UNL     1       5.951   3.664  16.092  0.00  0.00    +0.000 C 
BRANCH  19  20
ATOM     20  C   UNL     1       6.352   4.036  14.676  0.00  0.00    +0.000 A 
ATOM     21  C   UNL     1       5.695   3.479  13.563  0.00  0.00    +0.000 A 
ATOM     22  C   UNL     1       6.073   3.809  12.258  0.00  0.00    +0.000 A 
ATOM     23  C   UNL     1       7.129   4.686  12.063  0.00  0.00    +0.000 A 
ATOM     24  C   UNL     1       7.804   5.224  13.154  0.00  0.00    +0.000 A 
ATOM     25  C   UNL     1       7.427   4.910  14.454  0.00  0.00    +0.000 A 
BRANCH  23  26
ATOM     26  O   UNL     1       7.548   5.047  10.811  0.00  0.00    +0.000 OA
ATOM     27  H   UNL     1       7.940   4.262  10.389  0.00  0.00    +0.000 HD
ENDBRANCH  23  26
BRANCH  24  28
ATOM     28  O   UNL     1       8.857   6.070  12.950  0.00  0.00    +0.000 OA
ATOM     29  H   UNL     1       9.589   5.482  12.676  0.00  0.00    +0.000 HD
ENDBRANCH  24  28
ENDBRANCH  19  20
ENDBRANCH  10  19
TORSDOF 8
ENDMDL
