MODEL 1
REMARK VINA RESULT:      -7.9      0.000      0.000
REMARK  Name = 
REMARK  2 active torsions:
REMARK  status: ('A' for Active; 'I' for Inactive)
REMARK    1  A    between atoms: N_3  and  C_4
REMARK    2  A    between atoms: C_4  and  C_5
REMARK                            x       y       z     vdW  Elec       q    Type
REMARK                         _______ _______ _______ _____ _____    ______ ____
ROOT
ATOM      1  O   UNL     1       5.817   4.960  20.049  0.00  0.00    +0.000 OA
ATOM      2  C   UNL     1       5.172   4.701  19.036  0.00  0.00    +0.000 C 
ATOM      3  N   UNL     1       5.767   4.344  17.830  0.00  0.00    +0.000 N 
ATOM      4  C   UNL     1       5.101   3.409  16.941  0.00  0.00    +0.000 C 
ATOM      5  C   UNL     1       3.688   3.870  16.638  0.00  0.00    +0.000 C 
ATOM      6  C   UNL     1       2.945   4.107  17.946  0.00  0.00    +0.000 C 
ATOM      7  C   UNL     1       3.689   5.081  18.890  0.00  0.00    +0.000 C 
ATOM      8  C   UNL     1       3.735   6.541  18.349  0.00  0.00    +0.000 C 
ATOM      9  C   UNL     1       2.380   7.236  18.334  0.00  0.00    +0.000 C 
ATOM     10  N   UNL     1       1.778   7.117  19.655  0.00  0.00    +0.000 N 
ATOM     11  C   UNL     1       1.202   8.127  20.350  0.00  0.00    +0.000 A 
ATOM     12  N   UNL     1       0.551   7.998  21.481  0.00  0.00    +0.000 NA
ATOM     13  C   UNL     1       0.147   9.253  21.839  0.00  0.00    +0.000 A 
ATOM     14  C   UNL     1      -0.588   9.656  22.962  0.00  0.00    +0.000 A 
ATOM     15  C   UNL     1      -0.913  11.007  23.091  0.00  0.00    +0.000 A 
ATOM     16  C   UNL     1      -0.502  11.934  22.130  0.00  0.00    +0.000 A 
ATOM     17  C   UNL     1       0.257  11.550  21.015  0.00  0.00    +0.000 A 
ATOM     18  C   UNL     1       0.558  10.192  20.906  0.00  0.00    +0.000 A 
ATOM     19  N   UNL     1       1.255   9.454  19.981  0.00  0.00    +0.000 N 
ATOM     20  C   UNL     1       1.617   5.764  20.181  0.00  0.00    +0.000 C 
ATOM     21  C   UNL     1       2.987   5.097  20.264  0.00  0.00    +0.000 C 
ATOM     22  H   UNL     1       1.732   9.822  19.175  0.00  0.00    +0.000 HD
ENDROOT
BRANCH   3  23
ATOM     23  C   UNL     1       7.128   4.761  17.550  0.00  0.00    +0.000 C 
BRANCH  23  24
ATOM     24  C   UNL     1       7.443   6.207  17.810  0.00  0.00    +0.000 A 
ATOM     25  C   UNL     1       8.300   6.581  18.852  0.00  0.00    +0.000 A 
ATOM     26  C   UNL     1       8.674   7.917  19.011  0.00  0.00    +0.000 A 
ATOM     27  C   UNL     1       8.191   8.888  18.135  0.00  0.00    +0.000 A 
ATOM     28  C   UNL     1       7.318   8.530  17.110  0.00  0.00    +0.000 A 
ATOM     29  C   UNL     1       6.940   7.197  16.952  0.00  0.00    +0.000 A 
ENDBRANCH  23  24
ENDBRANCH   3  23
TORSDOF 2
ENDMDL
MODEL 2
REMARK VINA RESULT:      -7.7      2.907      9.419
REMARK  Name = 
REMARK  2 active torsions:
REMARK  status: ('A' for Active; 'I' for Inactive)
REMARK    1  A    between atoms: N_3  and  C_4
REMARK    2  A    between atoms: C_4  and  C_5
REMARK                            x       y       z     vdW  Elec       q    Type
REMARK                         _______ _______ _______ _____ _____    ______ ____
ROOT
ATOM      1  O   UNL     1       2.145  13.150  20.900  0.00  0.00    +0.000 OA
ATOM      2  C   UNL     1       1.018  12.950  20.455  0.00  0.00    +0.000 C 
ATOM      3  N   UNL     1      -0.127  13.513  21.010  0.00  0.00    +0.000 N 
ATOM      4  C   UNL     1      -1.249  13.866  20.158  0.00  0.00    +0.000 C 
ATOM      5  C   UNL     1      -1.681  12.676  19.321  0.00  0.00    +0.000 C 
ATOM      6  C   UNL     1      -0.479  12.135  18.559  0.00  0.00    +0.000 C 
ATOM      7  C   UNL     1       0.714  11.797  19.483  0.00  0.00    +0.000 C 
ATOM      8  C   UNL     1       0.436  10.587  20.423  0.00  0.00    +0.000 C 
ATOM      9  C   UNL     1       0.332   9.252  19.696  0.00  0.00    +0.000 C 
ATOM     10  N   UNL     1       1.508   9.085  18.855  0.00  0.00    +0.000 N 
ATOM     11  C   UNL     1       2.266   7.964  18.778  0.00  0.00    +0.000 A 
ATOM     12  N   UNL     1       3.249   7.767  17.932  0.00  0.00    +0.000 NA
ATOM     13  C   UNL     1       3.745   6.522  18.200  0.00  0.00    +0.000 A 
ATOM     14  C   UNL     1       4.795   5.837  17.573  0.00  0.00    +0.000 A 
ATOM     15  C   UNL     1       5.094   4.546  18.007  0.00  0.00    +0.000 A 
ATOM     16  C   UNL     1       4.374   3.958  19.049  0.00  0.00    +0.000 A 
ATOM     17  C   UNL     1       3.338   4.641  19.703  0.00  0.00    +0.000 A 
ATOM     18  C   UNL     1       3.052   5.926  19.243  0.00  0.00    +0.000 A 
ATOM     19  N   UNL     1       2.134   6.877  19.614  0.00  0.00    +0.000 N 
ATOM     20  C   UNL     1       1.773  10.141  17.882  0.00  0.00    +0.000 C 
ATOM     21  C   UNL     1       1.950  11.465  18.621  0.00  0.00    +0.000 C 
ATOM     22  H   UNL     1       1.482   6.797  20.376  0.00  0.00    +0.000 HD
ENDROOT
BRANCH   3  23
ATOM     23  C   UNL     1      -0.125  13.915  22.404  0.00  0.00    +0.000 C 
BRANCH  23  24
ATOM     24  C   UNL     1      -1.374  13.611  23.181  0.00  0.00    +0.000 A 
ATOM     25  C   UNL     1      -2.006  14.601  23.944  0.00  0.00    +0.000 A 
ATOM     26  C   UNL     1      -3.227  14.338  24.568  0.00  0.00    +0.000 A 
ATOM     27  C   UNL     1      -3.822  13.084  24.440  0.00  0.00    +0.000 A 
ATOM     28  C   UNL     1      -3.189  12.084  23.704  0.00  0.00    +0.000 A 
ATOM     29  C   UNL     1      -1.968  12.344  23.083  0.00  0.00    +0.000 A 
ENDBRANCH  23  24
ENDBRANCH   3  23
TORSDOF 2
ENDMDL
MODEL 3
REMARK VINA RESULT:      -7.7      2.300      4.573
REMARK  Name = 
REMARK  2 active torsions:
REMARK  status: ('A' for Active; 'I' for Inactive)
REMARK    1  A    between atoms: N_3  and  C_4
REMARK    2  A    between atoms: C_4  and  C_5
REMARK                            x       y       z     vdW  Elec       q    Type
REMARK                         _______ _______ _______ _____ _____    ______ ____
ROOT
ATOM      1  O   UNL     1       1.102   4.907  17.119  0.00  0.00    +0.000 OA
ATOM      2  C   UNL     1       2.259   5.218  17.394  0.00  0.00    +0.000 C 
ATOM      3  N   UNL     1       3.279   4.283  17.540  0.00  0.00    +0.000 N 
ATOM      4  C   UNL     1       4.638   4.627  17.161  0.00  0.00    +0.000 C 
ATOM      5  C   UNL     1       5.080   5.904  17.850  0.00  0.00    +0.000 C 
ATOM      6  C   UNL     1       4.068   7.005  17.568  0.00  0.00    +0.000 C 
ATOM      7  C   UNL     1       2.624   6.604  17.951  0.00  0.00    +0.000 C 
ATOM      8  C   UNL     1       2.418   6.450  19.487  0.00  0.00    +0.000 C 
ATOM      9  C   UNL     1       2.496   7.764  20.254  0.00  0.00    +0.000 C 
ATOM     10  N   UNL     1       1.593   8.722  19.633  0.00  0.00    +0.000 N 
ATOM     11  C   UNL     1       0.709   9.510  20.292  0.00  0.00    +0.000 A 
ATOM     12  N   UNL     1      -0.015  10.460  19.750  0.00  0.00    +0.000 NA
ATOM     13  C   UNL     1      -0.769  10.993  20.757  0.00  0.00    +0.000 A 
ATOM     14  C   UNL     1      -1.701  12.039  20.704  0.00  0.00    +0.000 A 
ATOM     15  C   UNL     1      -2.323  12.432  21.888  0.00  0.00    +0.000 A 
ATOM     16  C   UNL     1      -2.034  11.788  23.094  0.00  0.00    +0.000 A 
ATOM     17  C   UNL     1      -1.125  10.723  23.159  0.00  0.00    +0.000 A 
ATOM     18  C   UNL     1      -0.508  10.358  21.962  0.00  0.00    +0.000 A 
ATOM     19  N   UNL     1       0.415   9.396  21.634  0.00  0.00    +0.000 N 
ATOM     20  C   UNL     1       1.794   8.985  18.211  0.00  0.00    +0.000 C 
ATOM     21  C   UNL     1       1.643   7.678  17.437  0.00  0.00    +0.000 C 
ATOM     22  H   UNL     1       0.804   8.716  22.265  0.00  0.00    +0.000 HD
ENDROOT
BRANCH   3  23
ATOM     23  C   UNL     1       2.954   2.915  17.896  0.00  0.00    +0.000 C 
BRANCH  23  24
ATOM     24  C   UNL     1       2.513   2.687  19.314  0.00  0.00    +0.000 A 
ATOM     25  C   UNL     1       3.449   2.465  20.331  0.00  0.00    +0.000 A 
ATOM     26  C   UNL     1       3.035   2.369  21.661  0.00  0.00    +0.000 A 
ATOM     27  C   UNL     1       1.684   2.489  21.983  0.00  0.00    +0.000 A 
ATOM     28  C   UNL     1       0.742   2.685  20.976  0.00  0.00    +0.000 A 
ATOM     29  C   UNL     1       1.153   2.777  19.647  0.00  0.00    +0.000 A 
ENDBRANCH  23  24
ENDBRANCH   3  23
TORSDOF 2
ENDMDL
MODEL 4
REMARK VINA RESULT:      -7.7      5.755     11.841
REMARK  Name = 
REMARK  2 active torsions:
REMARK  status: ('A' for Active; 'I' for Inactive)
REMARK    1  A    between atoms: N_3  and  C_4
REMARK    2  A    between atoms: C_4  and  C_5
REMARK                            x       y       z     vdW  Elec       q    Type
REMARK                         _______ _______ _______ _____ _____    ______ ____
ROOT
ATOM      1  O   UNL     1      -6.061  12.054  22.342  0.00  0.00    +0.000 OA
ATOM      2  C   UNL     1      -5.553  13.172  22.280  0.00  0.00    +0.000 C 
ATOM      3  N   UNL     1      -6.281  14.317  21.974  0.00  0.00    +0.000 N 
ATOM      4  C   UNL     1      -5.911  15.591  22.566  0.00  0.00    +0.000 C 
ATOM      5  C   UNL     1      -4.446  15.895  22.315  0.00  0.00    +0.000 C 
ATOM      6  C   UNL     1      -3.600  14.726  22.799  0.00  0.00    +0.000 C 
ATOM      7  C   UNL     1      -4.032  13.376  22.180  0.00  0.00    +0.000 C 
ATOM      8  C   UNL     1      -3.749  13.285  20.651  0.00  0.00    +0.000 C 
ATOM      9  C   UNL     1      -2.268  13.227  20.301  0.00  0.00    +0.000 C 
ATOM     10  N   UNL     1      -1.644  12.166  21.078  0.00  0.00    +0.000 N 
ATOM     11  C   UNL     1      -0.803  11.223  20.588  0.00  0.00    +0.000 A 
ATOM     12  N   UNL     1      -0.144  10.344  21.305  0.00  0.00    +0.000 NA
ATOM     13  C   UNL     1       0.572   9.586  20.422  0.00  0.00    +0.000 A 
ATOM     14  C   UNL     1       1.443   8.518  20.681  0.00  0.00    +0.000 A 
ATOM     15  C   UNL     1       2.094   7.919  19.603  0.00  0.00    +0.000 A 
ATOM     16  C   UNL     1       1.871   8.365  18.298  0.00  0.00    +0.000 A 
ATOM     17  C   UNL     1       0.984   9.415  18.021  0.00  0.00    +0.000 A 
ATOM     18  C   UNL     1       0.355  10.003  19.118  0.00  0.00    +0.000 A 
ATOM     19  N   UNL     1      -0.549  11.028  19.247  0.00  0.00    +0.000 N 
ATOM     20  C   UNL     1      -1.791  12.243  22.529  0.00  0.00    +0.000 C 
ATOM     21  C   UNL     1      -3.276  12.227  22.880  0.00  0.00    +0.000 C 
ATOM     22  H   UNL     1      -0.964  11.544  18.489  0.00  0.00    +0.000 HD
ENDROOT
BRANCH   3  23
ATOM     23  C   UNL     1      -7.511  14.205  21.214  0.00  0.00    +0.000 C 
BRANCH  23  24
ATOM     24  C   UNL     1      -7.358  14.061  19.726  0.00  0.00    +0.000 A 
ATOM     25  C   UNL     1      -7.017  15.160  18.928  0.00  0.00    +0.000 A 
ATOM     26  C   UNL     1      -6.766  14.989  17.565  0.00  0.00    +0.000 A 
ATOM     27  C   UNL     1      -6.859  13.723  16.990  0.00  0.00    +0.000 A 
ATOM     28  C   UNL     1      -7.222  12.627  17.770  0.00  0.00    +0.000 A 
ATOM     29  C   UNL     1      -7.477  12.796  19.130  0.00  0.00    +0.000 A 
ENDBRANCH  23  24
ENDBRANCH   3  23
TORSDOF 2
ENDMDL
MODEL 5
REMARK VINA RESULT:      -7.7      2.236      3.051
REMARK  Name = 
REMARK  2 active torsions:
REMARK  status: ('A' for Active; 'I' for Inactive)
REMARK    1  A    between atoms: N_3  and  C_4
REMARK    2  A    between atoms: C_4  and  C_5
REMARK                            x       y       z     vdW  Elec       q    Type
REMARK                         _______ _______ _______ _____ _____    ______ ____
ROOT
ATOM      1  O   UNL     1       5.517   5.669  19.671  0.00  0.00    +0.000 OA
ATOM      2  C   UNL     1       4.667   5.174  18.936  0.00  0.00    +0.000 C 
ATOM      3  N   UNL     1       4.972   4.256  17.936  0.00  0.00    +0.000 N 
ATOM      4  C   UNL     1       4.024   3.209  17.598  0.00  0.00    +0.000 C 
ATOM      5  C   UNL     1       2.662   3.800  17.282  0.00  0.00    +0.000 C 
ATOM      6  C   UNL     1       2.215   4.681  18.439  0.00  0.00    +0.000 C 
ATOM      7  C   UNL     1       3.254   5.768  18.802  0.00  0.00    +0.000 C 
ATOM      8  C   UNL     1       3.415   6.854  17.697  0.00  0.00    +0.000 C 
ATOM      9  C   UNL     1       2.198   7.754  17.535  0.00  0.00    +0.000 C 
ATOM     10  N   UNL     1       1.837   8.292  18.839  0.00  0.00    +0.000 N 
ATOM     11  C   UNL     1       1.553   9.591  19.103  0.00  0.00    +0.000 A 
ATOM     12  N   UNL     1       1.109  10.056  20.246  0.00  0.00    +0.000 NA
ATOM     13  C   UNL     1       0.967  11.405  20.084  0.00  0.00    +0.000 A 
ATOM     14  C   UNL     1       0.517  12.361  21.005  0.00  0.00    +0.000 A 
ATOM     15  C   UNL     1       0.423  13.689  20.588  0.00  0.00    +0.000 A 
ATOM     16  C   UNL     1       0.783  14.055  19.289  0.00  0.00    +0.000 A 
ATOM     17  C   UNL     1       1.260  13.115  18.365  0.00  0.00    +0.000 A 
ATOM     18  C   UNL     1       1.333  11.793  18.804  0.00  0.00    +0.000 A 
ATOM     19  N   UNL     1       1.732  10.623  18.208  0.00  0.00    +0.000 N 
ATOM     20  C   UNL     1       1.578   7.321  19.899  0.00  0.00    +0.000 C 
ATOM     21  C   UNL     1       2.826   6.469  20.108  0.00  0.00    +0.000 C 
ATOM     22  H   UNL     1       2.102  10.536  17.276  0.00  0.00    +0.000 HD
ENDROOT
BRANCH   3  23
ATOM     23  C   UNL     1       6.305   4.235  17.363  0.00  0.00    +0.000 C 
BRANCH  23  24
ATOM     24  C   UNL     1       6.386   4.387  15.871  0.00  0.00    +0.000 A 
ATOM     25  C   UNL     1       7.384   5.173  15.281  0.00  0.00    +0.000 A 
ATOM     26  C   UNL     1       7.518   5.214  13.892  0.00  0.00    +0.000 A 
ATOM     27  C   UNL     1       6.655   4.478  13.083  0.00  0.00    +0.000 A 
ATOM     28  C   UNL     1       5.642   3.713  13.659  0.00  0.00    +0.000 A 
ATOM     29  C   UNL     1       5.504   3.673  15.046  0.00  0.00    +0.000 A 
ENDBRANCH  23  24
ENDBRANCH   3  23
TORSDOF 2
ENDMDL
MODEL 6
REMARK VINA RESULT:      -7.6      5.642     11.853
REMARK  Name = 
REMARK  2 active torsions:
REMARK  status: ('A' for Active; 'I' for Inactive)
REMARK    1  A    between atoms: N_3  and  C_4
REMARK    2  A    between atoms: C_4  and  C_5
REMARK                            x       y       z     vdW  Elec       q    Type
REMARK                         _______ _______ _______ _____ _____    ______ ____
ROOT
ATOM      1  O   UNL     1      -5.872  12.130  22.662  0.00  0.00    +0.000 OA
ATOM      2  C   UNL     1      -5.321  13.228  22.663  0.00  0.00    +0.000 C 
ATOM      3  N   UNL     1      -6.006  14.419  22.445  0.00  0.00    +0.000 N 
ATOM      4  C   UNL     1      -5.577  15.636  23.111  0.00  0.00    +0.000 C 
ATOM      5  C   UNL     1      -4.104  15.897  22.855  0.00  0.00    +0.000 C 
ATOM      6  C   UNL     1      -3.299  14.666  23.247  0.00  0.00    +0.000 C 
ATOM      7  C   UNL     1      -3.795  13.378  22.549  0.00  0.00    +0.000 C 
ATOM      8  C   UNL     1      -3.538  13.377  21.013  0.00  0.00    +0.000 C 
ATOM      9  C   UNL     1      -2.066  13.283  20.634  0.00  0.00    +0.000 C 
ATOM     10  N   UNL     1      -1.474  12.150  21.329  0.00  0.00    +0.000 N 
ATOM     11  C   UNL     1      -0.679  11.209  20.764  0.00  0.00    +0.000 A 
ATOM     12  N   UNL     1      -0.046  10.259  21.411  0.00  0.00    +0.000 NA
ATOM     13  C   UNL     1       0.626   9.533  20.469  0.00  0.00    +0.000 A 
ATOM     14  C   UNL     1       1.456   8.417  20.642  0.00  0.00    +0.000 A 
ATOM     15  C   UNL     1       2.067   7.865  19.516  0.00  0.00    +0.000 A 
ATOM     16  C   UNL     1       1.842   8.404  18.247  0.00  0.00    +0.000 A 
ATOM     17  C   UNL     1       0.994   9.503  18.055  0.00  0.00    +0.000 A 
ATOM     18  C   UNL     1       0.406  10.043  19.198  0.00  0.00    +0.000 A 
ATOM     19  N   UNL     1      -0.454  11.092  19.410  0.00  0.00    +0.000 N 
ATOM     20  C   UNL     1      -1.596  12.138  22.785  0.00  0.00    +0.000 C 
ATOM     21  C   UNL     1      -3.075  12.157  23.160  0.00  0.00    +0.000 C 
ATOM     22  H   UNL     1      -0.859  11.673  18.694  0.00  0.00    +0.000 HD
ENDROOT
BRANCH   3  23
ATOM     23  C   UNL     1      -7.251  14.405  21.701  0.00  0.00    +0.000 C 
BRANCH  23  24
ATOM     24  C   UNL     1      -7.131  14.233  20.213  0.00  0.00    +0.000 A 
ATOM     25  C   UNL     1      -7.537  13.047  19.590  0.00  0.00    +0.000 A 
ATOM     26  C   UNL     1      -7.527  12.943  18.198  0.00  0.00    +0.000 A 
ATOM     27  C   UNL     1      -7.106  14.020  17.419  0.00  0.00    +0.000 A 
ATOM     28  C   UNL     1      -6.675  15.196  18.030  0.00  0.00    +0.000 A 
ATOM     29  C   UNL     1      -6.681  15.300  19.420  0.00  0.00    +0.000 A 
ENDBRANCH  23  24
ENDBRANCH   3  23
TORSDOF 2
ENDMDL
MODEL 7
REMARK VINA RESULT:      -7.6      5.154      8.890
REMARK  Name = 
REMARK  2 active torsions:
REMARK  status: ('A' for Active; 'I' for Inactive)
REMARK    1  A    between atoms: N_3  and  C_4
REMARK    2  A    between atoms: C_4  and  C_5
REMARK                            x       y       z     vdW  Elec       q    Type
REMARK                         _______ _______ _______ _____ _____    ______ ____
ROOT
ATOM      1  O   UNL     1       0.999  12.237  21.685  0.00  0.00    +0.000 OA
ATOM      2  C   UNL     1       0.462  12.363  20.587  0.00  0.00    +0.000 C 
ATOM      3  N   UNL     1      -0.379  11.400  20.040  0.00  0.00    +0.000 N 
ATOM      4  C   UNL     1      -1.491  11.801  19.196  0.00  0.00    +0.000 C 
ATOM      5  C   UNL     1      -1.012  12.691  18.065  0.00  0.00    +0.000 C 
ATOM      6  C   UNL     1      -0.227  13.861  18.642  0.00  0.00    +0.000 C 
ATOM      7  C   UNL     1       0.931  13.409  19.562  0.00  0.00    +0.000 C 
ATOM      8  C   UNL     1       2.076  12.684  18.793  0.00  0.00    +0.000 C 
ATOM      9  C   UNL     1       2.869  13.594  17.865  0.00  0.00    +0.000 C 
ATOM     10  N   UNL     1       3.313  14.758  18.618  0.00  0.00    +0.000 N 
ATOM     11  C   UNL     1       4.568  15.270  18.606  0.00  0.00    +0.000 A 
ATOM     12  N   UNL     1       4.939  16.388  19.184  0.00  0.00    +0.000 NA
ATOM     13  C   UNL     1       6.276  16.524  18.937  0.00  0.00    +0.000 A 
ATOM     14  C   UNL     1       7.145  17.551  19.329  0.00  0.00    +0.000 A 
ATOM     15  C   UNL     1       8.477  17.485  18.918  0.00  0.00    +0.000 A 
ATOM     16  C   UNL     1       8.932  16.413  18.147  0.00  0.00    +0.000 A 
ATOM     17  C   UNL     1       8.080  15.365  17.769  0.00  0.00    +0.000 A 
ATOM     18  C   UNL     1       6.752  15.462  18.183  0.00  0.00    +0.000 A 
ATOM     19  N   UNL     1       5.651  14.661  18.011  0.00  0.00    +0.000 N 
ATOM     20  C   UNL     1       2.276  15.541  19.287  0.00  0.00    +0.000 C 
ATOM     21  C   UNL     1       1.532  14.642  20.270  0.00  0.00    +0.000 C 
ATOM     22  H   UNL     1       5.639  13.773  17.538  0.00  0.00    +0.000 HD
ENDROOT
BRANCH   3  23
ATOM     23  C   UNL     1      -0.254  10.016  20.459  0.00  0.00    +0.000 C 
BRANCH  23  24
ATOM     24  C   UNL     1       0.800   9.206  19.759  0.00  0.00    +0.000 A 
ATOM     25  C   UNL     1       1.447   8.149  20.412  0.00  0.00    +0.000 A 
ATOM     26  C   UNL     1       2.340   7.332  19.715  0.00  0.00    +0.000 A 
ATOM     27  C   UNL     1       2.597   7.568  18.366  0.00  0.00    +0.000 A 
ATOM     28  C   UNL     1       1.977   8.632  17.714  0.00  0.00    +0.000 A 
ATOM     29  C   UNL     1       1.088   9.451  18.408  0.00  0.00    +0.000 A 
ENDBRANCH  23  24
ENDBRANCH   3  23
TORSDOF 2
ENDMDL
MODEL 8
REMARK VINA RESULT:      -7.5      1.999      2.813
REMARK  Name = 
REMARK  2 active torsions:
REMARK  status: ('A' for Active; 'I' for Inactive)
REMARK    1  A    between atoms: N_3  and  C_4
REMARK    2  A    between atoms: C_4  and  C_5
REMARK                            x       y       z     vdW  Elec       q    Type
REMARK                         _______ _______ _______ _____ _____    ______ ____
ROOT
ATOM      1  O   UNL     1       6.385   5.660  18.948  0.00  0.00    +0.000 OA
ATOM      2  C   UNL     1       5.571   5.066  18.246  0.00  0.00    +0.000 C 
ATOM      3  N   UNL     1       5.896   4.514  17.011  0.00  0.00    +0.000 N 
ATOM      4  C   UNL     1       5.236   3.302  16.561  0.00  0.00    +0.000 C 
ATOM      5  C   UNL     1       3.728   3.461  16.611  0.00  0.00    +0.000 C 
ATOM      6  C   UNL     1       3.316   3.902  18.009  0.00  0.00    +0.000 C 
ATOM      7  C   UNL     1       4.055   5.176  18.478  0.00  0.00    +0.000 C 
ATOM      8  C   UNL     1       3.651   6.449  17.675  0.00  0.00    +0.000 C 
ATOM      9  C   UNL     1       2.223   6.912  17.931  0.00  0.00    +0.000 C 
ATOM     10  N   UNL     1       2.021   7.035  19.368  0.00  0.00    +0.000 N 
ATOM     11  C   UNL     1       1.444   8.090  19.993  0.00  0.00    +0.000 A 
ATOM     12  N   UNL     1       1.149   8.149  21.270  0.00  0.00    +0.000 NA
ATOM     13  C   UNL     1       0.596   9.381  21.481  0.00  0.00    +0.000 A 
ATOM     14  C   UNL     1       0.107   9.936  22.671  0.00  0.00    +0.000 A 
ATOM     15  C   UNL     1      -0.452  11.213  22.625  0.00  0.00    +0.000 A 
ATOM     16  C   UNL     1      -0.507  11.925  21.425  0.00  0.00    +0.000 A 
ATOM     17  C   UNL     1       0.002  11.393  20.231  0.00  0.00    +0.000 A 
ATOM     18  C   UNL     1       0.544  10.110  20.303  0.00  0.00    +0.000 A 
ATOM     19  N   UNL     1       1.118   9.277  19.375  0.00  0.00    +0.000 N 
ATOM     20  C   UNL     1       2.290   5.845  20.171  0.00  0.00    +0.000 C 
ATOM     21  C   UNL     1       3.744   5.428  19.968  0.00  0.00    +0.000 C 
ATOM     22  H   UNL     1       1.282   9.501  18.407  0.00  0.00    +0.000 HD
ENDROOT
BRANCH   3  23
ATOM     23  C   UNL     1       7.019   5.045  16.261  0.00  0.00    +0.000 C 
BRANCH  23  24
ATOM     24  C   UNL     1       6.977   4.840  14.773  0.00  0.00    +0.000 A 
ATOM     25  C   UNL     1       7.833   5.552  13.924  0.00  0.00    +0.000 A 
ATOM     26  C   UNL     1       7.864   5.269  12.557  0.00  0.00    +0.000 A 
ATOM     27  C   UNL     1       7.037   4.280  12.028  0.00  0.00    +0.000 A 
ATOM     28  C   UNL     1       6.164   3.583  12.861  0.00  0.00    +0.000 A 
ATOM     29  C   UNL     1       6.129   3.866  14.225  0.00  0.00    +0.000 A 
ENDBRANCH  23  24
ENDBRANCH   3  23
TORSDOF 2
ENDMDL
MODEL 9
REMARK VINA RESULT:      -7.5      6.862      9.584
REMARK  Name = 
REMARK  2 active torsions:
REMARK  status: ('A' for Active; 'I' for Inactive)
REMARK    1  A    between atoms: N_3  and  C_4
REMARK    2  A    between atoms: C_4  and  C_5
REMARK                            x       y       z     vdW  Elec       q    Type
REMARK                         _______ _______ _______ _____ _____    ______ ____
ROOT
ATOM      1  O   UNL     1       9.501  15.597  17.497  0.00  0.00    +0.000 OA
ATOM      2  C   UNL     1       9.647  15.705  18.712  0.00  0.00    +0.000 C 
ATOM      3  N   UNL     1      10.667  15.068  19.412  0.00  0.00    +0.000 N 
ATOM      4  C   UNL     1      11.252  15.702  20.580  0.00  0.00    +0.000 C 
ATOM      5  C   UNL     1      10.176  16.083  21.579  0.00  0.00    +0.000 C 
ATOM      6  C   UNL     1       9.122  16.933  20.884  0.00  0.00    +0.000 C 
ATOM      7  C   UNL     1       8.536  16.251  19.625  0.00  0.00    +0.000 C 
ATOM      8  C   UNL     1       7.679  14.993  19.954  0.00  0.00    +0.000 C 
ATOM      9  C   UNL     1       6.370  15.308  20.666  0.00  0.00    +0.000 C 
ATOM     10  N   UNL     1       5.656  16.324  19.907  0.00  0.00    +0.000 N 
ATOM     11  C   UNL     1       4.342  16.281  19.579  0.00  0.00    +0.000 A 
ATOM     12  N   UNL     1       3.669  17.249  19.003  0.00  0.00    +0.000 NA
ATOM     13  C   UNL     1       2.392  16.790  18.845  0.00  0.00    +0.000 A 
ATOM     14  C   UNL     1       1.283  17.442  18.289  0.00  0.00    +0.000 A 
ATOM     15  C   UNL     1       0.060  16.771  18.272  0.00  0.00    +0.000 A 
ATOM     16  C   UNL     1      -0.050  15.476  18.785  0.00  0.00    +0.000 A 
ATOM     17  C   UNL     1       1.057  14.801  19.320  0.00  0.00    +0.000 A 
ATOM     18  C   UNL     1       2.264  15.499  19.335  0.00  0.00    +0.000 A 
ATOM     19  N   UNL     1       3.528  15.185  19.769  0.00  0.00    +0.000 N 
ATOM     20  C   UNL     1       6.371  17.570  19.645  0.00  0.00    +0.000 C 
ATOM     21  C   UNL     1       7.646  17.257  18.867  0.00  0.00    +0.000 C 
ATOM     22  H   UNL     1       3.814  14.301  20.154  0.00  0.00    +0.000 HD
ENDROOT
BRANCH   3  23
ATOM     23  C   UNL     1      11.265  13.863  18.869  0.00  0.00    +0.000 C 
BRANCH  23  24
ATOM     24  C   UNL     1      10.473  12.598  19.038  0.00  0.00    +0.000 A 
ATOM     25  C   UNL     1      10.018  11.880  17.925  0.00  0.00    +0.000 A 
ATOM     26  C   UNL     1       9.384  10.647  18.093  0.00  0.00    +0.000 A 
ATOM     27  C   UNL     1       9.194  10.127  19.372  0.00  0.00    +0.000 A 
ATOM     28  C   UNL     1       9.621  10.845  20.487  0.00  0.00    +0.000 A 
ATOM     29  C   UNL     1      10.251  12.077  20.321  0.00  0.00    +0.000 A 
ENDBRANCH  23  24
ENDBRANCH   3  23
TORSDOF 2
ENDMDL
