MODEL 1
REMARK VINA RESULT:      -7.4      0.000      0.000
REMARK  Name = 
REMARK  5 active torsions:
REMARK  status: ('A' for Active; 'I' for Inactive)
REMARK    1  A    between atoms: C_2  and  C_3
REMARK    2  A    between atoms: C_3  and  C_4
REMARK    3  A    between atoms: C_3  and  C_5
REMARK    4  A    between atoms: C_3  and  C_6
REMARK    5  A    between atoms: C_7  and  O_8
REMARK                            x       y       z     vdW  Elec       q    Type
REMARK                         _______ _______ _______ _____ _____    ______ ____
ROOT
ATOM      1  C   UNL     1       4.772   5.067  17.181  0.00  0.00    +0.000 C 
ATOM      2  C   UNL     1       4.724   3.714  17.095  0.00  0.00    +0.000 C 
ATOM      3  C   UNL     1       3.752   2.878  17.871  0.00  0.00    +0.000 C 
ATOM      4  O   UNL     1       3.682   1.661  17.723  0.00  0.00    +0.000 OA
ATOM      5  C   UNL     1       2.876   3.538  18.838  0.00  0.00    +0.000 A 
ATOM      6  C   UNL     1       2.024   2.777  19.649  0.00  0.00    +0.000 A 
ATOM      7  C   UNL     1       1.184   3.404  20.571  0.00  0.00    +0.000 A 
ATOM      8  C   UNL     1       1.192   4.793  20.681  0.00  0.00    +0.000 A 
ATOM      9  C   UNL     1       2.043   5.549  19.872  0.00  0.00    +0.000 A 
ATOM     10  C   UNL     1       2.889   4.920  18.947  0.00  0.00    +0.000 A 
ATOM     11  C   UNL     1       3.770   5.733  18.091  0.00  0.00    +0.000 C 
ATOM     12  O   UNL     1       3.636   6.949  18.163  0.00  0.00    +0.000 OA
ENDROOT
BRANCH   1  13
ATOM     13  C   UNL     1       5.810   5.953  16.424  0.00  0.00    +0.000 C 
ATOM     14  C   UNL     1       5.072   6.724  15.294  0.00  0.00    +0.000 C 
ATOM     15  C   UNL     1       6.962   5.209  15.700  0.00  0.00    +0.000 C 
BRANCH  13  17
ATOM     16  C   UNL     1       7.652   6.641  18.102  0.00  0.00    +0.000 C 
ATOM     17  C   UNL     1       6.523   6.884  17.418  0.00  0.00    +0.000 C 
ENDBRANCH  13  17
ENDBRANCH   1  13
BRANCH   2  18
ATOM     18  O   UNL     1       5.568   2.961  16.295  0.00  0.00    +0.000 OA
ATOM     19  H   UNL     1       5.221   2.890  15.395  0.00  0.00    +0.000 HD
ENDBRANCH   2  18
TORSDOF 3
ENDMDL
MODEL 2
REMARK VINA RESULT:      -7.2      1.377      2.769
REMARK  Name = 
REMARK  5 active torsions:
REMARK  status: ('A' for Active; 'I' for Inactive)
REMARK    1  A    between atoms: C_2  and  C_3
REMARK    2  A    between atoms: C_3  and  C_4
REMARK    3  A    between atoms: C_3  and  C_5
REMARK    4  A    between atoms: C_3  and  C_6
REMARK    5  A    between atoms: C_7  and  O_8
REMARK                            x       y       z     vdW  Elec       q    Type
REMARK                         _______ _______ _______ _____ _____    ______ ____
ROOT
ATOM      1  C   UNL     1       4.877   5.603  17.924  0.00  0.00    +0.000 C 
ATOM      2  C   UNL     1       3.891   6.510  18.128  0.00  0.00    +0.000 C 
ATOM      3  C   UNL     1       2.780   6.304  19.112  0.00  0.00    +0.000 C 
ATOM      4  O   UNL     1       1.937   7.170  19.330  0.00  0.00    +0.000 OA
ATOM      5  C   UNL     1       2.699   5.027  19.820  0.00  0.00    +0.000 A 
ATOM      6  C   UNL     1       1.620   4.763  20.674  0.00  0.00    +0.000 A 
ATOM      7  C   UNL     1       1.541   3.546  21.353  0.00  0.00    +0.000 A 
ATOM      8  C   UNL     1       2.543   2.592  21.182  0.00  0.00    +0.000 A 
ATOM      9  C   UNL     1       3.616   2.857  20.329  0.00  0.00    +0.000 A 
ATOM     10  C   UNL     1       3.695   4.078  19.644  0.00  0.00    +0.000 A 
ATOM     11  C   UNL     1       4.841   4.347  18.759  0.00  0.00    +0.000 C 
ATOM     12  O   UNL     1       5.737   3.512  18.751  0.00  0.00    +0.000 OA
ENDROOT
BRANCH   1  13
ATOM     13  C   UNL     1       6.013   5.773  16.866  0.00  0.00    +0.000 C 
ATOM     14  C   UNL     1       5.365   6.083  15.488  0.00  0.00    +0.000 C 
ATOM     15  C   UNL     1       6.912   4.538  16.605  0.00  0.00    +0.000 C 
BRANCH  13  17
ATOM     16  C   UNL     1       7.840   6.820  18.366  0.00  0.00    +0.000 C 
ATOM     17  C   UNL     1       6.992   6.866  17.326  0.00  0.00    +0.000 C 
ENDBRANCH  13  17
ENDBRANCH   1  13
BRANCH   2  18
ATOM     18  O   UNL     1       3.794   7.714  17.448  0.00  0.00    +0.000 OA
ATOM     19  H   UNL     1       4.045   8.454  18.017  0.00  0.00    +0.000 HD
ENDBRANCH   2  18
TORSDOF 3
ENDMDL
MODEL 3
REMARK VINA RESULT:      -7.0      1.300      5.650
REMARK  Name = 
REMARK  5 active torsions:
REMARK  status: ('A' for Active; 'I' for Inactive)
REMARK    1  A    between atoms: C_2  and  C_3
REMARK    2  A    between atoms: C_3  and  C_4
REMARK    3  A    between atoms: C_3  and  C_5
REMARK    4  A    between atoms: C_3  and  C_6
REMARK    5  A    between atoms: C_7  and  O_8
REMARK                            x       y       z     vdW  Elec       q    Type
REMARK                         _______ _______ _______ _____ _____    ______ ____
ROOT
ATOM      1  C   UNL     1       2.712   4.312  18.575  0.00  0.00    +0.000 C 
ATOM      2  C   UNL     1       2.848   5.661  18.538  0.00  0.00    +0.000 C 
ATOM      3  C   UNL     1       3.778   6.365  17.597  0.00  0.00    +0.000 C 
ATOM      4  O   UNL     1       3.831   7.590  17.535  0.00  0.00    +0.000 OA
ATOM      5  C   UNL     1       4.651   5.561  16.743  0.00  0.00    +0.000 A 
ATOM      6  C   UNL     1       5.601   6.185  15.923  0.00  0.00    +0.000 A 
ATOM      7  C   UNL     1       6.433   5.421  15.104  0.00  0.00    +0.000 A 
ATOM      8  C   UNL     1       6.317   4.032  15.101  0.00  0.00    +0.000 A 
ATOM      9  C   UNL     1       5.370   3.413  15.921  0.00  0.00    +0.000 A 
ATOM     10  C   UNL     1       4.534   4.180  16.746  0.00  0.00    +0.000 A 
ATOM     11  C   UNL     1       3.532   3.512  17.594  0.00  0.00    +0.000 C 
ATOM     12  O   UNL     1       3.409   2.301  17.451  0.00  0.00    +0.000 OA
ENDROOT
BRANCH   1  13
ATOM     13  C   UNL     1       1.790   3.556  19.582  0.00  0.00    +0.000 C 
ATOM     14  C   UNL     1       0.853   2.610  18.781  0.00  0.00    +0.000 C 
ATOM     15  C   UNL     1       0.830   4.426  20.434  0.00  0.00    +0.000 C 
BRANCH  13  17
ATOM     16  C   UNL     1       2.319   2.497  21.880  0.00  0.00    +0.000 C 
ATOM     17  C   UNL     1       2.649   2.812  20.617  0.00  0.00    +0.000 C 
ENDBRANCH  13  17
ENDBRANCH   1  13
BRANCH   2  18
ATOM     18  O   UNL     1       2.155   6.531  19.365  0.00  0.00    +0.000 OA
ATOM     19  H   UNL     1       1.270   6.708  19.019  0.00  0.00    +0.000 HD
ENDBRANCH   2  18
TORSDOF 3
ENDMDL
MODEL 4
REMARK VINA RESULT:      -7.0      1.075      2.787
REMARK  Name = 
REMARK  5 active torsions:
REMARK  status: ('A' for Active; 'I' for Inactive)
REMARK    1  A    between atoms: C_2  and  C_3
REMARK    2  A    between atoms: C_3  and  C_4
REMARK    3  A    between atoms: C_3  and  C_5
REMARK    4  A    between atoms: C_3  and  C_6
REMARK    5  A    between atoms: C_7  and  O_8
REMARK                            x       y       z     vdW  Elec       q    Type
REMARK                         _______ _______ _______ _____ _____    ______ ____
ROOT
ATOM      1  C   UNL     1       4.451   5.258  17.269  0.00  0.00    +0.000 C 
ATOM      2  C   UNL     1       3.906   6.296  17.951  0.00  0.00    +0.000 C 
ATOM      3  C   UNL     1       2.881   6.119  19.029  0.00  0.00    +0.000 C 
ATOM      4  O   UNL     1       2.454   7.070  19.679  0.00  0.00    +0.000 OA
ATOM      5  C   UNL     1       2.373   4.775  19.299  0.00  0.00    +0.000 A 
ATOM      6  C   UNL     1       1.345   4.587  20.233  0.00  0.00    +0.000 A 
ATOM      7  C   UNL     1       0.859   3.305  20.495  0.00  0.00    +0.000 A 
ATOM      8  C   UNL     1       1.402   2.209  19.827  0.00  0.00    +0.000 A 
ATOM      9  C   UNL     1       2.425   2.400  18.896  0.00  0.00    +0.000 A 
ATOM     10  C   UNL     1       2.913   3.688  18.630  0.00  0.00    +0.000 A 
ATOM     11  C   UNL     1       4.002   3.870  17.656  0.00  0.00    +0.000 C 
ATOM     12  O   UNL     1       4.507   2.852  17.198  0.00  0.00    +0.000 OA
ENDROOT
BRANCH   1  13
ATOM     13  C   UNL     1       5.480   5.422  16.107  0.00  0.00    +0.000 C 
ATOM     14  C   UNL     1       5.086   6.670  15.269  0.00  0.00    +0.000 C 
ATOM     15  C   UNL     1       5.553   4.267  15.075  0.00  0.00    +0.000 C 
BRANCH  13  17
ATOM     16  C   UNL     1       7.472   4.702  17.589  0.00  0.00    +0.000 C 
ATOM     17  C   UNL     1       6.904   5.511  16.680  0.00  0.00    +0.000 C 
ENDBRANCH  13  17
ENDBRANCH   1  13
BRANCH   2  18
ATOM     18  O   UNL     1       4.226   7.625  17.720  0.00  0.00    +0.000 OA
ATOM     19  H   UNL     1       4.513   8.059  18.535  0.00  0.00    +0.000 HD
ENDBRANCH   2  18
TORSDOF 3
ENDMDL
MODEL 5
REMARK VINA RESULT:      -6.9      1.445      2.031
REMARK  Name = 
REMARK  5 active torsions:
REMARK  status: ('A' for Active; 'I' for Inactive)
REMARK    1  A    between atoms: C_2  and  C_3
REMARK    2  A    between atoms: C_3  and  C_4
REMARK    3  A    between atoms: C_3  and  C_5
REMARK    4  A    between atoms: C_3  and  C_6
REMARK    5  A    between atoms: C_7  and  O_8
REMARK                            x       y       z     vdW  Elec       q    Type
REMARK                         _______ _______ _______ _____ _____    ______ ____
ROOT
ATOM      1  C   UNL     1       4.658   5.096  17.965  0.00  0.00    +0.000 C 
ATOM      2  C   UNL     1       5.330   4.104  18.600  0.00  0.00    +0.000 C 
ATOM      3  C   UNL     1       4.680   3.168  19.573  0.00  0.00    +0.000 C 
ATOM      4  O   UNL     1       5.294   2.234  20.082  0.00  0.00    +0.000 OA
ATOM      5  C   UNL     1       3.279   3.390  19.929  0.00  0.00    +0.000 A 
ATOM      6  C   UNL     1       2.668   2.594  20.908  0.00  0.00    +0.000 A 
ATOM      7  C   UNL     1       1.331   2.801  21.248  0.00  0.00    +0.000 A 
ATOM      8  C   UNL     1       0.600   3.802  20.609  0.00  0.00    +0.000 A 
ATOM      9  C   UNL     1       1.212   4.593  19.635  0.00  0.00    +0.000 A 
ATOM     10  C   UNL     1       2.557   4.388  19.293  0.00  0.00    +0.000 A 
ATOM     11  C   UNL     1       3.183   5.223  18.254  0.00  0.00    +0.000 C 
ATOM     12  O   UNL     1       2.449   6.000  17.656  0.00  0.00    +0.000 OA
ENDROOT
BRANCH   1  13
ATOM     13  C   UNL     1       5.326   6.115  16.988  0.00  0.00    +0.000 C 
ATOM     14  C   UNL     1       6.711   6.520  17.566  0.00  0.00    +0.000 C 
ATOM     15  C   UNL     1       4.586   7.459  16.772  0.00  0.00    +0.000 C 
BRANCH  13  17
ATOM     16  C   UNL     1       6.435   4.787  15.067  0.00  0.00    +0.000 C 
ATOM     17  C   UNL     1       5.421   5.502  15.581  0.00  0.00    +0.000 C 
ENDBRANCH  13  17
ENDBRANCH   1  13
BRANCH   2  18
ATOM     18  O   UNL     1       6.682   3.853  18.429  0.00  0.00    +0.000 OA
ATOM     19  H   UNL     1       6.863   2.904  18.444  0.00  0.00    +0.000 HD
ENDBRANCH   2  18
TORSDOF 3
ENDMDL
MODEL 6
REMARK VINA RESULT:      -6.9      1.129      3.182
REMARK  Name = 
REMARK  5 active torsions:
REMARK  status: ('A' for Active; 'I' for Inactive)
REMARK    1  A    between atoms: C_2  and  C_3
REMARK    2  A    between atoms: C_3  and  C_4
REMARK    3  A    between atoms: C_3  and  C_5
REMARK    4  A    between atoms: C_3  and  C_6
REMARK    5  A    between atoms: C_7  and  O_8
REMARK                            x       y       z     vdW  Elec       q    Type
REMARK                         _______ _______ _______ _____ _____    ______ ____
ROOT
ATOM      1  C   UNL     1       4.364   5.332  17.330  0.00  0.00    +0.000 C 
ATOM      2  C   UNL     1       3.741   6.360  17.957  0.00  0.00    +0.000 C 
ATOM      3  C   UNL     1       2.730   6.164  19.045  0.00  0.00    +0.000 C 
ATOM      4  O   UNL     1       2.233   7.113  19.646  0.00  0.00    +0.000 OA
ATOM      5  C   UNL     1       2.323   4.802  19.386  0.00  0.00    +0.000 A 
ATOM      6  C   UNL     1       1.310   4.586  20.330  0.00  0.00    +0.000 A 
ATOM      7  C   UNL     1       0.921   3.287  20.660  0.00  0.00    +0.000 A 
ATOM      8  C   UNL     1       1.545   2.201  20.049  0.00  0.00    +0.000 A 
ATOM      9  C   UNL     1       2.553   2.420  19.107  0.00  0.00    +0.000 A 
ATOM     10  C   UNL     1       2.944   3.725  18.773  0.00  0.00    +0.000 A 
ATOM     11  C   UNL     1       4.018   3.937  17.788  0.00  0.00    +0.000 C 
ATOM     12  O   UNL     1       4.598   2.936  17.383  0.00  0.00    +0.000 OA
ENDROOT
BRANCH   1  13
ATOM     13  C   UNL     1       5.379   5.511  16.158  0.00  0.00    +0.000 C 
ATOM     14  C   UNL     1       6.798   5.717  16.759  0.00  0.00    +0.000 C 
ATOM     15  C   UNL     1       5.166   6.738  15.234  0.00  0.00    +0.000 C 
BRANCH  13  17
ATOM     16  C   UNL     1       5.996   4.102  14.080  0.00  0.00    +0.000 C 
ATOM     17  C   UNL     1       5.300   4.303  15.210  0.00  0.00    +0.000 C 
ENDBRANCH  13  17
ENDBRANCH   1  13
BRANCH   2  18
ATOM     18  O   UNL     1       3.961   7.696  17.657  0.00  0.00    +0.000 OA
ATOM     19  H   UNL     1       3.179   8.229  17.855  0.00  0.00    +0.000 HD
ENDBRANCH   2  18
TORSDOF 3
ENDMDL
MODEL 7
REMARK VINA RESULT:      -6.9      1.379      3.154
REMARK  Name = 
REMARK  5 active torsions:
REMARK  status: ('A' for Active; 'I' for Inactive)
REMARK    1  A    between atoms: C_2  and  C_3
REMARK    2  A    between atoms: C_3  and  C_4
REMARK    3  A    between atoms: C_3  and  C_5
REMARK    4  A    between atoms: C_3  and  C_6
REMARK    5  A    between atoms: C_7  and  O_8
REMARK                            x       y       z     vdW  Elec       q    Type
REMARK                         _______ _______ _______ _____ _____    ______ ____
ROOT
ATOM      1  C   UNL     1       4.723   5.631  17.891  0.00  0.00    +0.000 C 
ATOM      2  C   UNL     1       3.747   6.520  18.203  0.00  0.00    +0.000 C 
ATOM      3  C   UNL     1       2.728   6.275  19.274  0.00  0.00    +0.000 C 
ATOM      4  O   UNL     1       1.897   7.124  19.584  0.00  0.00    +0.000 OA
ATOM      5  C   UNL     1       2.722   4.979  19.952  0.00  0.00    +0.000 A 
ATOM      6  C   UNL     1       1.724   4.680  20.889  0.00  0.00    +0.000 A 
ATOM      7  C   UNL     1       1.717   3.447  21.540  0.00  0.00    +0.000 A 
ATOM      8  C   UNL     1       2.711   2.510  21.260  0.00  0.00    +0.000 A 
ATOM      9  C   UNL     1       3.703   2.810  20.325  0.00  0.00    +0.000 A 
ATOM     10  C   UNL     1       3.710   4.049  19.667  0.00  0.00    +0.000 A 
ATOM     11  C   UNL     1       4.773   4.355  18.695  0.00  0.00    +0.000 C 
ATOM     12  O   UNL     1       5.674   3.532  18.587  0.00  0.00    +0.000 OA
ENDROOT
BRANCH   1  13
ATOM     13  C   UNL     1       5.761   5.842  16.745  0.00  0.00    +0.000 C 
ATOM     14  C   UNL     1       6.935   6.701  17.292  0.00  0.00    +0.000 C 
ATOM     15  C   UNL     1       5.267   6.611  15.492  0.00  0.00    +0.000 C 
BRANCH  13  17
ATOM     16  C   UNL     1       6.013   3.978  14.971  0.00  0.00    +0.000 C 
ATOM     17  C   UNL     1       6.219   4.480  16.200  0.00  0.00    +0.000 C 
ENDBRANCH  13  17
ENDBRANCH   1  13
BRANCH   2  18
ATOM     18  O   UNL     1       3.579   7.739  17.565  0.00  0.00    +0.000 OA
ATOM     19  H   UNL     1       2.730   8.138  17.800  0.00  0.00    +0.000 HD
ENDBRANCH   2  18
TORSDOF 3
ENDMDL
MODEL 8
REMARK VINA RESULT:      -6.9      0.664      1.598
REMARK  Name = 
REMARK  5 active torsions:
REMARK  status: ('A' for Active; 'I' for Inactive)
REMARK    1  A    between atoms: C_2  and  C_3
REMARK    2  A    between atoms: C_3  and  C_4
REMARK    3  A    between atoms: C_3  and  C_5
REMARK    4  A    between atoms: C_3  and  C_6
REMARK    5  A    between atoms: C_7  and  O_8
REMARK                            x       y       z     vdW  Elec       q    Type
REMARK                         _______ _______ _______ _____ _____    ______ ____
ROOT
ATOM      1  C   UNL     1       4.537   4.810  17.011  0.00  0.00    +0.000 C 
ATOM      2  C   UNL     1       4.552   3.454  17.044  0.00  0.00    +0.000 C 
ATOM      3  C   UNL     1       3.671   2.647  17.949  0.00  0.00    +0.000 C 
ATOM      4  O   UNL     1       3.653   1.420  17.911  0.00  0.00    +0.000 OA
ATOM      5  C   UNL     1       2.822   3.351  18.909  0.00  0.00    +0.000 A 
ATOM      6  C   UNL     1       2.058   2.627  19.836  0.00  0.00    +0.000 A 
ATOM      7  C   UNL     1       1.245   3.295  20.751  0.00  0.00    +0.000 A 
ATOM      8  C   UNL     1       1.189   4.688  20.741  0.00  0.00    +0.000 A 
ATOM      9  C   UNL     1       1.951   5.406  19.818  0.00  0.00    +0.000 A 
ATOM     10  C   UNL     1       2.772   4.736  18.898  0.00  0.00    +0.000 A 
ATOM     11  C   UNL     1       3.559   5.509  17.922  0.00  0.00    +0.000 C 
ATOM     12  O   UNL     1       3.369   6.719  17.897  0.00  0.00    +0.000 OA
ENDROOT
BRANCH   1  13
ATOM     13  C   UNL     1       5.482   5.670  16.116  0.00  0.00    +0.000 C 
ATOM     14  C   UNL     1       6.792   5.950  16.904  0.00  0.00    +0.000 C 
ATOM     15  C   UNL     1       4.966   7.073  15.706  0.00  0.00    +0.000 C 
BRANCH  13  17
ATOM     16  C   UNL     1       6.899   4.804  14.134  0.00  0.00    +0.000 C 
ATOM     17  C   UNL     1       5.731   4.951  14.779  0.00  0.00    +0.000 C 
ENDBRANCH  13  17
ENDBRANCH   1  13
BRANCH   2  18
ATOM     18  O   UNL     1       5.384   2.671  16.260  0.00  0.00    +0.000 OA
ATOM     19  H   UNL     1       6.305   2.756  16.540  0.00  0.00    +0.000 HD
ENDBRANCH   2  18
TORSDOF 3
ENDMDL
MODEL 9
REMARK VINA RESULT:      -6.9      1.391      5.673
REMARK  Name = 
REMARK  5 active torsions:
REMARK  status: ('A' for Active; 'I' for Inactive)
REMARK    1  A    between atoms: C_2  and  C_3
REMARK    2  A    between atoms: C_3  and  C_4
REMARK    3  A    between atoms: C_3  and  C_5
REMARK    4  A    between atoms: C_3  and  C_6
REMARK    5  A    between atoms: C_7  and  O_8
REMARK                            x       y       z     vdW  Elec       q    Type
REMARK                         _______ _______ _______ _____ _____    ______ ____
ROOT
ATOM      1  C   UNL     1       3.000   4.436  18.970  0.00  0.00    +0.000 C 
ATOM      2  C   UNL     1       2.962   5.778  18.775  0.00  0.00    +0.000 C 
ATOM      3  C   UNL     1       3.688   6.464  17.658  0.00  0.00    +0.000 C 
ATOM      4  O   UNL     1       3.582   7.671  17.462  0.00  0.00    +0.000 OA
ATOM      5  C   UNL     1       4.553   5.666  16.791  0.00  0.00    +0.000 A 
ATOM      6  C   UNL     1       5.322   6.289  15.798  0.00  0.00    +0.000 A 
ATOM      7  C   UNL     1       6.146   5.530  14.967  0.00  0.00    +0.000 A 
ATOM      8  C   UNL     1       6.203   4.146  15.124  0.00  0.00    +0.000 A 
ATOM      9  C   UNL     1       5.437   3.528  16.115  0.00  0.00    +0.000 A 
ATOM     10  C   UNL     1       4.610   4.290  16.953  0.00  0.00    +0.000 A 
ATOM     11  C   UNL     1       3.798   3.621  17.983  0.00  0.00    +0.000 C 
ATOM     12  O   UNL     1       3.811   2.396  17.984  0.00  0.00    +0.000 OA
ENDROOT
BRANCH   1  13
ATOM     13  C   UNL     1       2.295   3.708  20.157  0.00  0.00    +0.000 C 
ATOM     14  C   UNL     1       2.271   4.665  21.381  0.00  0.00    +0.000 C 
ATOM     15  C   UNL     1       2.976   2.418  20.684  0.00  0.00    +0.000 C 
BRANCH  13  17
ATOM     16  C   UNL     1       0.579   2.271  18.862  0.00  0.00    +0.000 C 
ATOM     17  C   UNL     1       0.892   3.250  19.728  0.00  0.00    +0.000 C 
ENDBRANCH  13  17
ENDBRANCH   1  13
BRANCH   2  18
ATOM     18  O   UNL     1       2.264   6.658  19.587  0.00  0.00    +0.000 OA
ATOM     19  H   UNL     1       2.051   6.250  20.438  0.00  0.00    +0.000 HD
ENDBRANCH   2  18
TORSDOF 3
ENDMDL
