MODEL 1
REMARK VINA RESULT:      -7.2      0.000      0.000
REMARK  Name = 
REMARK  6 active torsions:
REMARK  status: ('A' for Active; 'I' for Inactive)
REMARK    1  A    between atoms: C_1  and  C_2
REMARK    2  A    between atoms: C_3  and  C_4
REMARK    3  A    between atoms: C_4  and  C_5
REMARK    4  A    between atoms: C_14  and  C_16
REMARK    5  A    between atoms: C_16  and  C_17
REMARK    6  A    between atoms: C_16  and  N_18
REMARK                            x       y       z     vdW  Elec       q    Type
REMARK                         _______ _______ _______ _____ _____    ______ ____
ROOT
ATOM      1  C   UNL     1       5.664   3.580  15.352  0.00  0.00    +0.000 C 
ATOM      2  C   UNL     1       4.839   4.673  16.018  0.00  0.00    +0.000 C 
ATOM      3  C   UNL     1       3.623   4.147  16.840  0.00  0.00    +0.000 C 
ATOM      4  C   UNL     1       3.217   5.431  17.572  0.00  0.00    +0.000 C 
ATOM      5  C   UNL     1       4.547   6.081  17.933  0.00  0.00    +0.000 C 
ATOM      6  N   UNL     1       5.510   5.572  16.966  0.00  0.00    +0.000 N 
ATOM      7  C   UNL     1       6.819   6.040  16.863  0.00  0.00    +0.000 C 
ATOM      8  O   UNL     1       7.587   5.689  15.970  0.00  0.00    +0.000 OA
ENDROOT
BRANCH   7   9
ATOM      9  C   UNL     1       7.265   7.086  17.941  0.00  0.00    +0.000 C 
ATOM     10  C   UNL     1       8.157   6.481  19.021  0.00  0.00    +0.000 C 
BRANCH   9  11
ATOM     11  N   UNL     1       7.974   8.196  17.270  0.00  0.00    +0.000 NA
ATOM     12  H   UNL     1       7.269   8.824  16.878  0.00  0.00    +0.000 HD
ATOM     13  H   UNL     1       8.487   7.829  16.470  0.00  0.00    +0.000 HD
ENDBRANCH   9  11
ENDBRANCH   7   9
BRANCH   3  14
ATOM     14  C   UNL     1       3.994   3.007  17.819  0.00  0.00    +0.000 C 
BRANCH  14  15
ATOM     15  C   UNL     1       3.081   2.795  19.012  0.00  0.00    +0.000 A 
ATOM     16  C   UNL     1       3.576   2.798  20.324  0.00  0.00    +0.000 A 
ATOM     17  C   UNL     1       2.698   2.761  21.418  0.00  0.00    +0.000 A 
ATOM     18  C   UNL     1       1.320   2.730  21.215  0.00  0.00    +0.000 A 
ATOM     19  C   UNL     1       0.817   2.698  19.918  0.00  0.00    +0.000 A 
ATOM     20  C   UNL     1       1.691   2.720  18.826  0.00  0.00    +0.000 A 
ENDBRANCH  14  15
ENDBRANCH   3  14
TORSDOF 4
ENDMDL
MODEL 2
REMARK VINA RESULT:      -6.8      0.220      1.149
REMARK  Name = 
REMARK  6 active torsions:
REMARK  status: ('A' for Active; 'I' for Inactive)
REMARK    1  A    between atoms: C_1  and  C_2
REMARK    2  A    between atoms: C_3  and  C_4
REMARK    3  A    between atoms: C_4  and  C_5
REMARK    4  A    between atoms: C_14  and  C_16
REMARK    5  A    between atoms: C_16  and  C_17
REMARK    6  A    between atoms: C_16  and  N_18
REMARK                            x       y       z     vdW  Elec       q    Type
REMARK                         _______ _______ _______ _____ _____    ______ ____
ROOT
ATOM      1  C   UNL     1       5.624   3.397  15.520  0.00  0.00    +0.000 C 
ATOM      2  C   UNL     1       4.819   4.560  16.083  0.00  0.00    +0.000 C 
ATOM      3  C   UNL     1       3.545   4.133  16.874  0.00  0.00    +0.000 C 
ATOM      4  C   UNL     1       3.162   5.472  17.513  0.00  0.00    +0.000 C 
ATOM      5  C   UNL     1       4.502   6.087  17.901  0.00  0.00    +0.000 C 
ATOM      6  N   UNL     1       5.485   5.483  17.011  0.00  0.00    +0.000 N 
ATOM      7  C   UNL     1       6.817   5.890  16.945  0.00  0.00    +0.000 C 
ATOM      8  O   UNL     1       7.608   5.457  16.110  0.00  0.00    +0.000 OA
ENDROOT
BRANCH   7   9
ATOM      9  C   UNL     1       7.258   6.976  17.983  0.00  0.00    +0.000 C 
ATOM     10  C   UNL     1       8.186   6.425  19.062  0.00  0.00    +0.000 C 
BRANCH   9  11
ATOM     11  N   UNL     1       7.927   8.083  17.267  0.00  0.00    +0.000 NA
ATOM     12  H   UNL     1       8.619   7.673  16.635  0.00  0.00    +0.000 HD
ATOM     13  H   UNL     1       8.463   8.637  17.934  0.00  0.00    +0.000 HD
ENDBRANCH   9  11
ENDBRANCH   7   9
BRANCH   3  14
ATOM     14  C   UNL     1       3.820   3.036  17.932  0.00  0.00    +0.000 C 
BRANCH  14  15
ATOM     15  C   UNL     1       2.939   3.030  19.167  0.00  0.00    +0.000 A 
ATOM     16  C   UNL     1       1.542   3.098  19.072  0.00  0.00    +0.000 A 
ATOM     17  C   UNL     1       0.740   2.930  20.211  0.00  0.00    +0.000 A 
ATOM     18  C   UNL     1       1.323   2.684  21.452  0.00  0.00    +0.000 A 
ATOM     19  C   UNL     1       2.709   2.642  21.566  0.00  0.00    +0.000 A 
ATOM     20  C   UNL     1       3.510   2.823  20.433  0.00  0.00    +0.000 A 
ENDBRANCH  14  15
ENDBRANCH   3  14
TORSDOF 4
ENDMDL
MODEL 3
REMARK VINA RESULT:      -6.7      1.129      1.201
REMARK  Name = 
REMARK  6 active torsions:
REMARK  status: ('A' for Active; 'I' for Inactive)
REMARK    1  A    between atoms: C_1  and  C_2
REMARK    2  A    between atoms: C_3  and  C_4
REMARK    3  A    between atoms: C_4  and  C_5
REMARK    4  A    between atoms: C_14  and  C_16
REMARK    5  A    between atoms: C_16  and  C_17
REMARK    6  A    between atoms: C_16  and  N_18
REMARK                            x       y       z     vdW  Elec       q    Type
REMARK                         _______ _______ _______ _____ _____    ______ ____
ROOT
ATOM      1  C   UNL     1       5.519   3.323  15.448  0.00  0.00    +0.000 C 
ATOM      2  C   UNL     1       5.018   4.476  16.306  0.00  0.00    +0.000 C 
ATOM      3  C   UNL     1       3.652   4.207  17.007  0.00  0.00    +0.000 C 
ATOM      4  C   UNL     1       3.602   5.398  17.969  0.00  0.00    +0.000 C 
ATOM      5  C   UNL     1       5.040   5.536  18.454  0.00  0.00    +0.000 C 
ATOM      6  N   UNL     1       5.866   4.941  17.412  0.00  0.00    +0.000 N 
ATOM      7  C   UNL     1       7.259   4.998  17.407  0.00  0.00    +0.000 C 
ATOM      8  O   UNL     1       7.942   4.597  16.467  0.00  0.00    +0.000 OA
ENDROOT
BRANCH   7   9
ATOM      9  C   UNL     1       7.928   5.645  18.667  0.00  0.00    +0.000 C 
ATOM     10  C   UNL     1       8.026   7.165  18.573  0.00  0.00    +0.000 C 
BRANCH   9  11
ATOM     11  N   UNL     1       7.155   5.268  19.869  0.00  0.00    +0.000 NA
ATOM     12  H   UNL     1       7.806   5.222  20.657  0.00  0.00    +0.000 HD
ATOM     13  H   UNL     1       6.800   4.319  19.754  0.00  0.00    +0.000 HD
ENDBRANCH   9  11
ENDBRANCH   7   9
BRANCH   3  14
ATOM     14  C   UNL     1       3.603   2.850  17.752  0.00  0.00    +0.000 C 
BRANCH  14  15
ATOM     15  C   UNL     1       2.780   2.789  19.025  0.00  0.00    +0.000 A 
ATOM     16  C   UNL     1       3.382   2.622  20.279  0.00  0.00    +0.000 A 
ATOM     17  C   UNL     1       2.622   2.728  21.455  0.00  0.00    +0.000 A 
ATOM     18  C   UNL     1       1.259   3.010  21.390  0.00  0.00    +0.000 A 
ATOM     19  C   UNL     1       0.644   3.150  20.150  0.00  0.00    +0.000 A 
ATOM     20  C   UNL     1       1.397   3.030  18.977  0.00  0.00    +0.000 A 
ENDBRANCH  14  15
ENDBRANCH   3  14
TORSDOF 4
ENDMDL
MODEL 4
REMARK VINA RESULT:      -6.7      1.120      1.646
REMARK  Name = 
REMARK  6 active torsions:
REMARK  status: ('A' for Active; 'I' for Inactive)
REMARK    1  A    between atoms: C_1  and  C_2
REMARK    2  A    between atoms: C_3  and  C_4
REMARK    3  A    between atoms: C_4  and  C_5
REMARK    4  A    between atoms: C_14  and  C_16
REMARK    5  A    between atoms: C_16  and  C_17
REMARK    6  A    between atoms: C_16  and  N_18
REMARK                            x       y       z     vdW  Elec       q    Type
REMARK                         _______ _______ _______ _____ _____    ______ ____
ROOT
ATOM      1  C   UNL     1       5.516   3.419  15.452  0.00  0.00    +0.000 C 
ATOM      2  C   UNL     1       5.060   4.611  16.283  0.00  0.00    +0.000 C 
ATOM      3  C   UNL     1       3.665   4.427  16.954  0.00  0.00    +0.000 C 
ATOM      4  C   UNL     1       3.659   5.633  17.899  0.00  0.00    +0.000 C 
ATOM      5  C   UNL     1       5.091   5.698  18.417  0.00  0.00    +0.000 C 
ATOM      6  N   UNL     1       5.907   5.043  17.403  0.00  0.00    +0.000 N 
ATOM      7  C   UNL     1       7.300   5.023  17.431  0.00  0.00    +0.000 C 
ATOM      8  O   UNL     1       7.981   4.571  16.513  0.00  0.00    +0.000 OA
ENDROOT
BRANCH   7   9
ATOM      9  C   UNL     1       7.974   5.649  18.698  0.00  0.00    +0.000 C 
ATOM     10  C   UNL     1       8.092   7.169  18.619  0.00  0.00    +0.000 C 
BRANCH   9  11
ATOM     11  N   UNL     1       7.194   5.271  19.895  0.00  0.00    +0.000 NA
ATOM     12  H   UNL     1       6.237   5.605  19.762  0.00  0.00    +0.000 HD
ATOM     13  H   UNL     1       7.551   5.781  20.702  0.00  0.00    +0.000 HD
ENDBRANCH   9  11
ENDBRANCH   7   9
BRANCH   3  14
ATOM     14  C   UNL     1       3.523   3.086  17.715  0.00  0.00    +0.000 C 
BRANCH  14  15
ATOM     15  C   UNL     1       2.745   3.108  19.018  0.00  0.00    +0.000 A 
ATOM     16  C   UNL     1       1.355   3.286  19.039  0.00  0.00    +0.000 A 
ATOM     17  C   UNL     1       0.636   3.144  20.235  0.00  0.00    +0.000 A 
ATOM     18  C   UNL     1       1.295   2.816  21.418  0.00  0.00    +0.000 A 
ATOM     19  C   UNL     1       2.678   2.665  21.417  0.00  0.00    +0.000 A 
ATOM     20  C   UNL     1       3.398   2.821  20.227  0.00  0.00    +0.000 A 
ENDBRANCH  14  15
ENDBRANCH   3  14
TORSDOF 4
ENDMDL
MODEL 5
REMARK VINA RESULT:      -6.7      1.916      3.055
REMARK  Name = 
REMARK  6 active torsions:
REMARK  status: ('A' for Active; 'I' for Inactive)
REMARK    1  A    between atoms: C_1  and  C_2
REMARK    2  A    between atoms: C_3  and  C_4
REMARK    3  A    between atoms: C_4  and  C_5
REMARK    4  A    between atoms: C_14  and  C_16
REMARK    5  A    between atoms: C_16  and  C_17
REMARK    6  A    between atoms: C_16  and  N_18
REMARK                            x       y       z     vdW  Elec       q    Type
REMARK                         _______ _______ _______ _____ _____    ______ ____
ROOT
ATOM      1  C   UNL     1       3.916   6.132  17.352  0.00  0.00    +0.000 C 
ATOM      2  C   UNL     1       5.397   5.915  17.632  0.00  0.00    +0.000 C 
ATOM      3  C   UNL     1       5.690   5.070  18.909  0.00  0.00    +0.000 C 
ATOM      4  C   UNL     1       7.190   4.817  18.727  0.00  0.00    +0.000 C 
ATOM      5  C   UNL     1       7.339   4.572  17.230  0.00  0.00    +0.000 C 
ATOM      6  N   UNL     1       6.209   5.247  16.606  0.00  0.00    +0.000 N 
ATOM      7  C   UNL     1       6.060   5.385  15.226  0.00  0.00    +0.000 C 
ATOM      8  O   UNL     1       5.167   6.057  14.714  0.00  0.00    +0.000 OA
ENDROOT
BRANCH   7   9
ATOM      9  C   UNL     1       7.129   4.660  14.341  0.00  0.00    +0.000 C 
ATOM     10  C   UNL     1       6.509   3.848  13.207  0.00  0.00    +0.000 C 
BRANCH   9  11
ATOM     11  N   UNL     1       8.057   5.666  13.786  0.00  0.00    +0.000 NA
ATOM     12  H   UNL     1       7.762   6.585  14.125  0.00  0.00    +0.000 HD
ATOM     13  H   UNL     1       7.945   5.701  12.773  0.00  0.00    +0.000 HD
ENDBRANCH   9  11
ENDBRANCH   7   9
BRANCH   3  14
ATOM     14  C   UNL     1       4.877   3.755  18.974  0.00  0.00    +0.000 C 
BRANCH  14  15
ATOM     15  C   UNL     1       3.483   3.831  19.569  0.00  0.00    +0.000 A 
ATOM     16  C   UNL     1       3.081   4.920  20.354  0.00  0.00    +0.000 A 
ATOM     17  C   UNL     1       1.744   5.050  20.761  0.00  0.00    +0.000 A 
ATOM     18  C   UNL     1       0.796   4.102  20.381  0.00  0.00    +0.000 A 
ATOM     19  C   UNL     1       1.189   3.001  19.625  0.00  0.00    +0.000 A 
ATOM     20  C   UNL     1       2.524   2.863  19.231  0.00  0.00    +0.000 A 
ENDBRANCH  14  15
ENDBRANCH   3  14
TORSDOF 4
ENDMDL
MODEL 6
REMARK VINA RESULT:      -6.6      1.955      3.214
REMARK  Name = 
REMARK  6 active torsions:
REMARK  status: ('A' for Active; 'I' for Inactive)
REMARK    1  A    between atoms: C_1  and  C_2
REMARK    2  A    between atoms: C_3  and  C_4
REMARK    3  A    between atoms: C_4  and  C_5
REMARK    4  A    between atoms: C_14  and  C_16
REMARK    5  A    between atoms: C_16  and  C_17
REMARK    6  A    between atoms: C_16  and  N_18
REMARK                            x       y       z     vdW  Elec       q    Type
REMARK                         _______ _______ _______ _____ _____    ______ ____
ROOT
ATOM      1  C   UNL     1       4.026   6.240  17.289  0.00  0.00    +0.000 C 
ATOM      2  C   UNL     1       5.501   5.972  17.555  0.00  0.00    +0.000 C 
ATOM      3  C   UNL     1       5.777   5.124  18.833  0.00  0.00    +0.000 C 
ATOM      4  C   UNL     1       7.265   4.815  18.636  0.00  0.00    +0.000 C 
ATOM      5  C   UNL     1       7.389   4.558  17.139  0.00  0.00    +0.000 C 
ATOM      6  N   UNL     1       6.277   5.270  16.523  0.00  0.00    +0.000 N 
ATOM      7  C   UNL     1       6.118   5.406  15.145  0.00  0.00    +0.000 C 
ATOM      8  O   UNL     1       5.244   6.107  14.638  0.00  0.00    +0.000 OA
ENDROOT
BRANCH   7   9
ATOM      9  C   UNL     1       7.150   4.638  14.252  0.00  0.00    +0.000 C 
ATOM     10  C   UNL     1       6.488   3.830  13.139  0.00  0.00    +0.000 C 
BRANCH   9  11
ATOM     11  N   UNL     1       8.098   5.609  13.668  0.00  0.00    +0.000 NA
ATOM     12  H   UNL     1       7.859   5.724  12.681  0.00  0.00    +0.000 HD
ATOM     13  H   UNL     1       9.035   5.208  13.676  0.00  0.00    +0.000 HD
ENDBRANCH   9  11
ENDBRANCH   7   9
BRANCH   3  14
ATOM     14  C   UNL     1       4.918   3.838  18.914  0.00  0.00    +0.000 C 
BRANCH  14  15
ATOM     15  C   UNL     1       3.472   3.999  19.344  0.00  0.00    +0.000 A 
ATOM     16  C   UNL     1       2.477   3.110  18.913  0.00  0.00    +0.000 A 
ATOM     17  C   UNL     1       1.180   3.179  19.446  0.00  0.00    +0.000 A 
ATOM     18  C   UNL     1       0.867   4.126  20.418  0.00  0.00    +0.000 A 
ATOM     19  C   UNL     1       1.839   5.032  20.833  0.00  0.00    +0.000 A 
ATOM     20  C   UNL     1       3.127   4.975  20.292  0.00  0.00    +0.000 A 
ENDBRANCH  14  15
ENDBRANCH   3  14
TORSDOF 4
ENDMDL
MODEL 7
REMARK VINA RESULT:      -6.5      2.018      3.057
REMARK  Name = 
REMARK  6 active torsions:
REMARK  status: ('A' for Active; 'I' for Inactive)
REMARK    1  A    between atoms: C_1  and  C_2
REMARK    2  A    between atoms: C_3  and  C_4
REMARK    3  A    between atoms: C_4  and  C_5
REMARK    4  A    between atoms: C_14  and  C_16
REMARK    5  A    between atoms: C_16  and  C_17
REMARK    6  A    between atoms: C_16  and  N_18
REMARK                            x       y       z     vdW  Elec       q    Type
REMARK                         _______ _______ _______ _____ _____    ______ ____
ROOT
ATOM      1  C   UNL     1       3.358   7.977  17.066  0.00  0.00    +0.000 C 
ATOM      2  C   UNL     1       4.319   7.062  17.812  0.00  0.00    +0.000 C 
ATOM      3  C   UNL     1       3.678   6.302  19.013  0.00  0.00    +0.000 C 
ATOM      4  C   UNL     1       4.797   5.305  19.331  0.00  0.00    +0.000 C 
ATOM      5  C   UNL     1       5.314   4.888  17.959  0.00  0.00    +0.000 C 
ATOM      6  N   UNL     1       4.981   5.987  17.061  0.00  0.00    +0.000 N 
ATOM      7  C   UNL     1       5.415   6.059  15.738  0.00  0.00    +0.000 C 
ATOM      8  O   UNL     1       5.229   7.044  15.026  0.00  0.00    +0.000 OA
ENDROOT
BRANCH   7   9
ATOM      9  C   UNL     1       6.201   4.816  15.201  0.00  0.00    +0.000 C 
ATOM     10  C   UNL     1       5.517   4.148  14.012  0.00  0.00    +0.000 C 
BRANCH   9  11
ATOM     11  N   UNL     1       7.566   5.237  14.820  0.00  0.00    +0.000 NA
ATOM     12  H   UNL     1       7.527   6.227  14.562  0.00  0.00    +0.000 HD
ATOM     13  H   UNL     1       7.842   4.746  13.971  0.00  0.00    +0.000 HD
ENDBRANCH   9  11
ENDBRANCH   7   9
BRANCH   3  14
ATOM     14  C   UNL     1       2.349   5.595  18.651  0.00  0.00    +0.000 C 
BRANCH  14  15
ATOM     15  C   UNL     1       1.962   4.383  19.477  0.00  0.00    +0.000 A 
ATOM     16  C   UNL     1       1.812   3.117  18.894  0.00  0.00    +0.000 A 
ATOM     17  C   UNL     1       1.613   1.982  19.696  0.00  0.00    +0.000 A 
ATOM     18  C   UNL     1       1.570   2.098  21.083  0.00  0.00    +0.000 A 
ATOM     19  C   UNL     1       1.689   3.353  21.673  0.00  0.00    +0.000 A 
ATOM     20  C   UNL     1       1.874   4.487  20.875  0.00  0.00    +0.000 A 
ENDBRANCH  14  15
ENDBRANCH   3  14
TORSDOF 4
ENDMDL
MODEL 8
REMARK VINA RESULT:      -6.5      2.937      6.188
REMARK  Name = 
REMARK  6 active torsions:
REMARK  status: ('A' for Active; 'I' for Inactive)
REMARK    1  A    between atoms: C_1  and  C_2
REMARK    2  A    between atoms: C_3  and  C_4
REMARK    3  A    between atoms: C_4  and  C_5
REMARK    4  A    between atoms: C_14  and  C_16
REMARK    5  A    between atoms: C_16  and  C_17
REMARK    6  A    between atoms: C_16  and  N_18
REMARK                            x       y       z     vdW  Elec       q    Type
REMARK                         _______ _______ _______ _____ _____    ______ ____
ROOT
ATOM      1  C   UNL     1       2.982   2.928  17.212  0.00  0.00    +0.000 C 
ATOM      2  C   UNL     1       4.128   3.716  17.831  0.00  0.00    +0.000 C 
ATOM      3  C   UNL     1       5.316   3.989  16.859  0.00  0.00    +0.000 C 
ATOM      4  C   UNL     1       6.114   5.003  17.686  0.00  0.00    +0.000 C 
ATOM      5  C   UNL     1       5.041   5.873  18.329  0.00  0.00    +0.000 C 
ATOM      6  N   UNL     1       3.841   5.048  18.379  0.00  0.00    +0.000 N 
ATOM      7  C   UNL     1       2.671   5.430  19.033  0.00  0.00    +0.000 C 
ATOM      8  O   UNL     1       1.706   4.681  19.170  0.00  0.00    +0.000 OA
ENDROOT
BRANCH   7   9
ATOM      9  C   UNL     1       2.655   6.877  19.631  0.00  0.00    +0.000 C 
ATOM     10  C   UNL     1       2.151   7.924  18.641  0.00  0.00    +0.000 C 
BRANCH   9  11
ATOM     11  N   UNL     1       1.809   6.889  20.842  0.00  0.00    +0.000 NA
ATOM     12  H   UNL     1       1.043   6.227  20.695  0.00  0.00    +0.000 HD
ATOM     13  H   UNL     1       1.366   7.802  20.932  0.00  0.00    +0.000 HD
ENDBRANCH   9  11
ENDBRANCH   7   9
BRANCH   3  14
ATOM     14  C   UNL     1       4.870   4.567  15.494  0.00  0.00    +0.000 C 
BRANCH  14  15
ATOM     15  C   UNL     1       5.785   4.327  14.308  0.00  0.00    +0.000 A 
ATOM     16  C   UNL     1       5.411   3.484  13.253  0.00  0.00    +0.000 A 
ATOM     17  C   UNL     1       6.198   3.399  12.094  0.00  0.00    +0.000 A 
ATOM     18  C   UNL     1       7.358   4.161  11.973  0.00  0.00    +0.000 A 
ATOM     19  C   UNL     1       7.755   4.980  13.025  0.00  0.00    +0.000 A 
ATOM     20  C   UNL     1       6.980   5.055  14.187  0.00  0.00    +0.000 A 
ENDBRANCH  14  15
ENDBRANCH   3  14
TORSDOF 4
ENDMDL
MODEL 9
REMARK VINA RESULT:      -6.5      3.674      4.746
REMARK  Name = 
REMARK  6 active torsions:
REMARK  status: ('A' for Active; 'I' for Inactive)
REMARK    1  A    between atoms: C_1  and  C_2
REMARK    2  A    between atoms: C_3  and  C_4
REMARK    3  A    between atoms: C_4  and  C_5
REMARK    4  A    between atoms: C_14  and  C_16
REMARK    5  A    between atoms: C_16  and  C_17
REMARK    6  A    between atoms: C_16  and  N_18
REMARK                            x       y       z     vdW  Elec       q    Type
REMARK                         _______ _______ _______ _____ _____    ______ ____
ROOT
ATOM      1  C   UNL     1       2.852   4.317  19.608  0.00  0.00    +0.000 C 
ATOM      2  C   UNL     1       3.256   5.166  18.410  0.00  0.00    +0.000 C 
ATOM      3  C   UNL     1       2.555   6.556  18.345  0.00  0.00    +0.000 C 
ATOM      4  C   UNL     1       3.377   7.221  17.236  0.00  0.00    +0.000 C 
ATOM      5  C   UNL     1       4.803   6.758  17.510  0.00  0.00    +0.000 C 
ATOM      6  N   UNL     1       4.676   5.507  18.247  0.00  0.00    +0.000 N 
ATOM      7  C   UNL     1       5.757   4.685  18.561  0.00  0.00    +0.000 C 
ATOM      8  O   UNL     1       5.628   3.577  19.077  0.00  0.00    +0.000 OA
ENDROOT
BRANCH   7   9
ATOM      9  C   UNL     1       7.174   5.235  18.182  0.00  0.00    +0.000 C 
ATOM     10  C   UNL     1       7.919   5.827  19.375  0.00  0.00    +0.000 C 
BRANCH   9  11
ATOM     11  N   UNL     1       7.971   4.141  17.588  0.00  0.00    +0.000 NA
ATOM     12  H   UNL     1       7.332   3.537  17.066  0.00  0.00    +0.000 HD
ATOM     13  H   UNL     1       8.348   3.559  18.335  0.00  0.00    +0.000 HD
ENDBRANCH   9  11
ENDBRANCH   7   9
BRANCH   3  14
ATOM     14  C   UNL     1       2.627   7.341  19.678  0.00  0.00    +0.000 C 
BRANCH  14  15
ATOM     15  C   UNL     1       1.493   8.304  19.976  0.00  0.00    +0.000 A 
ATOM     16  C   UNL     1       0.815   8.280  21.203  0.00  0.00    +0.000 A 
ATOM     17  C   UNL     1      -0.119   9.278  21.521  0.00  0.00    +0.000 A 
ATOM     18  C   UNL     1      -0.379  10.311  20.624  0.00  0.00    +0.000 A 
ATOM     19  C   UNL     1       0.266  10.330  19.391  0.00  0.00    +0.000 A 
ATOM     20  C   UNL     1       1.187   9.328  19.067  0.00  0.00    +0.000 A 
ENDBRANCH  14  15
ENDBRANCH   3  14
TORSDOF 4
ENDMDL
