MODEL 1
REMARK VINA RESULT:      -7.4      0.000      0.000
REMARK  Name = 
REMARK  10 active torsions:
REMARK  status: ('A' for Active; 'I' for Inactive)
REMARK    1  A    between atoms: C_2  and  C_3
REMARK    2  A    between atoms: C_3  and  C_4
REMARK    3  A    between atoms: N_12  and  C_13
REMARK    4  A    between atoms: C_13  and  C_14
REMARK    5  A    between atoms: C_14  and  C_15
REMARK    6  A    between atoms: C_15  and  N_16
REMARK    7  A    between atoms: N_19  and  C_20
REMARK    8  A    between atoms: C_20  and  C_21
REMARK    9  A    between atoms: C_21  and  C_22
REMARK   10  A    between atoms: C_22  and  N_23
REMARK                            x       y       z     vdW  Elec       q    Type
REMARK                         _______ _______ _______ _____ _____    ______ ____
ROOT
ATOM      1  C   UNL     1       5.088   3.677  16.129  0.00  0.00    +0.000 C 
ENDROOT
BRANCH   1   2
ATOM      2  N   UNL     1       5.453   5.021  15.644  0.00  0.00    +0.000 NA
ATOM      3  C   UNL     1       4.874   6.108  16.454  0.00  0.00    +0.000 C 
ATOM      4  C   UNL     1       5.496   6.238  17.860  0.00  0.00    +0.000 C 
ATOM      5  N   UNL     1       6.956   6.485  17.859  0.00  0.00    +0.000 NA
ATOM      6  C   UNL     1       7.596   5.450  17.011  0.00  0.00    +0.000 C 
ATOM      7  C   UNL     1       6.929   5.198  15.627  0.00  0.00    +0.000 C 
BRANCH   5   8
ATOM      8  C   UNL     1       7.301   7.845  17.393  0.00  0.00    +0.000 C 
BRANCH   8   9
ATOM      9  C   UNL     1       8.437   8.469  18.226  0.00  0.00    +0.000 C 
BRANCH   9  10
ATOM     10  C   UNL     1       8.499   9.998  18.134  0.00  0.00    +0.000 C 
BRANCH  10  11
ATOM     11  N   UNL     1       9.699  10.595  18.742  0.00  0.00    +0.000 NA
ATOM     12  C   UNL     1      10.405  11.518  17.839  0.00  0.00    +0.000 C 
ATOM     13  C   UNL     1      11.699  12.021  18.482  0.00  0.00    +0.000 C 
ATOM     14  C   UNL     1      11.422  12.698  19.816  0.00  0.00    +0.000 C 
ATOM     15  C   UNL     1      10.597  11.785  20.715  0.00  0.00    +0.000 C 
ATOM     16  C   UNL     1       9.345  11.277  19.998  0.00  0.00    +0.000 C 
ENDBRANCH  10  11
ENDBRANCH   9  10
ENDBRANCH   8   9
ENDBRANCH   5   8
ENDBRANCH   1   2
BRANCH   1  17
ATOM     17  C   UNL     1       3.737   3.596  16.855  0.00  0.00    +0.000 C 
BRANCH  17  18
ATOM     18  C   UNL     1       3.832   3.078  18.289  0.00  0.00    +0.000 C 
BRANCH  18  21
ATOM     19  O   UNL     1       1.259   4.110  18.903  0.00  0.00    +0.000 OA
ATOM     20  C   UNL     1       2.240   4.532  19.510  0.00  0.00    +0.000 C 
ATOM     21  N   UNL     1       3.533   4.145  19.231  0.00  0.00    +0.000 N 
ATOM     22  H   UNL     1       4.291   4.508  19.792  0.00  0.00    +0.000 HD
BRANCH  20  23
ATOM     23  C   UNL     1       2.118   5.521  20.656  0.00  0.00    +0.000 C 
BRANCH  23  24
ATOM     24  C   UNL     1       1.837   6.934  20.205  0.00  0.00    +0.000 A 
ATOM     25  C   UNL     1       2.271   7.375  18.948  0.00  0.00    +0.000 A 
ATOM     26  C   UNL     1       1.987   8.674  18.515  0.00  0.00    +0.000 A 
ATOM     27  C   UNL     1       1.264   9.545  19.332  0.00  0.00    +0.000 A 
ATOM     28 CL   UNL     1       0.943  11.132  18.730  0.00  0.00    +0.000 Cl
ATOM     29  C   UNL     1       0.824   9.114  20.585  0.00  0.00    +0.000 A 
ATOM     30 CL   UNL     1      -0.082  10.133  21.652  0.00  0.00    +0.000 Cl
ATOM     31  C   UNL     1       1.108   7.813  21.020  0.00  0.00    +0.000 A 
ENDBRANCH  23  24
ENDBRANCH  20  23
ENDBRANCH  18  21
ENDBRANCH  17  18
ENDBRANCH   1  17
TORSDOF 10
ENDMDL
MODEL 2
REMARK VINA RESULT:      -7.1      0.967      1.235
REMARK  Name = 
REMARK  10 active torsions:
REMARK  status: ('A' for Active; 'I' for Inactive)
REMARK    1  A    between atoms: C_2  and  C_3
REMARK    2  A    between atoms: C_3  and  C_4
REMARK    3  A    between atoms: N_12  and  C_13
REMARK    4  A    between atoms: C_13  and  C_14
REMARK    5  A    between atoms: C_14  and  C_15
REMARK    6  A    between atoms: C_15  and  N_16
REMARK    7  A    between atoms: N_19  and  C_20
REMARK    8  A    between atoms: C_20  and  C_21
REMARK    9  A    between atoms: C_21  and  C_22
REMARK   10  A    between atoms: C_22  and  N_23
REMARK                            x       y       z     vdW  Elec       q    Type
REMARK                         _______ _______ _______ _____ _____    ______ ____
ROOT
ATOM      1  C   UNL     1       5.418   3.920  17.503  0.00  0.00    +0.000 C 
ENDROOT
BRANCH   1   2
ATOM      2  N   UNL     1       5.193   5.286  18.010  0.00  0.00    +0.000 NA
ATOM      3  C   UNL     1       6.281   5.768  18.881  0.00  0.00    +0.000 C 
ATOM      4  C   UNL     1       7.599   6.058  18.132  0.00  0.00    +0.000 C 
ATOM      5  N   UNL     1       7.478   7.069  17.059  0.00  0.00    +0.000 NA
ATOM      6  C   UNL     1       6.358   6.669  16.173  0.00  0.00    +0.000 C 
ATOM      7  C   UNL     1       5.040   6.252  16.890  0.00  0.00    +0.000 C 
BRANCH   5   8
ATOM      8  C   UNL     1       7.279   8.436  17.587  0.00  0.00    +0.000 C 
BRANCH   8   9
ATOM      9  C   UNL     1       8.609   9.201  17.724  0.00  0.00    +0.000 C 
BRANCH   9  10
ATOM     10  C   UNL     1       8.887   9.705  19.146  0.00  0.00    +0.000 C 
BRANCH  10  11
ATOM     11  N   UNL     1       9.923  10.746  19.229  0.00  0.00    +0.000 NA
ATOM     12  C   UNL     1      10.264  11.327  17.921  0.00  0.00    +0.000 C 
ATOM     13  C   UNL     1      11.419  12.321  18.055  0.00  0.00    +0.000 C 
ATOM     14  C   UNL     1      11.082  13.424  19.048  0.00  0.00    +0.000 C 
ATOM     15  C   UNL     1      10.623  12.824  20.373  0.00  0.00    +0.000 C 
ATOM     16  C   UNL     1       9.504  11.803  20.166  0.00  0.00    +0.000 C 
ENDBRANCH  10  11
ENDBRANCH   9  10
ENDBRANCH   8   9
ENDBRANCH   5   8
ENDBRANCH   1   2
BRANCH   1  17
ATOM     17  C   UNL     1       4.146   3.075  17.334  0.00  0.00    +0.000 C 
BRANCH  17  18
ATOM     18  C   UNL     1       3.630   2.462  18.634  0.00  0.00    +0.000 C 
BRANCH  18  21
ATOM     19  O   UNL     1       0.992   3.370  19.165  0.00  0.00    +0.000 OA
ATOM     20  C   UNL     1       1.932   3.834  19.805  0.00  0.00    +0.000 C 
ATOM     21  N   UNL     1       3.250   3.509  19.568  0.00  0.00    +0.000 N 
ATOM     22  H   UNL     1       3.971   3.906  20.155  0.00  0.00    +0.000 HD
BRANCH  20  23
ATOM     23  C   UNL     1       1.726   4.812  20.950  0.00  0.00    +0.000 C 
BRANCH  23  24
ATOM     24  C   UNL     1       1.677   6.255  20.508  0.00  0.00    +0.000 A 
ATOM     25  C   UNL     1       2.266   6.644  19.298  0.00  0.00    +0.000 A 
ATOM     26  C   UNL     1       2.197   7.974  18.871  0.00  0.00    +0.000 A 
ATOM     27  C   UNL     1       1.537   8.929  19.648  0.00  0.00    +0.000 A 
ATOM     28 CL   UNL     1       1.485  10.551  19.057  0.00  0.00    +0.000 Cl
ATOM     29  C   UNL     1       0.944   8.550  20.855  0.00  0.00    +0.000 A 
ATOM     30 CL   UNL     1       0.104   9.672  21.870  0.00  0.00    +0.000 Cl
ATOM     31  C   UNL     1       1.013   7.217  21.283  0.00  0.00    +0.000 A 
ENDBRANCH  23  24
ENDBRANCH  20  23
ENDBRANCH  18  21
ENDBRANCH  17  18
ENDBRANCH   1  17
TORSDOF 10
ENDMDL
MODEL 3
REMARK VINA RESULT:      -7.1      4.314      9.616
REMARK  Name = 
REMARK  10 active torsions:
REMARK  status: ('A' for Active; 'I' for Inactive)
REMARK    1  A    between atoms: C_2  and  C_3
REMARK    2  A    between atoms: C_3  and  C_4
REMARK    3  A    between atoms: N_12  and  C_13
REMARK    4  A    between atoms: C_13  and  C_14
REMARK    5  A    between atoms: C_14  and  C_15
REMARK    6  A    between atoms: C_15  and  N_16
REMARK    7  A    between atoms: N_19  and  C_20
REMARK    8  A    between atoms: C_20  and  C_21
REMARK    9  A    between atoms: C_21  and  C_22
REMARK   10  A    between atoms: C_22  and  N_23
REMARK                            x       y       z     vdW  Elec       q    Type
REMARK                         _______ _______ _______ _____ _____    ______ ____
ROOT
ATOM      1  C   UNL     1       7.996   7.212  17.573  0.00  0.00    +0.000 C 
ENDROOT
BRANCH   1   2
ATOM      2  N   UNL     1       7.247   6.080  18.149  0.00  0.00    +0.000 NA
ATOM      3  C   UNL     1       5.785   6.229  18.027  0.00  0.00    +0.000 C 
ATOM      4  C   UNL     1       5.262   6.086  16.582  0.00  0.00    +0.000 C 
ATOM      5  N   UNL     1       5.578   4.789  15.945  0.00  0.00    +0.000 NA
ATOM      6  C   UNL     1       7.036   4.553  16.083  0.00  0.00    +0.000 C 
ATOM      7  C   UNL     1       7.634   4.799  17.500  0.00  0.00    +0.000 C 
BRANCH   5   8
ATOM      8  C   UNL     1       4.800   3.670  16.519  0.00  0.00    +0.000 C 
BRANCH   8   9
ATOM      9  C   UNL     1       3.402   4.120  16.986  0.00  0.00    +0.000 C 
BRANCH   9  10
ATOM     10  C   UNL     1       2.472   2.958  17.355  0.00  0.00    +0.000 C 
BRANCH  10  11
ATOM     11  N   UNL     1       1.917   3.033  18.716  0.00  0.00    +0.000 NA
ATOM     12  C   UNL     1       2.665   2.222  19.690  0.00  0.00    +0.000 C 
ATOM     13  C   UNL     1       1.980   2.250  21.057  0.00  0.00    +0.000 C 
ATOM     14  C   UNL     1       1.829   3.677  21.566  0.00  0.00    +0.000 C 
ATOM     15  C   UNL     1       1.151   4.547  20.515  0.00  0.00    +0.000 C 
ATOM     16  C   UNL     1       1.852   4.436  19.160  0.00  0.00    +0.000 C 
ENDBRANCH  10  11
ENDBRANCH   9  10
ENDBRANCH   8   9
ENDBRANCH   5   8
ENDBRANCH   1   2
BRANCH   1  17
ATOM     17  C   UNL     1       8.543   8.216  18.598  0.00  0.00    +0.000 C 
BRANCH  17  18
ATOM     18  C   UNL     1       8.325   9.677  18.214  0.00  0.00    +0.000 C 
BRANCH  18  21
ATOM     19  O   UNL     1       8.908  10.937  20.692  0.00  0.00    +0.000 OA
ATOM     20  C   UNL     1       9.733  10.980  19.783  0.00  0.00    +0.000 C 
ATOM     21  N   UNL     1       9.509  10.462  18.525  0.00  0.00    +0.000 N 
ATOM     22  H   UNL     1      10.245  10.504  17.834  0.00  0.00    +0.000 HD
BRANCH  20  23
ATOM     23  C   UNL     1      11.107  11.600  19.967  0.00  0.00    +0.000 C 
BRANCH  23  24
ATOM     24  C   UNL     1      11.116  13.101  19.804  0.00  0.00    +0.000 A 
ATOM     25  C   UNL     1      10.645  13.928  20.832  0.00  0.00    +0.000 A 
ATOM     26  C   UNL     1      10.679  15.320  20.696  0.00  0.00    +0.000 A 
ATOM     27  C   UNL     1      11.186  15.900  19.532  0.00  0.00    +0.000 A 
ATOM     28 CL   UNL     1      11.205  17.624  19.434  0.00  0.00    +0.000 Cl
ATOM     29  C   UNL     1      11.661  15.084  18.502  0.00  0.00    +0.000 A 
ATOM     30 CL   UNL     1      12.310  15.728  17.032  0.00  0.00    +0.000 Cl
ATOM     31  C   UNL     1      11.627  13.690  18.638  0.00  0.00    +0.000 A 
ENDBRANCH  23  24
ENDBRANCH  20  23
ENDBRANCH  18  21
ENDBRANCH  17  18
ENDBRANCH   1  17
TORSDOF 10
ENDMDL
MODEL 4
REMARK VINA RESULT:      -7.1      4.344      9.031
REMARK  Name = 
REMARK  10 active torsions:
REMARK  status: ('A' for Active; 'I' for Inactive)
REMARK    1  A    between atoms: C_2  and  C_3
REMARK    2  A    between atoms: C_3  and  C_4
REMARK    3  A    between atoms: N_12  and  C_13
REMARK    4  A    between atoms: C_13  and  C_14
REMARK    5  A    between atoms: C_14  and  C_15
REMARK    6  A    between atoms: C_15  and  N_16
REMARK    7  A    between atoms: N_19  and  C_20
REMARK    8  A    between atoms: C_20  and  C_21
REMARK    9  A    between atoms: C_21  and  C_22
REMARK   10  A    between atoms: C_22  and  N_23
REMARK                            x       y       z     vdW  Elec       q    Type
REMARK                         _______ _______ _______ _____ _____    ______ ____
ROOT
ATOM      1  C   UNL     1       1.087   7.132  21.182  0.00  0.00    +0.000 C 
ENDROOT
BRANCH   1   2
ATOM      2  N   UNL     1       1.616   8.508  21.179  0.00  0.00    +0.000 NA
ATOM      3  C   UNL     1       1.139   9.311  20.038  0.00  0.00    +0.000 C 
ATOM      4  C   UNL     1      -0.357   9.683  20.119  0.00  0.00    +0.000 C 
ATOM      5  N   UNL     1      -0.727  10.457  21.325  0.00  0.00    +0.000 NA
ATOM      6  C   UNL     1      -0.224   9.724  22.513  0.00  0.00    +0.000 C 
ATOM      7  C   UNL     1       1.248   9.223  22.430  0.00  0.00    +0.000 C 
BRANCH   5   8
ATOM      8  C   UNL     1      -0.208  11.841  21.293  0.00  0.00    +0.000 C 
BRANCH   8   9
ATOM      9  C   UNL     1      -0.854  12.673  20.168  0.00  0.00    +0.000 C 
BRANCH   9  10
ATOM     10  C   UNL     1      -2.384  12.580  20.134  0.00  0.00    +0.000 C 
BRANCH  10  11
ATOM     11  N   UNL     1      -2.918  11.739  19.051  0.00  0.00    +0.000 NA
ATOM     12  C   UNL     1      -4.334  12.010  18.754  0.00  0.00    +0.000 C 
ATOM     13  C   UNL     1      -4.862  11.035  17.701  0.00  0.00    +0.000 C 
ATOM     14  C   UNL     1      -4.035  11.104  16.425  0.00  0.00    +0.000 C 
ATOM     15  C   UNL     1      -2.554  10.931  16.742  0.00  0.00    +0.000 C 
ATOM     16  C   UNL     1      -2.100  11.899  17.836  0.00  0.00    +0.000 C 
ENDBRANCH  10  11
ENDBRANCH   9  10
ENDBRANCH   8   9
ENDBRANCH   5   8
ENDBRANCH   1   2
BRANCH   1  17
ATOM     17  C   UNL     1       1.491   6.280  19.969  0.00  0.00    +0.000 C 
BRANCH  17  18
ATOM     18  C   UNL     1       1.698   4.802  20.290  0.00  0.00    +0.000 C 
BRANCH  18  21
ATOM     19  O   UNL     1       1.545   3.449  17.798  0.00  0.00    +0.000 OA
ATOM     20  C   UNL     1       2.645   3.687  18.290  0.00  0.00    +0.000 C 
ATOM     21  N   UNL     1       2.816   4.272  19.526  0.00  0.00    +0.000 N 
ATOM     22  H   UNL     1       3.751   4.468  19.857  0.00  0.00    +0.000 HD
BRANCH  20  23
ATOM     23  C   UNL     1       3.941   3.373  17.563  0.00  0.00    +0.000 C 
BRANCH  23  24
ATOM     24  C   UNL     1       4.913   4.528  17.538  0.00  0.00    +0.000 A 
ATOM     25  C   UNL     1       4.717   5.599  16.657  0.00  0.00    +0.000 A 
ATOM     26  C   UNL     1       5.598   6.684  16.651  0.00  0.00    +0.000 A 
ATOM     27  C   UNL     1       6.684   6.713  17.529  0.00  0.00    +0.000 A 
ATOM     28 CL   UNL     1       7.728   8.087  17.473  0.00  0.00    +0.000 Cl
ATOM     29  C   UNL     1       6.887   5.651  18.414  0.00  0.00    +0.000 A 
ATOM     30 CL   UNL     1       8.205   5.616  19.535  0.00  0.00    +0.000 Cl
ATOM     31  C   UNL     1       6.004   4.564  18.420  0.00  0.00    +0.000 A 
ENDBRANCH  23  24
ENDBRANCH  20  23
ENDBRANCH  18  21
ENDBRANCH  17  18
ENDBRANCH   1  17
TORSDOF 10
ENDMDL
MODEL 5
REMARK VINA RESULT:      -7.0      0.885      1.479
REMARK  Name = 
REMARK  10 active torsions:
REMARK  status: ('A' for Active; 'I' for Inactive)
REMARK    1  A    between atoms: C_2  and  C_3
REMARK    2  A    between atoms: C_3  and  C_4
REMARK    3  A    between atoms: N_12  and  C_13
REMARK    4  A    between atoms: C_13  and  C_14
REMARK    5  A    between atoms: C_14  and  C_15
REMARK    6  A    between atoms: C_15  and  N_16
REMARK    7  A    between atoms: N_19  and  C_20
REMARK    8  A    between atoms: C_20  and  C_21
REMARK    9  A    between atoms: C_21  and  C_22
REMARK   10  A    between atoms: C_22  and  N_23
REMARK                            x       y       z     vdW  Elec       q    Type
REMARK                         _______ _______ _______ _____ _____    ______ ____
ROOT
ATOM      1  C   UNL     1       5.173   3.689  17.167  0.00  0.00    +0.000 C 
ENDROOT
BRANCH   1   2
ATOM      2  N   UNL     1       6.132   4.571  16.479  0.00  0.00    +0.000 NA
ATOM      3  C   UNL     1       5.595   5.918  16.214  0.00  0.00    +0.000 C 
ATOM      4  C   UNL     1       5.420   6.781  17.482  0.00  0.00    +0.000 C 
ATOM      5  N   UNL     1       6.669   6.999  18.245  0.00  0.00    +0.000 NA
ATOM      6  C   UNL     1       7.290   5.676  18.498  0.00  0.00    +0.000 C 
ATOM      7  C   UNL     1       7.381   4.722  17.271  0.00  0.00    +0.000 C 
BRANCH   5   8
ATOM      8  C   UNL     1       7.607   7.906  17.550  0.00  0.00    +0.000 C 
BRANCH   8   9
ATOM      9  C   UNL     1       8.595   8.574  18.527  0.00  0.00    +0.000 C 
BRANCH   9  10
ATOM     10  C   UNL     1       8.693  10.095  18.360  0.00  0.00    +0.000 C 
BRANCH  10  11
ATOM     11  N   UNL     1       9.789  10.719  19.118  0.00  0.00    +0.000 NA
ATOM     12  C   UNL     1      10.977  10.992  18.294  0.00  0.00    +0.000 C 
ATOM     13  C   UNL     1      12.118  11.537  19.155  0.00  0.00    +0.000 C 
ATOM     14  C   UNL     1      11.693  12.796  19.898  0.00  0.00    +0.000 C 
ATOM     15  C   UNL     1      10.400  12.548  20.667  0.00  0.00    +0.000 C 
ATOM     16  C   UNL     1       9.317  11.957  19.763  0.00  0.00    +0.000 C 
ENDBRANCH  10  11
ENDBRANCH   9  10
ENDBRANCH   8   9
ENDBRANCH   5   8
ENDBRANCH   1   2
BRANCH   1  17
ATOM     17  C   UNL     1       3.820   3.524  16.458  0.00  0.00    +0.000 C 
BRANCH  17  18
ATOM     18  C   UNL     1       2.624   3.468  17.407  0.00  0.00    +0.000 C 
BRANCH  18  21
ATOM     19  O   UNL     1       0.883   3.848  19.618  0.00  0.00    +0.000 OA
ATOM     20  C   UNL     1       1.900   4.530  19.525  0.00  0.00    +0.000 C 
ATOM     21  N   UNL     1       2.764   4.468  18.453  0.00  0.00    +0.000 N 
ATOM     22  H   UNL     1       3.601   5.036  18.457  0.00  0.00    +0.000 HD
BRANCH  20  23
ATOM     23  C   UNL     1       2.319   5.510  20.608  0.00  0.00    +0.000 C 
BRANCH  23  24
ATOM     24  C   UNL     1       1.801   6.910  20.386  0.00  0.00    +0.000 A 
ATOM     25  C   UNL     1       0.971   7.518  21.336  0.00  0.00    +0.000 A 
ATOM     26  C   UNL     1       0.513   8.826  21.147  0.00  0.00    +0.000 A 
ATOM     27  C   UNL     1       0.883   9.542  20.007  0.00  0.00    +0.000 A 
ATOM     28 CL   UNL     1       0.288  11.155  19.842  0.00  0.00    +0.000 Cl
ATOM     29  C   UNL     1       1.714   8.947  19.054  0.00  0.00    +0.000 A 
ATOM     30 CL   UNL     1       2.220   9.771  17.620  0.00  0.00    +0.000 Cl
ATOM     31  C   UNL     1       2.172   7.636  19.244  0.00  0.00    +0.000 A 
ENDBRANCH  23  24
ENDBRANCH  20  23
ENDBRANCH  18  21
ENDBRANCH  17  18
ENDBRANCH   1  17
TORSDOF 10
ENDMDL
MODEL 6
REMARK VINA RESULT:      -7.0      4.547      7.800
REMARK  Name = 
REMARK  10 active torsions:
REMARK  status: ('A' for Active; 'I' for Inactive)
REMARK    1  A    between atoms: C_2  and  C_3
REMARK    2  A    between atoms: C_3  and  C_4
REMARK    3  A    between atoms: N_12  and  C_13
REMARK    4  A    between atoms: C_13  and  C_14
REMARK    5  A    between atoms: C_14  and  C_15
REMARK    6  A    between atoms: C_15  and  N_16
REMARK    7  A    between atoms: N_19  and  C_20
REMARK    8  A    between atoms: C_20  and  C_21
REMARK    9  A    between atoms: C_21  and  C_22
REMARK   10  A    between atoms: C_22  and  N_23
REMARK                            x       y       z     vdW  Elec       q    Type
REMARK                         _______ _______ _______ _____ _____    ______ ____
ROOT
ATOM      1  C   UNL     1      10.448  11.231  19.118  0.00  0.00    +0.000 C 
ENDROOT
BRANCH   1   2
ATOM      2  N   UNL     1      10.471  12.538  19.798  0.00  0.00    +0.000 NA
ATOM      3  C   UNL     1      11.640  13.361  19.437  0.00  0.00    +0.000 C 
ATOM      4  C   UNL     1      11.602  13.900  17.992  0.00  0.00    +0.000 C 
ATOM      5  N   UNL     1      10.422  14.740  17.687  0.00  0.00    +0.000 NA
ATOM      6  C   UNL     1       9.207  13.986  18.081  0.00  0.00    +0.000 C 
ATOM      7  C   UNL     1       9.246  13.322  19.488  0.00  0.00    +0.000 C 
BRANCH   5   8
ATOM      8  C   UNL     1      10.475  16.056  18.359  0.00  0.00    +0.000 C 
BRANCH   8   9
ATOM      9  C   UNL     1       9.215  16.898  18.079  0.00  0.00    +0.000 C 
BRANCH   9  10
ATOM     10  C   UNL     1       8.651  17.595  19.323  0.00  0.00    +0.000 C 
BRANCH  10  11
ATOM     11  N   UNL     1       7.186  17.731  19.331  0.00  0.00    +0.000 NA
ATOM     12  C   UNL     1       6.491  16.513  18.886  0.00  0.00    +0.000 C 
ATOM     13  C   UNL     1       4.981  16.748  18.810  0.00  0.00    +0.000 C 
ATOM     14  C   UNL     1       4.429  17.207  20.152  0.00  0.00    +0.000 C 
ATOM     15  C   UNL     1       5.218  18.405  20.669  0.00  0.00    +0.000 C 
ATOM     16  C   UNL     1       6.722  18.124  20.672  0.00  0.00    +0.000 C 
ENDBRANCH  10  11
ENDBRANCH   9  10
ENDBRANCH   8   9
ENDBRANCH   5   8
ENDBRANCH   1   2
BRANCH   1  17
ATOM     17  C   UNL     1       9.224  10.358  19.432  0.00  0.00    +0.000 C 
BRANCH  17  18
ATOM     18  C   UNL     1       8.751   9.505  18.256  0.00  0.00    +0.000 C 
BRANCH  18  21
ATOM     19  O   UNL     1       7.036   7.650  16.959  0.00  0.00    +0.000 OA
ATOM     20  C   UNL     1       7.647   7.306  17.967  0.00  0.00    +0.000 C 
ATOM     21  N   UNL     1       8.443   8.157  18.704  0.00  0.00    +0.000 N 
ATOM     22  H   UNL     1       8.943   7.798  19.506  0.00  0.00    +0.000 HD
BRANCH  20  23
ATOM     23  C   UNL     1       7.599   5.883  18.496  0.00  0.00    +0.000 C 
BRANCH  23  24
ATOM     24  C   UNL     1       6.281   5.190  18.240  0.00  0.00    +0.000 A 
ATOM     25  C   UNL     1       6.086   4.452  17.066  0.00  0.00    +0.000 A 
ATOM     26  C   UNL     1       4.878   3.786  16.838  0.00  0.00    +0.000 A 
ATOM     27  C   UNL     1       3.852   3.848  17.784  0.00  0.00    +0.000 A 
ATOM     28 CL   UNL     1       2.390   2.995  17.443  0.00  0.00    +0.000 Cl
ATOM     29  C   UNL     1       4.038   4.579  18.960  0.00  0.00    +0.000 A 
ATOM     30 CL   UNL     1       2.818   4.699  20.182  0.00  0.00    +0.000 Cl
ATOM     31  C   UNL     1       5.249   5.247  19.188  0.00  0.00    +0.000 A 
ENDBRANCH  23  24
ENDBRANCH  20  23
ENDBRANCH  18  21
ENDBRANCH  17  18
ENDBRANCH   1  17
TORSDOF 10
ENDMDL
MODEL 7
REMARK VINA RESULT:      -6.9      3.559      6.740
REMARK  Name = 
REMARK  10 active torsions:
REMARK  status: ('A' for Active; 'I' for Inactive)
REMARK    1  A    between atoms: C_2  and  C_3
REMARK    2  A    between atoms: C_3  and  C_4
REMARK    3  A    between atoms: N_12  and  C_13
REMARK    4  A    between atoms: C_13  and  C_14
REMARK    5  A    between atoms: C_14  and  C_15
REMARK    6  A    between atoms: C_15  and  N_16
REMARK    7  A    between atoms: N_19  and  C_20
REMARK    8  A    between atoms: C_20  and  C_21
REMARK    9  A    between atoms: C_21  and  C_22
REMARK   10  A    between atoms: C_22  and  N_23
REMARK                            x       y       z     vdW  Elec       q    Type
REMARK                         _______ _______ _______ _____ _____    ______ ____
ROOT
ATOM      1  C   UNL     1       9.340  10.257  18.187  0.00  0.00    +0.000 C 
ENDROOT
BRANCH   1   2
ATOM      2  N   UNL     1       9.234  11.452  19.044  0.00  0.00    +0.000 NA
ATOM      3  C   UNL     1      10.378  11.612  19.961  0.00  0.00    +0.000 C 
ATOM      4  C   UNL     1      11.694  12.001  19.255  0.00  0.00    +0.000 C 
ATOM      5  N   UNL     1      11.623  13.267  18.491  0.00  0.00    +0.000 NA
ATOM      6  C   UNL     1      10.453  13.190  17.583  0.00  0.00    +0.000 C 
ATOM      7  C   UNL     1       9.127  12.688  18.225  0.00  0.00    +0.000 C 
BRANCH   5   8
ATOM      8  C   UNL     1      11.543  14.454  19.368  0.00  0.00    +0.000 C 
BRANCH   8   9
ATOM      9  C   UNL     1      11.042  15.699  18.610  0.00  0.00    +0.000 C 
BRANCH   9  10
ATOM     10  C   UNL     1      10.100  16.584  19.434  0.00  0.00    +0.000 C 
BRANCH  10  11
ATOM     11  N   UNL     1       8.677  16.227  19.322  0.00  0.00    +0.000 NA
ATOM     12  C   UNL     1       8.181  15.463  20.478  0.00  0.00    +0.000 C 
ATOM     13  C   UNL     1       6.732  15.026  20.257  0.00  0.00    +0.000 C 
ATOM     14  C   UNL     1       5.832  16.224  19.993  0.00  0.00    +0.000 C 
ATOM     15  C   UNL     1       6.400  17.079  18.866  0.00  0.00    +0.000 C 
ATOM     16  C   UNL     1       7.864  17.439  19.122  0.00  0.00    +0.000 C 
ENDBRANCH  10  11
ENDBRANCH   9  10
ENDBRANCH   8   9
ENDBRANCH   5   8
ENDBRANCH   1   2
BRANCH   1  17
ATOM     17  C   UNL     1       8.516   9.048  18.656  0.00  0.00    +0.000 C 
BRANCH  17  18
ATOM     18  C   UNL     1       7.599   8.468  17.582  0.00  0.00    +0.000 C 
BRANCH  18  21
ATOM     19  O   UNL     1       5.737   6.829  16.200  0.00  0.00    +0.000 OA
ATOM     20  C   UNL     1       6.390   6.354  17.125  0.00  0.00    +0.000 C 
ATOM     21  N   UNL     1       7.262   7.090  17.899  0.00  0.00    +0.000 N 
ATOM     22  H   UNL     1       7.791   6.627  18.625  0.00  0.00    +0.000 HD
BRANCH  20  23
ATOM     23  C   UNL     1       6.313   4.883  17.498  0.00  0.00    +0.000 C 
BRANCH  23  24
ATOM     24  C   UNL     1       4.919   4.426  17.859  0.00  0.00    +0.000 A 
ATOM     25  C   UNL     1       4.311   3.384  17.149  0.00  0.00    +0.000 A 
ATOM     26  C   UNL     1       3.032   2.938  17.499  0.00  0.00    +0.000 A 
ATOM     27  C   UNL     1       2.349   3.529  18.564  0.00  0.00    +0.000 A 
ATOM     28 CL   UNL     1       0.777   2.925  18.946  0.00  0.00    +0.000 Cl
ATOM     29  C   UNL     1       2.948   4.568  19.280  0.00  0.00    +0.000 A 
ATOM     30 CL   UNL     1       2.169   5.347  20.615  0.00  0.00    +0.000 Cl
ATOM     31  C   UNL     1       4.230   5.014  18.929  0.00  0.00    +0.000 A 
ENDBRANCH  23  24
ENDBRANCH  20  23
ENDBRANCH  18  21
ENDBRANCH  17  18
ENDBRANCH   1  17
TORSDOF 10
ENDMDL
MODEL 8
REMARK VINA RESULT:      -6.8      5.271      9.504
REMARK  Name = 
REMARK  10 active torsions:
REMARK  status: ('A' for Active; 'I' for Inactive)
REMARK    1  A    between atoms: C_2  and  C_3
REMARK    2  A    between atoms: C_3  and  C_4
REMARK    3  A    between atoms: N_12  and  C_13
REMARK    4  A    between atoms: C_13  and  C_14
REMARK    5  A    between atoms: C_14  and  C_15
REMARK    6  A    between atoms: C_15  and  N_16
REMARK    7  A    between atoms: N_19  and  C_20
REMARK    8  A    between atoms: C_20  and  C_21
REMARK    9  A    between atoms: C_21  and  C_22
REMARK   10  A    between atoms: C_22  and  N_23
REMARK                            x       y       z     vdW  Elec       q    Type
REMARK                         _______ _______ _______ _____ _____    ______ ____
ROOT
ATOM      1  C   UNL     1       1.239   9.556  18.192  0.00  0.00    +0.000 C 
ENDROOT
BRANCH   1   2
ATOM      2  N   UNL     1       0.289   9.842  19.283  0.00  0.00    +0.000 NA
ATOM      3  C   UNL     1       0.727  10.943  20.160  0.00  0.00    +0.000 C 
ATOM      4  C   UNL     1       0.672  12.333  19.493  0.00  0.00    +0.000 C 
ATOM      5  N   UNL     1      -0.672  12.724  19.013  0.00  0.00    +0.000 NA
ATOM      6  C   UNL     1      -1.194  11.627  18.162  0.00  0.00    +0.000 C 
ATOM      7  C   UNL     1      -1.052  10.190  18.744  0.00  0.00    +0.000 C 
BRANCH   5   8
ATOM      8  C   UNL     1      -1.602  13.031  20.120  0.00  0.00    +0.000 C 
BRANCH   8   9
ATOM      9  C   UNL     1      -0.976  13.986  21.153  0.00  0.00    +0.000 C 
BRANCH   9  10
ATOM     10  C   UNL     1      -0.894  13.398  22.566  0.00  0.00    +0.000 C 
BRANCH  10  11
ATOM     11  N   UNL     1      -2.107  13.593  23.377  0.00  0.00    +0.000 NA
ATOM     12  C   UNL     1      -2.927  14.727  22.924  0.00  0.00    +0.000 C 
ATOM     13  C   UNL     1      -4.111  14.949  23.866  0.00  0.00    +0.000 C 
ATOM     14  C   UNL     1      -4.965  13.694  23.979  0.00  0.00    +0.000 C 
ATOM     15  C   UNL     1      -4.100  12.493  24.343  0.00  0.00    +0.000 C 
ATOM     16  C   UNL     1      -2.907  12.356  23.396  0.00  0.00    +0.000 C 
ENDBRANCH  10  11
ENDBRANCH   9  10
ENDBRANCH   8   9
ENDBRANCH   5   8
ENDBRANCH   1   2
BRANCH   1  17
ATOM     17  C   UNL     1       2.249   8.438  18.489  0.00  0.00    +0.000 C 
BRANCH  17  18
ATOM     18  C   UNL     1       1.974   7.681  19.787  0.00  0.00    +0.000 C 
BRANCH  18  21
ATOM     19  O   UNL     1       1.065   5.116  20.598  0.00  0.00    +0.000 OA
ATOM     20  C   UNL     1       2.213   5.247  20.183  0.00  0.00    +0.000 C 
ATOM     21  N   UNL     1       2.764   6.462  19.836  0.00  0.00    +0.000 N 
ATOM     22  H   UNL     1       3.707   6.492  19.471  0.00  0.00    +0.000 HD
BRANCH  20  23
ATOM     23  C   UNL     1       3.143   4.061  19.990  0.00  0.00    +0.000 C 
BRANCH  23  24
ATOM     24  C   UNL     1       4.127   4.246  18.859  0.00  0.00    +0.000 A 
ATOM     25  C   UNL     1       3.763   3.926  17.545  0.00  0.00    +0.000 A 
ATOM     26  C   UNL     1       4.661   4.123  16.491  0.00  0.00    +0.000 A 
ATOM     27  C   UNL     1       5.932   4.644  16.739  0.00  0.00    +0.000 A 
ATOM     28 CL   UNL     1       6.987   4.869  15.391  0.00  0.00    +0.000 Cl
ATOM     29  C   UNL     1       6.304   4.970  18.046  0.00  0.00    +0.000 A 
ATOM     30 CL   UNL     1       7.859   5.625  18.433  0.00  0.00    +0.000 Cl
ATOM     31  C   UNL     1       5.404   4.772  19.102  0.00  0.00    +0.000 A 
ENDBRANCH  23  24
ENDBRANCH  20  23
ENDBRANCH  18  21
ENDBRANCH  17  18
ENDBRANCH   1  17
TORSDOF 10
ENDMDL
MODEL 9
REMARK VINA RESULT:      -6.8      4.140      9.383
REMARK  Name = 
REMARK  10 active torsions:
REMARK  status: ('A' for Active; 'I' for Inactive)
REMARK    1  A    between atoms: C_2  and  C_3
REMARK    2  A    between atoms: C_3  and  C_4
REMARK    3  A    between atoms: N_12  and  C_13
REMARK    4  A    between atoms: C_13  and  C_14
REMARK    5  A    between atoms: C_14  and  C_15
REMARK    6  A    between atoms: C_15  and  N_16
REMARK    7  A    between atoms: N_19  and  C_20
REMARK    8  A    between atoms: C_20  and  C_21
REMARK    9  A    between atoms: C_21  and  C_22
REMARK   10  A    between atoms: C_22  and  N_23
REMARK                            x       y       z     vdW  Elec       q    Type
REMARK                         _______ _______ _______ _____ _____    ______ ____
ROOT
ATOM      1  C   UNL     1       7.454   8.016  17.603  0.00  0.00    +0.000 C 
ENDROOT
BRANCH   1   2
ATOM      2  N   UNL     1       7.559   6.556  17.424  0.00  0.00    +0.000 NA
ATOM      3  C   UNL     1       7.010   5.792  18.559  0.00  0.00    +0.000 C 
ATOM      4  C   UNL     1       5.472   5.859  18.672  0.00  0.00    +0.000 C 
ATOM      5  N   UNL     1       4.752   5.361  17.479  0.00  0.00    +0.000 NA
ATOM      6  C   UNL     1       5.300   6.057  16.289  0.00  0.00    +0.000 C 
ATOM      7  C   UNL     1       6.852   6.118  16.192  0.00  0.00    +0.000 C 
BRANCH   5   8
ATOM      8  C   UNL     1       4.848   3.893  17.331  0.00  0.00    +0.000 C 
BRANCH   8   9
ATOM      9  C   UNL     1       3.639   3.310  16.574  0.00  0.00    +0.000 C 
BRANCH   9  10
ATOM     10  C   UNL     1       2.412   3.072  17.462  0.00  0.00    +0.000 C 
BRANCH  10  11
ATOM     11  N   UNL     1       2.627   3.371  18.887  0.00  0.00    +0.000 NA
ATOM     12  C   UNL     1       1.715   4.404  19.404  0.00  0.00    +0.000 C 
ATOM     13  C   UNL     1       2.055   4.750  20.854  0.00  0.00    +0.000 C 
ATOM     14  C   UNL     1       2.006   3.514  21.740  0.00  0.00    +0.000 C 
ATOM     15  C   UNL     1       2.866   2.402  21.150  0.00  0.00    +0.000 C 
ATOM     16  C   UNL     1       2.511   2.139  19.686  0.00  0.00    +0.000 C 
ENDBRANCH  10  11
ENDBRANCH   9  10
ENDBRANCH   8   9
ENDBRANCH   5   8
ENDBRANCH   1   2
BRANCH   1  17
ATOM     17  C   UNL     1       8.606   8.656  18.394  0.00  0.00    +0.000 C 
BRANCH  17  18
ATOM     18  C   UNL     1       8.819  10.137  18.091  0.00  0.00    +0.000 C 
BRANCH  18  21
ATOM     19  O   UNL     1      11.360  11.400  18.185  0.00  0.00    +0.000 OA
ATOM     20  C   UNL     1      10.624  11.449  19.166  0.00  0.00    +0.000 C 
ATOM     21  N   UNL     1       9.407  10.806  19.240  0.00  0.00    +0.000 N 
ATOM     22  H   UNL     1       8.838  10.916  20.068  0.00  0.00    +0.000 HD
BRANCH  20  23
ATOM     23  C   UNL     1      10.982  12.252  20.406  0.00  0.00    +0.000 C 
BRANCH  23  24
ATOM     24  C   UNL     1      10.437  13.660  20.389  0.00  0.00    +0.000 A 
ATOM     25  C   UNL     1      10.183  14.335  21.589  0.00  0.00    +0.000 A 
ATOM     26  C   UNL     1       9.706  15.650  21.578  0.00  0.00    +0.000 A 
ATOM     27  C   UNL     1       9.479  16.304  20.366  0.00  0.00    +0.000 A 
ATOM     28 CL   UNL     1       8.897  17.929  20.425  0.00  0.00    +0.000 Cl
ATOM     29  C   UNL     1       9.732  15.641  19.162  0.00  0.00    +0.000 A 
ATOM     30 CL   UNL     1       9.482  16.386  17.621  0.00  0.00    +0.000 Cl
ATOM     31  C   UNL     1      10.211  14.324  19.174  0.00  0.00    +0.000 A 
ENDBRANCH  23  24
ENDBRANCH  20  23
ENDBRANCH  18  21
ENDBRANCH  17  18
ENDBRANCH   1  17
TORSDOF 10
ENDMDL
