MODEL 1
REMARK VINA RESULT:      -7.6      0.000      0.000
REMARK  Name = 
REMARK  13 active torsions:
REMARK  status: ('A' for Active; 'I' for Inactive)
REMARK    1  A    between atoms: C_1  and  C_2
REMARK    2  A    between atoms: C_4  and  C_5
REMARK    3  A    between atoms: C_5  and  N_6
REMARK    4  A    between atoms: N_6  and  C_7
REMARK    5  A    between atoms: C_7  and  C_8
REMARK    6  A    between atoms: C_8  and  N_9
REMARK    7  A    between atoms: N_9  and  C_10
REMARK    8  A    between atoms: N_9  and  C_11
REMARK    9  A    between atoms: C_12  and  C_13
REMARK   10  A    between atoms: N_14  and  C_15
REMARK   11  A    between atoms: C_17  and  S_18
REMARK   12  A    between atoms: S_18  and  N_21
REMARK   13  A    between atoms: C_29  and  N_30
REMARK                            x       y       z     vdW  Elec       q    Type
REMARK                         _______ _______ _______ _____ _____    ______ ____
ROOT
ATOM      1  C   UNL     1       0.600  11.349  19.658  0.00  0.00    +0.000 A 
ATOM      2  C   UNL     1       1.445  12.367  20.159  0.00  0.00    +0.000 A 
ATOM      3  C   UNL     1       1.264  13.705  19.818  0.00  0.00    +0.000 A 
ATOM      4  C   UNL     1       0.363  14.040  18.821  0.00  0.00    +0.000 A 
ATOM      5  C   UNL     1      -0.472  13.044  18.303  0.00  0.00    +0.000 A 
ATOM      6  C   UNL     1      -0.451  11.701  18.764  0.00  0.00    +0.000 A 
ENDROOT
BRANCH   1  13
ATOM      7  C   UNL     1      -0.395   9.924  22.325  0.00  0.00    +0.000 C 
ATOM      8  C   UNL     1       0.496   9.364  21.271  0.00  0.00    +0.000 A 
ATOM      9  C   UNL     1       1.040   8.100  21.310  0.00  0.00    +0.000 A 
ATOM     10  C   UNL     1       1.653   7.843  20.072  0.00  0.00    +0.000 A 
ATOM     11  C   UNL     1       1.541   9.003  19.312  0.00  0.00    +0.000 A 
ATOM     12  C   UNL     1       2.118   9.173  17.935  0.00  0.00    +0.000 C 
ATOM     13  N   UNL     1       0.879   9.987  20.071  0.00  0.00    +0.000 N 
BRANCH  10  14
ATOM     14  C   UNL     1       2.295   6.557  19.682  0.00  0.00    +0.000 C 
BRANCH  14  15
ATOM     15  N   UNL     1       2.348   5.723  20.879  0.00  0.00    +0.000 NA
ATOM     16  H   UNL     1       1.951   6.248  21.657  0.00  0.00    +0.000 HD
BRANCH  15  17
ATOM     17  C   UNL     1       1.596   4.490  20.659  0.00  0.00    +0.000 C 
BRANCH  17  18
ATOM     18  C   UNL     1       2.523   3.261  20.700  0.00  0.00    +0.000 C 
BRANCH  18  19
ATOM     19  N   UNL     1       2.603   2.549  19.408  0.00  0.00    +0.000 NA
ATOM     20  C   UNL     1       1.325   2.570  18.695  0.00  0.00    +0.000 C 
ATOM     21  C   UNL     1       3.644   3.159  18.576  0.00  0.00    +0.000 C 
ENDBRANCH  18  19
ENDBRANCH  17  18
ENDBRANCH  15  17
ENDBRANCH  14  15
ENDBRANCH  10  14
ENDBRANCH   1  13
BRANCH   6  22
ATOM     22  N   UNL     1      -1.494  10.852  18.416  0.00  0.00    +0.000 N 
ATOM     23  C   UNL     1      -1.439   9.834  17.366  0.00  0.00    +0.000 C 
ATOM     24  C   UNL     1      -2.721  10.038  16.574  0.00  0.00    +0.000 C 
ATOM     25  C   UNL     1      -3.717  10.511  17.618  0.00  0.00    +0.000 C 
ATOM     26  C   UNL     1      -2.880  11.301  18.628  0.00  0.00    +0.000 C 
ENDBRANCH   6  22
BRANCH   3  27
ATOM     27  S   UNL     1       2.117  14.959  20.740  0.00  0.00    +0.000 S 
ATOM     28  O   UNL     1       1.522  16.240  20.385  0.00  0.00    +0.000 OA
ATOM     29  O   UNL     1       2.208  14.538  22.123  0.00  0.00    +0.000 OA
BRANCH  27  30
ATOM     30  N   UNL     1       3.691  14.909  20.081  0.00  0.00    +0.000 NA
ATOM     31  C   UNL     1       4.731  15.786  20.716  0.00  0.00    +0.000 C 
ATOM     32  C   UNL     1       4.700  17.208  20.150  0.00  0.00    +0.000 C 
ATOM     33  O   UNL     1       4.876  17.197  18.728  0.00  0.00    +0.000 OA
ATOM     34  C   UNL     1       3.835  16.443  18.092  0.00  0.00    +0.000 C 
ATOM     35  C   UNL     1       3.794  14.993  18.593  0.00  0.00    +0.000 C 
ENDBRANCH  27  30
ENDBRANCH   3  27
TORSDOF 9
ENDMDL
MODEL 2
REMARK VINA RESULT:      -7.1      0.783      1.158
REMARK  Name = 
REMARK  13 active torsions:
REMARK  status: ('A' for Active; 'I' for Inactive)
REMARK    1  A    between atoms: C_1  and  C_2
REMARK    2  A    between atoms: C_4  and  C_5
REMARK    3  A    between atoms: C_5  and  N_6
REMARK    4  A    between atoms: N_6  and  C_7
REMARK    5  A    between atoms: C_7  and  C_8
REMARK    6  A    between atoms: C_8  and  N_9
REMARK    7  A    between atoms: N_9  and  C_10
REMARK    8  A    between atoms: N_9  and  C_11
REMARK    9  A    between atoms: C_12  and  C_13
REMARK   10  A    between atoms: N_14  and  C_15
REMARK   11  A    between atoms: C_17  and  S_18
REMARK   12  A    between atoms: S_18  and  N_21
REMARK   13  A    between atoms: C_29  and  N_30
REMARK                            x       y       z     vdW  Elec       q    Type
REMARK                         _______ _______ _______ _____ _____    ______ ____
ROOT
ATOM      1  C   UNL     1       0.537  11.409  19.700  0.00  0.00    +0.000 A 
ATOM      2  C   UNL     1       1.348  12.442  20.226  0.00  0.00    +0.000 A 
ATOM      3  C   UNL     1       1.135  13.779  19.900  0.00  0.00    +0.000 A 
ATOM      4  C   UNL     1       0.237  14.104  18.897  0.00  0.00    +0.000 A 
ATOM      5  C   UNL     1      -0.563  13.092  18.355  0.00  0.00    +0.000 A 
ATOM      6  C   UNL     1      -0.512  11.745  18.799  0.00  0.00    +0.000 A 
ENDROOT
BRANCH   1  13
ATOM      7  C   UNL     1      -0.418   9.933  22.354  0.00  0.00    +0.000 C 
ATOM      8  C   UNL     1       0.483   9.405  21.293  0.00  0.00    +0.000 A 
ATOM      9  C   UNL     1       1.056   8.154  21.317  0.00  0.00    +0.000 A 
ATOM     10  C   UNL     1       1.672   7.924  20.076  0.00  0.00    +0.000 A 
ATOM     11  C   UNL     1       1.532   9.089  19.328  0.00  0.00    +0.000 A 
ATOM     12  C   UNL     1       2.102   9.287  17.951  0.00  0.00    +0.000 C 
ATOM     13  N   UNL     1       0.849  10.049  20.099  0.00  0.00    +0.000 N 
BRANCH  10  14
ATOM     14  C   UNL     1       2.343   6.658  19.671  0.00  0.00    +0.000 C 
BRANCH  14  15
ATOM     15  N   UNL     1       2.324   5.771  20.831  0.00  0.00    +0.000 NA
ATOM     16  H   UNL     1       1.466   5.941  21.354  0.00  0.00    +0.000 HD
BRANCH  15  17
ATOM     17  C   UNL     1       2.386   4.379  20.393  0.00  0.00    +0.000 C 
BRANCH  17  18
ATOM     18  C   UNL     1       1.391   4.113  19.248  0.00  0.00    +0.000 C 
BRANCH  18  19
ATOM     19  N   UNL     1       1.803   3.004  18.365  0.00  0.00    +0.000 NA
ATOM     20  C   UNL     1       2.630   3.472  17.251  0.00  0.00    +0.000 C 
ATOM     21  C   UNL     1       2.543   2.006  19.143  0.00  0.00    +0.000 C 
ENDBRANCH  18  19
ENDBRANCH  17  18
ENDBRANCH  15  17
ENDBRANCH  14  15
ENDBRANCH  10  14
ENDBRANCH   1  13
BRANCH   6  22
ATOM     22  N   UNL     1      -1.527  10.872  18.426  0.00  0.00    +0.000 N 
ATOM     23  C   UNL     1      -1.428   9.866  17.368  0.00  0.00    +0.000 C 
ATOM     24  C   UNL     1      -2.703  10.044  16.557  0.00  0.00    +0.000 C 
ATOM     25  C   UNL     1      -3.727  10.482  17.589  0.00  0.00    +0.000 C 
ATOM     26  C   UNL     1      -2.927  11.283  18.619  0.00  0.00    +0.000 C 
ENDBRANCH   6  22
BRANCH   3  27
ATOM     27  S   UNL     1       1.942  15.044  20.850  0.00  0.00    +0.000 S 
ATOM     28  O   UNL     1       0.916  15.978  21.291  0.00  0.00    +0.000 OA
ATOM     29  O   UNL     1       2.834  14.413  21.802  0.00  0.00    +0.000 OA
BRANCH  27  30
ATOM     30  N   UNL     1       2.907  15.834  19.685  0.00  0.00    +0.000 NA
ATOM     31  C   UNL     1       4.038  15.051  19.082  0.00  0.00    +0.000 C 
ATOM     32  C   UNL     1       5.298  15.110  19.950  0.00  0.00    +0.000 C 
ATOM     33  O   UNL     1       5.707  16.467  20.166  0.00  0.00    +0.000 OA
ATOM     34  C   UNL     1       4.676  17.210  20.829  0.00  0.00    +0.000 C 
ATOM     35  C   UNL     1       3.368  17.214  20.025  0.00  0.00    +0.000 C 
ENDBRANCH  27  30
ENDBRANCH   3  27
TORSDOF 9
ENDMDL
MODEL 3
REMARK VINA RESULT:      -7.0      1.009      1.280
REMARK  Name = 
REMARK  13 active torsions:
REMARK  status: ('A' for Active; 'I' for Inactive)
REMARK    1  A    between atoms: C_1  and  C_2
REMARK    2  A    between atoms: C_4  and  C_5
REMARK    3  A    between atoms: C_5  and  N_6
REMARK    4  A    between atoms: N_6  and  C_7
REMARK    5  A    between atoms: C_7  and  C_8
REMARK    6  A    between atoms: C_8  and  N_9
REMARK    7  A    between atoms: N_9  and  C_10
REMARK    8  A    between atoms: N_9  and  C_11
REMARK    9  A    between atoms: C_12  and  C_13
REMARK   10  A    between atoms: N_14  and  C_15
REMARK   11  A    between atoms: C_17  and  S_18
REMARK   12  A    between atoms: S_18  and  N_21
REMARK   13  A    between atoms: C_29  and  N_30
REMARK                            x       y       z     vdW  Elec       q    Type
REMARK                         _______ _______ _______ _____ _____    ______ ____
ROOT
ATOM      1  C   UNL     1       0.498  11.439  19.732  0.00  0.00    +0.000 A 
ATOM      2  C   UNL     1       1.289  12.467  20.296  0.00  0.00    +0.000 A 
ATOM      3  C   UNL     1       1.042  13.811  20.031  0.00  0.00    +0.000 A 
ATOM      4  C   UNL     1       0.128  14.158  19.050  0.00  0.00    +0.000 A 
ATOM      5  C   UNL     1      -0.654  13.152  18.471  0.00  0.00    +0.000 A 
ATOM      6  C   UNL     1      -0.567  11.788  18.855  0.00  0.00    +0.000 A 
ENDROOT
BRANCH   1  13
ATOM      7  C   UNL     1      -0.395   9.828  22.329  0.00  0.00    +0.000 C 
ATOM      8  C   UNL     1       0.506   9.367  21.237  0.00  0.00    +0.000 A 
ATOM      9  C   UNL     1       1.108   8.130  21.202  0.00  0.00    +0.000 A 
ATOM     10  C   UNL     1       1.715   7.968  19.945  0.00  0.00    +0.000 A 
ATOM     11  C   UNL     1       1.541   9.160  19.250  0.00  0.00    +0.000 A 
ATOM     12  C   UNL     1       2.091   9.431  17.878  0.00  0.00    +0.000 C 
ATOM     13  N   UNL     1       0.845  10.070  20.069  0.00  0.00    +0.000 N 
BRANCH  10  14
ATOM     14  C   UNL     1       2.410   6.736  19.479  0.00  0.00    +0.000 C 
BRANCH  14  15
ATOM     15  N   UNL     1       2.329   5.761  20.563  0.00  0.00    +0.000 NA
ATOM     16  H   UNL     1       1.347   5.551  20.737  0.00  0.00    +0.000 HD
BRANCH  15  17
ATOM     17  C   UNL     1       3.051   4.546  20.192  0.00  0.00    +0.000 C 
BRANCH  17  18
ATOM     18  C   UNL     1       4.307   4.878  19.365  0.00  0.00    +0.000 C 
BRANCH  18  19
ATOM     19  N   UNL     1       4.527   3.945  18.241  0.00  0.00    +0.000 NA
ATOM     20  C   UNL     1       3.547   2.857  18.237  0.00  0.00    +0.000 C 
ATOM     21  C   UNL     1       4.458   4.677  16.974  0.00  0.00    +0.000 C 
ENDBRANCH  18  19
ENDBRANCH  17  18
ENDBRANCH  15  17
ENDBRANCH  14  15
ENDBRANCH  10  14
ENDBRANCH   1  13
BRANCH   6  22
ATOM     22  N   UNL     1      -1.565  10.909  18.453  0.00  0.00    +0.000 N 
ATOM     23  C   UNL     1      -1.432   9.910  17.392  0.00  0.00    +0.000 C 
ATOM     24  C   UNL     1      -2.688  10.082  16.551  0.00  0.00    +0.000 C 
ATOM     25  C   UNL     1      -3.741  10.504  17.561  0.00  0.00    +0.000 C 
ATOM     26  C   UNL     1      -2.973  11.307  18.614  0.00  0.00    +0.000 C 
ENDBRANCH   6  22
BRANCH   3  27
ATOM     27  S   UNL     1       1.829  15.052  21.028  0.00  0.00    +0.000 S 
ATOM     28  O   UNL     1       0.849  16.103  21.266  0.00  0.00    +0.000 OA
ATOM     29  O   UNL     1       2.506  14.401  22.131  0.00  0.00    +0.000 OA
BRANCH  27  30
ATOM     30  N   UNL     1       3.026  15.675  19.983  0.00  0.00    +0.000 NA
ATOM     31  C   UNL     1       4.438  15.214  20.202  0.00  0.00    +0.000 C 
ATOM     32  C   UNL     1       5.149  16.048  21.272  0.00  0.00    +0.000 C 
ATOM     33  O   UNL     1       5.139  17.439  20.927  0.00  0.00    +0.000 OA
ATOM     34  C   UNL     1       3.795  17.925  20.806  0.00  0.00    +0.000 C 
ATOM     35  C   UNL     1       3.002  17.150  19.745  0.00  0.00    +0.000 C 
ENDBRANCH  27  30
ENDBRANCH   3  27
TORSDOF 9
ENDMDL
MODEL 4
REMARK VINA RESULT:      -6.9      1.033      1.266
REMARK  Name = 
REMARK  13 active torsions:
REMARK  status: ('A' for Active; 'I' for Inactive)
REMARK    1  A    between atoms: C_1  and  C_2
REMARK    2  A    between atoms: C_4  and  C_5
REMARK    3  A    between atoms: C_5  and  N_6
REMARK    4  A    between atoms: N_6  and  C_7
REMARK    5  A    between atoms: C_7  and  C_8
REMARK    6  A    between atoms: C_8  and  N_9
REMARK    7  A    between atoms: N_9  and  C_10
REMARK    8  A    between atoms: N_9  and  C_11
REMARK    9  A    between atoms: C_12  and  C_13
REMARK   10  A    between atoms: N_14  and  C_15
REMARK   11  A    between atoms: C_17  and  S_18
REMARK   12  A    between atoms: S_18  and  N_21
REMARK   13  A    between atoms: C_29  and  N_30
REMARK                            x       y       z     vdW  Elec       q    Type
REMARK                         _______ _______ _______ _____ _____    ______ ____
ROOT
ATOM      1  C   UNL     1       0.547  11.384  19.686  0.00  0.00    +0.000 A 
ATOM      2  C   UNL     1       1.363  12.390  20.254  0.00  0.00    +0.000 A 
ATOM      3  C   UNL     1       1.105  13.744  20.052  0.00  0.00    +0.000 A 
ATOM      4  C   UNL     1       0.149  14.127  19.127  0.00  0.00    +0.000 A 
ATOM      5  C   UNL     1      -0.658  13.143  18.545  0.00  0.00    +0.000 A 
ATOM      6  C   UNL     1      -0.555  11.766  18.871  0.00  0.00    +0.000 A 
ENDROOT
BRANCH   1  13
ATOM      7  C   UNL     1      -0.291   9.651  22.222  0.00  0.00    +0.000 C 
ATOM      8  C   UNL     1       0.593   9.246  21.094  0.00  0.00    +0.000 A 
ATOM      9  C   UNL     1       1.202   8.015  20.992  0.00  0.00    +0.000 A 
ATOM     10  C   UNL     1       1.788   7.915  19.720  0.00  0.00    +0.000 A 
ATOM     11  C   UNL     1       1.595   9.136  19.083  0.00  0.00    +0.000 A 
ATOM     12  C   UNL     1       2.120   9.473  17.715  0.00  0.00    +0.000 C 
ATOM     13  N   UNL     1       0.908  10.004  19.954  0.00  0.00    +0.000 N 
BRANCH  10  14
ATOM     14  C   UNL     1       2.482   6.710  19.186  0.00  0.00    +0.000 C 
BRANCH  14  15
ATOM     15  N   UNL     1       2.821   5.868  20.329  0.00  0.00    +0.000 NA
ATOM     16  H   UNL     1       1.963   5.454  20.692  0.00  0.00    +0.000 HD
BRANCH  15  17
ATOM     17  C   UNL     1       3.755   4.823  19.917  0.00  0.00    +0.000 C 
BRANCH  17  18
ATOM     18  C   UNL     1       3.112   3.428  20.030  0.00  0.00    +0.000 C 
BRANCH  18  19
ATOM     19  N   UNL     1       2.710   2.865  18.725  0.00  0.00    +0.000 NA
ATOM     20  C   UNL     1       3.427   1.625  18.423  0.00  0.00    +0.000 C 
ATOM     21  C   UNL     1       1.266   2.613  18.724  0.00  0.00    +0.000 C 
ENDBRANCH  18  19
ENDBRANCH  17  18
ENDBRANCH  15  17
ENDBRANCH  14  15
ENDBRANCH  10  14
ENDBRANCH   1  13
BRANCH   6  22
ATOM     22  N   UNL     1      -1.570  10.902  18.479  0.00  0.00    +0.000 N 
ATOM     23  C   UNL     1      -1.465   9.905  17.413  0.00  0.00    +0.000 C 
ATOM     24  C   UNL     1      -2.730  10.096  16.590  0.00  0.00    +0.000 C 
ATOM     25  C   UNL     1      -3.763  10.530  17.615  0.00  0.00    +0.000 C 
ATOM     26  C   UNL     1      -2.971  11.318  18.661  0.00  0.00    +0.000 C 
ENDBRANCH   6  22
BRANCH   3  27
ATOM     27  S   UNL     1       1.935  14.946  21.061  0.00  0.00    +0.000 S 
ATOM     28  O   UNL     1       0.910  15.729  21.737  0.00  0.00    +0.000 OA
ATOM     29  O   UNL     1       2.980  14.280  21.813  0.00  0.00    +0.000 OA
BRANCH  27  30
ATOM     30  N   UNL     1       2.691  15.952  19.908  0.00  0.00    +0.000 NA
ATOM     31  C   UNL     1       4.178  16.126  20.016  0.00  0.00    +0.000 C 
ATOM     32  C   UNL     1       4.551  17.233  21.006  0.00  0.00    +0.000 C 
ATOM     33  O   UNL     1       3.941  18.476  20.637  0.00  0.00    +0.000 OA
ATOM     34  C   UNL     1       2.512  18.358  20.622  0.00  0.00    +0.000 C 
ATOM     35  C   UNL     1       2.041  17.271  19.645  0.00  0.00    +0.000 C 
ENDBRANCH  27  30
ENDBRANCH   3  27
TORSDOF 9
ENDMDL
MODEL 5
REMARK VINA RESULT:      -6.9      1.636      2.150
REMARK  Name = 
REMARK  13 active torsions:
REMARK  status: ('A' for Active; 'I' for Inactive)
REMARK    1  A    between atoms: C_1  and  C_2
REMARK    2  A    between atoms: C_4  and  C_5
REMARK    3  A    between atoms: C_5  and  N_6
REMARK    4  A    between atoms: N_6  and  C_7
REMARK    5  A    between atoms: C_7  and  C_8
REMARK    6  A    between atoms: C_8  and  N_9
REMARK    7  A    between atoms: N_9  and  C_10
REMARK    8  A    between atoms: N_9  and  C_11
REMARK    9  A    between atoms: C_12  and  C_13
REMARK   10  A    between atoms: N_14  and  C_15
REMARK   11  A    between atoms: C_17  and  S_18
REMARK   12  A    between atoms: S_18  and  N_21
REMARK   13  A    between atoms: C_29  and  N_30
REMARK                            x       y       z     vdW  Elec       q    Type
REMARK                         _______ _______ _______ _____ _____    ______ ____
ROOT
ATOM      1  C   UNL     1       0.571  11.526  19.700  0.00  0.00    +0.000 A 
ATOM      2  C   UNL     1       1.415  12.543  20.203  0.00  0.00    +0.000 A 
ATOM      3  C   UNL     1       1.242  13.880  19.855  0.00  0.00    +0.000 A 
ATOM      4  C   UNL     1       0.350  14.214  18.850  0.00  0.00    +0.000 A 
ATOM      5  C   UNL     1      -0.484  13.218  18.330  0.00  0.00    +0.000 A 
ATOM      6  C   UNL     1      -0.472  11.878  18.797  0.00  0.00    +0.000 A 
ENDROOT
BRANCH   1  13
ATOM      7  C   UNL     1      -0.433  10.122  22.375  0.00  0.00    +0.000 C 
ATOM      8  C   UNL     1       0.455   9.551  21.325  0.00  0.00    +0.000 A 
ATOM      9  C   UNL     1       0.993   8.285  21.372  0.00  0.00    +0.000 A 
ATOM     10  C   UNL     1       1.604   8.017  20.136  0.00  0.00    +0.000 A 
ATOM     11  C   UNL     1       1.500   9.172  19.369  0.00  0.00    +0.000 A 
ATOM     12  C   UNL     1       2.078   9.331  17.991  0.00  0.00    +0.000 C 
ATOM     13  N   UNL     1       0.843  10.164  20.122  0.00  0.00    +0.000 N 
BRANCH  10  14
ATOM     14  C   UNL     1       2.239   6.725  19.754  0.00  0.00    +0.000 C 
BRANCH  14  15
ATOM     15  N   UNL     1       2.067   5.812  20.880  0.00  0.00    +0.000 NA
ATOM     16  H   UNL     1       1.401   6.224  21.532  0.00  0.00    +0.000 HD
BRANCH  15  17
ATOM     17  C   UNL     1       1.579   4.521  20.401  0.00  0.00    +0.000 C 
BRANCH  17  18
ATOM     18  C   UNL     1       2.576   3.394  20.732  0.00  0.00    +0.000 C 
BRANCH  18  19
ATOM     19  N   UNL     1       3.670   3.277  19.746  0.00  0.00    +0.000 NA
ATOM     20  C   UNL     1       4.440   2.046  19.930  0.00  0.00    +0.000 C 
ATOM     21  C   UNL     1       3.113   3.313  18.390  0.00  0.00    +0.000 C 
ENDBRANCH  18  19
ENDBRANCH  17  18
ENDBRANCH  15  17
ENDBRANCH  14  15
ENDBRANCH  10  14
ENDBRANCH   1  13
BRANCH   6  22
ATOM     22  N   UNL     1      -1.515  11.030  18.444  0.00  0.00    +0.000 N 
ATOM     23  C   UNL     1      -1.450   9.998  17.409  0.00  0.00    +0.000 C 
ATOM     24  C   UNL     1      -2.719  10.199  16.595  0.00  0.00    +0.000 C 
ATOM     25  C   UNL     1      -3.728  10.692  17.618  0.00  0.00    +0.000 C 
ATOM     26  C   UNL     1      -2.901  11.491  18.629  0.00  0.00    +0.000 C 
ENDBRANCH   6  22
BRANCH   3  27
ATOM     27  S   UNL     1       2.092  15.136  20.778  0.00  0.00    +0.000 S 
ATOM     28  O   UNL     1       2.229  14.653  22.145  0.00  0.00    +0.000 OA
ATOM     29  O   UNL     1       3.250  15.566  20.020  0.00  0.00    +0.000 OA
BRANCH  27  30
ATOM     30  N   UNL     1       0.972  16.424  20.784  0.00  0.00    +0.000 NA
ATOM     31  C   UNL     1       1.485  17.783  20.404  0.00  0.00    +0.000 C 
ATOM     32  C   UNL     1       2.105  18.513  21.599  0.00  0.00    +0.000 C 
ATOM     33  O   UNL     1       1.162  18.631  22.672  0.00  0.00    +0.000 OA
ATOM     34  C   UNL     1       0.731  17.337  23.116  0.00  0.00    +0.000 C 
ATOM     35  C   UNL     1       0.085  16.531  21.981  0.00  0.00    +0.000 C 
ENDBRANCH  27  30
ENDBRANCH   3  27
TORSDOF 9
ENDMDL
MODEL 6
REMARK VINA RESULT:      -6.8      1.666      2.054
REMARK  Name = 
REMARK  13 active torsions:
REMARK  status: ('A' for Active; 'I' for Inactive)
REMARK    1  A    between atoms: C_1  and  C_2
REMARK    2  A    between atoms: C_4  and  C_5
REMARK    3  A    between atoms: C_5  and  N_6
REMARK    4  A    between atoms: N_6  and  C_7
REMARK    5  A    between atoms: C_7  and  C_8
REMARK    6  A    between atoms: C_8  and  N_9
REMARK    7  A    between atoms: N_9  and  C_10
REMARK    8  A    between atoms: N_9  and  C_11
REMARK    9  A    between atoms: C_12  and  C_13
REMARK   10  A    between atoms: N_14  and  C_15
REMARK   11  A    between atoms: C_17  and  S_18
REMARK   12  A    between atoms: S_18  and  N_21
REMARK   13  A    between atoms: C_29  and  N_30
REMARK                            x       y       z     vdW  Elec       q    Type
REMARK                         _______ _______ _______ _____ _____    ______ ____
ROOT
ATOM      1  C   UNL     1       0.709  11.231  19.595  0.00  0.00    +0.000 A 
ATOM      2  C   UNL     1       1.602  12.215  20.080  0.00  0.00    +0.000 A 
ATOM      3  C   UNL     1       1.457  13.561  19.755  0.00  0.00    +0.000 A 
ATOM      4  C   UNL     1       0.541  13.936  18.787  0.00  0.00    +0.000 A 
ATOM      5  C   UNL     1      -0.342  12.972  18.285  0.00  0.00    +0.000 A 
ATOM      6  C   UNL     1      -0.354  11.626  18.735  0.00  0.00    +0.000 A 
ENDROOT
BRANCH   1  13
ATOM      7  C   UNL     1      -0.229   9.827  22.294  0.00  0.00    +0.000 C 
ATOM      8  C   UNL     1       0.596   9.240  21.202  0.00  0.00    +0.000 A 
ATOM      9  C   UNL     1       1.093   7.957  21.212  0.00  0.00    +0.000 A 
ATOM     10  C   UNL     1       1.644   7.685  19.949  0.00  0.00    +0.000 A 
ATOM     11  C   UNL     1       1.545   8.853  19.199  0.00  0.00    +0.000 A 
ATOM     12  C   UNL     1       2.072   9.010  17.800  0.00  0.00    +0.000 C 
ATOM     13  N   UNL     1       0.953   9.856  19.990  0.00  0.00    +0.000 N 
BRANCH  10  14
ATOM     14  C   UNL     1       2.220   6.378  19.526  0.00  0.00    +0.000 C 
BRANCH  14  15
ATOM     15  N   UNL     1       3.671   6.489  19.646  0.00  0.00    +0.000 NA
ATOM     16  H   UNL     1       3.967   5.974  20.474  0.00  0.00    +0.000 HD
BRANCH  15  17
ATOM     17  C   UNL     1       4.310   5.944  18.451  0.00  0.00    +0.000 C 
BRANCH  17  18
ATOM     18  C   UNL     1       5.507   5.048  18.823  0.00  0.00    +0.000 C 
BRANCH  18  19
ATOM     19  N   UNL     1       6.798   5.567  18.325  0.00  0.00    +0.000 NA
ATOM     20  C   UNL     1       7.750   5.791  19.414  0.00  0.00    +0.000 C 
ATOM     21  C   UNL     1       7.366   4.623  17.359  0.00  0.00    +0.000 C 
ENDBRANCH  18  19
ENDBRANCH  17  18
ENDBRANCH  15  17
ENDBRANCH  14  15
ENDBRANCH  10  14
ENDBRANCH   1  13
BRANCH   6  22
ATOM     22  N   UNL     1      -1.435  10.816  18.409  0.00  0.00    +0.000 N 
ATOM     23  C   UNL     1      -1.441   9.801  17.355  0.00  0.00    +0.000 C 
ATOM     24  C   UNL     1      -2.734  10.052  16.595  0.00  0.00    +0.000 C 
ATOM     25  C   UNL     1      -3.687  10.557  17.665  0.00  0.00    +0.000 C 
ATOM     26  C   UNL     1      -2.799  11.313  18.656  0.00  0.00    +0.000 C 
ENDBRANCH   6  22
BRANCH   3  27
ATOM     27  S   UNL     1       2.378  14.778  20.662  0.00  0.00    +0.000 S 
ATOM     28  O   UNL     1       1.956  16.087  20.185  0.00  0.00    +0.000 OA
ATOM     29  O   UNL     1       2.325  14.446  22.071  0.00  0.00    +0.000 OA
BRANCH  27  30
ATOM     30  N   UNL     1       3.979  14.515  20.131  0.00  0.00    +0.000 NA
ATOM     31  C   UNL     1       5.072  14.639  21.153  0.00  0.00    +0.000 C 
ATOM     32  C   UNL     1       5.527  16.091  21.327  0.00  0.00    +0.000 C 
ATOM     33  O   UNL     1       5.962  16.644  20.079  0.00  0.00    +0.000 OA
ATOM     34  C   UNL     1       4.901  16.624  19.115  0.00  0.00    +0.000 C 
ATOM     35  C   UNL     1       4.384  15.200  18.867  0.00  0.00    +0.000 C 
ENDBRANCH  27  30
ENDBRANCH   3  27
TORSDOF 9
ENDMDL
MODEL 7
REMARK VINA RESULT:      -6.8      0.898      1.126
REMARK  Name = 
REMARK  13 active torsions:
REMARK  status: ('A' for Active; 'I' for Inactive)
REMARK    1  A    between atoms: C_1  and  C_2
REMARK    2  A    between atoms: C_4  and  C_5
REMARK    3  A    between atoms: C_5  and  N_6
REMARK    4  A    between atoms: N_6  and  C_7
REMARK    5  A    between atoms: C_7  and  C_8
REMARK    6  A    between atoms: C_8  and  N_9
REMARK    7  A    between atoms: N_9  and  C_10
REMARK    8  A    between atoms: N_9  and  C_11
REMARK    9  A    between atoms: C_12  and  C_13
REMARK   10  A    between atoms: N_14  and  C_15
REMARK   11  A    between atoms: C_17  and  S_18
REMARK   12  A    between atoms: S_18  and  N_21
REMARK   13  A    between atoms: C_29  and  N_30
REMARK                            x       y       z     vdW  Elec       q    Type
REMARK                         _______ _______ _______ _____ _____    ______ ____
ROOT
ATOM      1  C   UNL     1       0.512  11.515  19.740  0.00  0.00    +0.000 A 
ATOM      2  C   UNL     1       1.318  12.529  20.309  0.00  0.00    +0.000 A 
ATOM      3  C   UNL     1       1.103  13.877  20.036  0.00  0.00    +0.000 A 
ATOM      4  C   UNL     1       0.209  14.239  19.043  0.00  0.00    +0.000 A 
ATOM      5  C   UNL     1      -0.588  13.248  18.459  0.00  0.00    +0.000 A 
ATOM      6  C   UNL     1      -0.534  11.884  18.848  0.00  0.00    +0.000 A 
ENDROOT
BRANCH   1  13
ATOM      7  C   UNL     1      -0.350   9.970  22.387  0.00  0.00    +0.000 C 
ATOM      8  C   UNL     1       0.502   9.465  21.275  0.00  0.00    +0.000 A 
ATOM      9  C   UNL     1       1.062   8.209  21.239  0.00  0.00    +0.000 A 
ATOM     10  C   UNL     1       1.624   8.010  19.967  0.00  0.00    +0.000 A 
ATOM     11  C   UNL     1       1.466   9.198  19.260  0.00  0.00    +0.000 A 
ATOM     12  C   UNL     1       1.982   9.431  17.868  0.00  0.00    +0.000 C 
ATOM     13  N   UNL     1       0.826  10.141  20.086  0.00  0.00    +0.000 N 
BRANCH  10  14
ATOM     14  C   UNL     1       2.265   6.750  19.499  0.00  0.00    +0.000 C 
BRANCH  14  15
ATOM     15  N   UNL     1       2.563   5.952  20.684  0.00  0.00    +0.000 NA
ATOM     16  H   UNL     1       2.023   6.320  21.466  0.00  0.00    +0.000 HD
BRANCH  15  17
ATOM     17  C   UNL     1       2.218   4.554  20.441  0.00  0.00    +0.000 C 
BRANCH  17  18
ATOM     18  C   UNL     1       2.629   4.120  19.021  0.00  0.00    +0.000 C 
BRANCH  18  19
ATOM     19  N   UNL     1       3.743   3.151  19.008  0.00  0.00    +0.000 NA
ATOM     20  C   UNL     1       3.897   2.480  20.300  0.00  0.00    +0.000 C 
ATOM     21  C   UNL     1       3.515   2.155  17.958  0.00  0.00    +0.000 C 
ENDBRANCH  18  19
ENDBRANCH  17  18
ENDBRANCH  15  17
ENDBRANCH  14  15
ENDBRANCH  10  14
ENDBRANCH   1  13
BRANCH   6  22
ATOM     22  N   UNL     1      -1.546  11.024  18.437  0.00  0.00    +0.000 N 
ATOM     23  C   UNL     1      -1.423  10.023  17.377  0.00  0.00    +0.000 C 
ATOM     24  C   UNL     1      -2.669  10.220  16.526  0.00  0.00    +0.000 C 
ATOM     25  C   UNL     1      -3.722  10.662  17.527  0.00  0.00    +0.000 C 
ATOM     26  C   UNL     1      -2.947  11.450  18.587  0.00  0.00    +0.000 C 
ENDBRANCH   6  22
BRANCH   3  27
ATOM     27  S   UNL     1       1.903  15.105  21.039  0.00  0.00    +0.000 S 
ATOM     28  O   UNL     1       1.061  16.292  21.027  0.00  0.00    +0.000 OA
ATOM     29  O   UNL     1       2.310  14.492  22.287  0.00  0.00    +0.000 OA
BRANCH  27  30
ATOM     30  N   UNL     1       3.318  15.454  20.151  0.00  0.00    +0.000 NA
ATOM     31  C   UNL     1       3.398  16.797  19.483  0.00  0.00    +0.000 C 
ATOM     32  C   UNL     1       2.717  16.792  18.111  0.00  0.00    +0.000 C 
ATOM     33  O   UNL     1       3.288  15.790  17.260  0.00  0.00    +0.000 OA
ATOM     34  C   UNL     1       3.137  14.486  17.835  0.00  0.00    +0.000 C 
ATOM     35  C   UNL     1       3.800  14.392  19.217  0.00  0.00    +0.000 C 
ENDBRANCH  27  30
ENDBRANCH   3  27
TORSDOF 9
ENDMDL
MODEL 8
REMARK VINA RESULT:      -6.8      1.379      1.916
REMARK  Name = 
REMARK  13 active torsions:
REMARK  status: ('A' for Active; 'I' for Inactive)
REMARK    1  A    between atoms: C_1  and  C_2
REMARK    2  A    between atoms: C_4  and  C_5
REMARK    3  A    between atoms: C_5  and  N_6
REMARK    4  A    between atoms: N_6  and  C_7
REMARK    5  A    between atoms: C_7  and  C_8
REMARK    6  A    between atoms: C_8  and  N_9
REMARK    7  A    between atoms: N_9  and  C_10
REMARK    8  A    between atoms: N_9  and  C_11
REMARK    9  A    between atoms: C_12  and  C_13
REMARK   10  A    between atoms: N_14  and  C_15
REMARK   11  A    between atoms: C_17  and  S_18
REMARK   12  A    between atoms: S_18  and  N_21
REMARK   13  A    between atoms: C_29  and  N_30
REMARK                            x       y       z     vdW  Elec       q    Type
REMARK                         _______ _______ _______ _____ _____    ______ ____
ROOT
ATOM      1  C   UNL     1       0.618  11.576  19.451  0.00  0.00    +0.000 A 
ATOM      2  C   UNL     1       1.580  12.580  19.709  0.00  0.00    +0.000 A 
ATOM      3  C   UNL     1       1.413  13.888  19.263  0.00  0.00    +0.000 A 
ATOM      4  C   UNL     1       0.384  14.185  18.386  0.00  0.00    +0.000 A 
ATOM      5  C   UNL     1      -0.570  13.200  18.107  0.00  0.00    +0.000 A 
ATOM      6  C   UNL     1      -0.542  11.908  18.697  0.00  0.00    +0.000 A 
ENDROOT
BRANCH   1  13
ATOM      7  C   UNL     1      -0.258  10.387  22.271  0.00  0.00    +0.000 C 
ATOM      8  C   UNL     1       0.563   9.726  21.220  0.00  0.00    +0.000 A 
ATOM      9  C   UNL     1       1.084   8.457  21.330  0.00  0.00    +0.000 A 
ATOM     10  C   UNL     1       1.623   8.089  20.087  0.00  0.00    +0.000 A 
ATOM     11  C   UNL     1       1.494   9.188  19.243  0.00  0.00    +0.000 A 
ATOM     12  C   UNL     1       1.998   9.236  17.829  0.00  0.00    +0.000 C 
ATOM     13  N   UNL     1       0.893  10.244  19.956  0.00  0.00    +0.000 N 
BRANCH  10  14
ATOM     14  C   UNL     1       2.218   6.762  19.767  0.00  0.00    +0.000 C 
BRANCH  14  15
ATOM     15  N   UNL     1       2.059   5.922  20.950  0.00  0.00    +0.000 NA
ATOM     16  H   UNL     1       1.393   6.371  21.578  0.00  0.00    +0.000 HD
BRANCH  15  17
ATOM     17  C   UNL     1       1.579   4.599  20.560  0.00  0.00    +0.000 C 
BRANCH  17  18
ATOM     18  C   UNL     1       2.116   4.202  19.172  0.00  0.00    +0.000 C 
BRANCH  18  19
ATOM     19  N   UNL     1       2.703   2.846  19.142  0.00  0.00    +0.000 NA
ATOM     20  C   UNL     1       2.606   2.240  17.814  0.00  0.00    +0.000 C 
ATOM     21  C   UNL     1       4.108   2.911  19.554  0.00  0.00    +0.000 C 
ENDBRANCH  18  19
ENDBRANCH  17  18
ENDBRANCH  15  17
ENDBRANCH  14  15
ENDBRANCH  10  14
ENDBRANCH   1  13
BRANCH   6  22
ATOM     22  N   UNL     1      -1.667  11.099  18.601  0.00  0.00    +0.000 N 
ATOM     23  C   UNL     1      -1.775   9.898  17.771  0.00  0.00    +0.000 C 
ATOM     24  C   UNL     1      -3.106  10.053  17.052  0.00  0.00    +0.000 C 
ATOM     25  C   UNL     1      -3.970  10.799  18.054  0.00  0.00    +0.000 C 
ATOM     26  C   UNL     1      -2.995  11.694  18.823  0.00  0.00    +0.000 C 
ENDBRANCH   6  22
BRANCH   3  27
ATOM     27  S   UNL     1       2.461  15.168  19.909  0.00  0.00    +0.000 S 
ATOM     28  O   UNL     1       3.818  14.887  19.460  0.00  0.00    +0.000 OA
ATOM     29  O   UNL     1       1.842  16.451  19.650  0.00  0.00    +0.000 OA
BRANCH  27  30
ATOM     30  N   UNL     1       2.397  14.895  21.593  0.00  0.00    +0.000 NA
ATOM     31  C   UNL     1       1.352  15.640  22.372  0.00  0.00    +0.000 C 
ATOM     32  C   UNL     1       1.828  17.041  22.767  0.00  0.00    +0.000 C 
ATOM     33  O   UNL     1       3.043  16.974  23.524  0.00  0.00    +0.000 OA
ATOM     34  C   UNL     1       4.085  16.351  22.761  0.00  0.00    +0.000 C 
ATOM     35  C   UNL     1       3.699  14.930  22.325  0.00  0.00    +0.000 C 
ENDBRANCH  27  30
ENDBRANCH   3  27
TORSDOF 9
ENDMDL
MODEL 9
REMARK VINA RESULT:      -6.8      1.693      2.085
REMARK  Name = 
REMARK  13 active torsions:
REMARK  status: ('A' for Active; 'I' for Inactive)
REMARK    1  A    between atoms: C_1  and  C_2
REMARK    2  A    between atoms: C_4  and  C_5
REMARK    3  A    between atoms: C_5  and  N_6
REMARK    4  A    between atoms: N_6  and  C_7
REMARK    5  A    between atoms: C_7  and  C_8
REMARK    6  A    between atoms: C_8  and  N_9
REMARK    7  A    between atoms: N_9  and  C_10
REMARK    8  A    between atoms: N_9  and  C_11
REMARK    9  A    between atoms: C_12  and  C_13
REMARK   10  A    between atoms: N_14  and  C_15
REMARK   11  A    between atoms: C_17  and  S_18
REMARK   12  A    between atoms: S_18  and  N_21
REMARK   13  A    between atoms: C_29  and  N_30
REMARK                            x       y       z     vdW  Elec       q    Type
REMARK                         _______ _______ _______ _____ _____    ______ ____
ROOT
ATOM      1  C   UNL     1       0.669  11.218  19.640  0.00  0.00    +0.000 A 
ATOM      2  C   UNL     1       1.527  12.201  20.186  0.00  0.00    +0.000 A 
ATOM      3  C   UNL     1       1.315  13.560  19.973  0.00  0.00    +0.000 A 
ATOM      4  C   UNL     1       0.362  13.968  19.055  0.00  0.00    +0.000 A 
ATOM      5  C   UNL     1      -0.487  13.008  18.493  0.00  0.00    +0.000 A 
ATOM      6  C   UNL     1      -0.429  11.631  18.833  0.00  0.00    +0.000 A 
ENDROOT
BRANCH   1  13
ATOM      7  C   UNL     1      -0.158   9.557  22.226  0.00  0.00    +0.000 C 
ATOM      8  C   UNL     1       0.675   9.101  21.079  0.00  0.00    +0.000 A 
ATOM      9  C   UNL     1       1.231   7.846  20.978  0.00  0.00    +0.000 A 
ATOM     10  C   UNL     1       1.774   7.704  19.690  0.00  0.00    +0.000 A 
ATOM     11  C   UNL     1       1.609   8.923  19.040  0.00  0.00    +0.000 A 
ATOM     12  C   UNL     1       2.104   9.218  17.652  0.00  0.00    +0.000 C 
ATOM     13  N   UNL     1       0.984   9.829  19.918  0.00  0.00    +0.000 N 
BRANCH  10  14
ATOM     14  C   UNL     1       2.403   6.465  19.155  0.00  0.00    +0.000 C 
BRANCH  14  15
ATOM     15  N   UNL     1       3.450   6.074  20.094  0.00  0.00    +0.000 NA
ATOM     16  H   UNL     1       3.014   5.615  20.892  0.00  0.00    +0.000 HD
BRANCH  15  17
ATOM     17  C   UNL     1       4.393   5.171  19.439  0.00  0.00    +0.000 C 
BRANCH  17  18
ATOM     18  C   UNL     1       4.858   5.741  18.086  0.00  0.00    +0.000 C 
BRANCH  18  19
ATOM     19  N   UNL     1       6.325   5.877  17.986  0.00  0.00    +0.000 NA
ATOM     20  C   UNL     1       6.991   5.543  19.246  0.00  0.00    +0.000 C 
ATOM     21  C   UNL     1       6.827   5.009  16.917  0.00  0.00    +0.000 C 
ENDBRANCH  18  19
ENDBRANCH  17  18
ENDBRANCH  15  17
ENDBRANCH  14  15
ENDBRANCH  10  14
ENDBRANCH   1  13
BRANCH   6  22
ATOM     22  N   UNL     1      -1.479  10.800  18.463  0.00  0.00    +0.000 N 
ATOM     23  C   UNL     1      -1.438   9.823  17.374  0.00  0.00    +0.000 C 
ATOM     24  C   UNL     1      -2.727  10.061  16.603  0.00  0.00    +0.000 C 
ATOM     25  C   UNL     1      -3.711  10.498  17.675  0.00  0.00    +0.000 C 
ATOM     26  C   UNL     1      -2.861  11.246  18.705  0.00  0.00    +0.000 C 
ENDBRANCH   6  22
BRANCH   3  27
ATOM     27  S   UNL     1       2.200  14.743  20.959  0.00  0.00    +0.000 S 
ATOM     28  O   UNL     1       1.218  15.470  21.751  0.00  0.00    +0.000 OA
ATOM     29  O   UNL     1       3.320  14.076  21.591  0.00  0.00    +0.000 OA
BRANCH  27  30
ATOM     30  N   UNL     1       2.831  15.814  19.790  0.00  0.00    +0.000 NA
ATOM     31  C   UNL     1       4.324  15.953  19.718  0.00  0.00    +0.000 C 
ATOM     32  C   UNL     1       4.850  16.979  20.726  0.00  0.00    +0.000 C 
ATOM     33  O   UNL     1       4.232  18.256  20.525  0.00  0.00    +0.000 OA
ATOM     34  C   UNL     1       2.810  18.166  20.684  0.00  0.00    +0.000 C 
ATOM     35  C   UNL     1       2.189  17.161  19.704  0.00  0.00    +0.000 C 
ENDBRANCH  27  30
ENDBRANCH   3  27
TORSDOF 9
ENDMDL
