MODEL 1
REMARK VINA RESULT:      -7.5      0.000      0.000
REMARK  Name = 
REMARK  1 active torsions:
REMARK  status: ('A' for Active; 'I' for Inactive)
REMARK    1  A    between atoms: C_4  and  C_5
REMARK                            x       y       z     vdW  Elec       q    Type
REMARK                         _______ _______ _______ _____ _____    ______ ____
ROOT
ATOM      1  O   UNL     1       6.452   3.655  13.372  0.00  0.00    +0.000 OA
ATOM      2  C   UNL     1       6.346   4.175  14.468  0.00  0.00    +0.000 C 
ATOM      3  C   UNL     1       5.066   4.455  15.170  0.00  0.00    +0.000 C 
ATOM      4  C   UNL     1       5.502   4.618  16.623  0.00  0.00    +0.000 C 
ATOM      5  C   UNL     1       6.951   5.123  16.504  0.00  0.00    +0.000 C 
ATOM      6  C   UNL     1       7.897   4.481  17.535  0.00  0.00    +0.000 C 
ATOM      7  C   UNL     1       7.802   5.101  18.918  0.00  0.00    +0.000 C 
ATOM      8  C   UNL     1       8.025   6.606  18.885  0.00  0.00    +0.000 C 
ATOM      9  C   UNL     1       7.171   7.316  17.838  0.00  0.00    +0.000 C 
ATOM     10  C   UNL     1       7.200   6.639  16.468  0.00  0.00    +0.000 C 
ATOM     11  O   UNL     1       7.393   4.597  15.224  0.00  0.00    +0.000 OA
ENDROOT
BRANCH   4  12
ATOM     12  C   UNL     1       4.429   5.459  17.311  0.00  0.00    +0.000 C 
ATOM     13  O   UNL     1       4.087   6.557  16.866  0.00  0.00    +0.000 OA
ATOM     14  N   UNL     1       3.692   4.806  18.296  0.00  0.00    +0.000 N 
ATOM     15  C   UNL     1       2.368   5.328  18.660  0.00  0.00    +0.000 C 
ATOM     16  C   UNL     1       1.502   4.207  19.252  0.00  0.00    +0.000 C 
ATOM     17  O   UNL     1       2.152   3.585  20.372  0.00  0.00    +0.000 OA
ATOM     18  C   UNL     1       3.407   3.018  19.980  0.00  0.00    +0.000 C 
ATOM     19  C   UNL     1       4.337   4.085  19.397  0.00  0.00    +0.000 C 
ENDBRANCH   4  12
TORSDOF 1
ENDMDL
MODEL 2
REMARK VINA RESULT:      -6.9      1.858      5.901
REMARK  Name = 
REMARK  1 active torsions:
REMARK  status: ('A' for Active; 'I' for Inactive)
REMARK    1  A    between atoms: C_4  and  C_5
REMARK                            x       y       z     vdW  Elec       q    Type
REMARK                         _______ _______ _______ _____ _____    ______ ____
ROOT
ATOM      1  O   UNL     1       1.849   8.437  19.826  0.00  0.00    +0.000 OA
ATOM      2  C   UNL     1       2.116   7.265  19.635  0.00  0.00    +0.000 C 
ATOM      3  C   UNL     1       2.987   6.744  18.548  0.00  0.00    +0.000 C 
ATOM      4  C   UNL     1       3.375   5.359  19.057  0.00  0.00    +0.000 C 
ATOM      5  C   UNL     1       2.184   4.961  19.946  0.00  0.00    +0.000 C 
ATOM      6  C   UNL     1       2.615   4.254  21.245  0.00  0.00    +0.000 C 
ATOM      7  C   UNL     1       2.955   2.785  21.056  0.00  0.00    +0.000 C 
ATOM      8  C   UNL     1       1.814   2.015  20.407  0.00  0.00    +0.000 C 
ATOM      9  C   UNL     1       1.279   2.686  19.144  0.00  0.00    +0.000 C 
ATOM     10  C   UNL     1       1.021   4.183  19.312  0.00  0.00    +0.000 C 
ATOM     11  O   UNL     1       1.644   6.235  20.386  0.00  0.00    +0.000 OA
ENDROOT
BRANCH   4  12
ATOM     12  C   UNL     1       3.752   4.532  17.829  0.00  0.00    +0.000 C 
ATOM     13  O   UNL     1       2.893   4.069  17.076  0.00  0.00    +0.000 OA
ATOM     14  N   UNL     1       5.100   4.556  17.478  0.00  0.00    +0.000 N 
ATOM     15  C   UNL     1       5.483   4.225  16.100  0.00  0.00    +0.000 C 
ATOM     16  C   UNL     1       6.831   4.873  15.755  0.00  0.00    +0.000 C 
ATOM     17  O   UNL     1       7.848   4.488  16.694  0.00  0.00    +0.000 OA
ATOM     18  C   UNL     1       7.489   4.885  18.022  0.00  0.00    +0.000 C 
ATOM     19  C   UNL     1       6.159   4.257  18.446  0.00  0.00    +0.000 C 
ENDBRANCH   4  12
TORSDOF 1
ENDMDL
MODEL 3
REMARK VINA RESULT:      -6.9      2.250      5.893
REMARK  Name = 
REMARK  1 active torsions:
REMARK  status: ('A' for Active; 'I' for Inactive)
REMARK    1  A    between atoms: C_4  and  C_5
REMARK                            x       y       z     vdW  Elec       q    Type
REMARK                         _______ _______ _______ _____ _____    ______ ____
ROOT
ATOM      1  O   UNL     1       0.763   7.203  21.317  0.00  0.00    +0.000 OA
ATOM      2  C   UNL     1       1.456   6.489  20.617  0.00  0.00    +0.000 C 
ATOM      3  C   UNL     1       2.502   6.961  19.671  0.00  0.00    +0.000 C 
ATOM      4  C   UNL     1       3.358   5.715  19.461  0.00  0.00    +0.000 C 
ATOM      5  C   UNL     1       2.367   4.561  19.687  0.00  0.00    +0.000 C 
ATOM      6  C   UNL     1       2.976   3.394  20.486  0.00  0.00    +0.000 C 
ATOM      7  C   UNL     1       3.847   2.472  19.649  0.00  0.00    +0.000 C 
ATOM      8  C   UNL     1       3.104   1.931  18.437  0.00  0.00    +0.000 C 
ATOM      9  C   UNL     1       2.410   3.020  17.622  0.00  0.00    +0.000 C 
ATOM     10  C   UNL     1       1.605   3.998  18.477  0.00  0.00    +0.000 C 
ATOM     11  O   UNL     1       1.372   5.133  20.577  0.00  0.00    +0.000 OA
ENDROOT
BRANCH   4  12
ATOM     12  C   UNL     1       4.067   5.893  18.119  0.00  0.00    +0.000 C 
ATOM     13  O   UNL     1       3.437   6.112  17.082  0.00  0.00    +0.000 OA
ATOM     14  N   UNL     1       5.449   6.052  18.185  0.00  0.00    +0.000 N 
ATOM     15  C   UNL     1       6.147   6.698  17.067  0.00  0.00    +0.000 C 
ATOM     16  C   UNL     1       7.466   7.315  17.551  0.00  0.00    +0.000 C 
ATOM     17  O   UNL     1       8.294   6.332  18.194  0.00  0.00    +0.000 OA
ATOM     18  C   UNL     1       7.624   5.766  19.326  0.00  0.00    +0.000 C 
ATOM     19  C   UNL     1       6.303   5.111  18.915  0.00  0.00    +0.000 C 
ENDBRANCH   4  12
TORSDOF 1
ENDMDL
MODEL 4
REMARK VINA RESULT:      -6.7      2.003      3.537
REMARK  Name = 
REMARK  1 active torsions:
REMARK  status: ('A' for Active; 'I' for Inactive)
REMARK    1  A    between atoms: C_4  and  C_5
REMARK                            x       y       z     vdW  Elec       q    Type
REMARK                         _______ _______ _______ _____ _____    ______ ____
ROOT
ATOM      1  O   UNL     1       2.661   8.447  17.762  0.00  0.00    +0.000 OA
ATOM      2  C   UNL     1       3.344   7.441  17.707  0.00  0.00    +0.000 C 
ATOM      3  C   UNL     1       3.112   6.196  18.486  0.00  0.00    +0.000 C 
ATOM      4  C   UNL     1       3.894   5.150  17.697  0.00  0.00    +0.000 C 
ATOM      5  C   UNL     1       5.016   5.969  17.036  0.00  0.00    +0.000 C 
ATOM      6  C   UNL     1       5.292   5.545  15.582  0.00  0.00    +0.000 C 
ATOM      7  C   UNL     1       6.147   4.295  15.464  0.00  0.00    +0.000 C 
ATOM      8  C   UNL     1       7.462   4.429  16.217  0.00  0.00    +0.000 C 
ATOM      9  C   UNL     1       7.283   4.913  17.654  0.00  0.00    +0.000 C 
ATOM     10  C   UNL     1       6.353   6.120  17.779  0.00  0.00    +0.000 C 
ATOM     11  O   UNL     1       4.447   7.301  16.926  0.00  0.00    +0.000 OA
ENDROOT
BRANCH   4  12
ATOM     12  C   UNL     1       4.215   4.018  18.671  0.00  0.00    +0.000 C 
ATOM     13  O   UNL     1       5.379   3.698  18.926  0.00  0.00    +0.000 OA
ATOM     14  N   UNL     1       3.145   3.557  19.434  0.00  0.00    +0.000 N 
ATOM     15  C   UNL     1       3.417   2.855  20.694  0.00  0.00    +0.000 C 
ATOM     16  C   UNL     1       2.213   2.977  21.639  0.00  0.00    +0.000 C 
ATOM     17  O   UNL     1       1.011   2.496  21.014  0.00  0.00    +0.000 OA
ATOM     18  C   UNL     1       0.723   3.243  19.826  0.00  0.00    +0.000 C 
ATOM     19  C   UNL     1       1.876   3.150  18.823  0.00  0.00    +0.000 C 
ENDBRANCH   4  12
TORSDOF 1
ENDMDL
MODEL 5
REMARK VINA RESULT:      -6.5      1.772      5.809
REMARK  Name = 
REMARK  1 active torsions:
REMARK  status: ('A' for Active; 'I' for Inactive)
REMARK    1  A    between atoms: C_4  and  C_5
REMARK                            x       y       z     vdW  Elec       q    Type
REMARK                         _______ _______ _______ _____ _____    ______ ____
ROOT
ATOM      1  O   UNL     1       2.378   8.363  18.630  0.00  0.00    +0.000 OA
ATOM      2  C   UNL     1       2.589   7.166  18.708  0.00  0.00    +0.000 C 
ATOM      3  C   UNL     1       3.713   6.444  18.055  0.00  0.00    +0.000 C 
ATOM      4  C   UNL     1       3.795   5.148  18.855  0.00  0.00    +0.000 C 
ATOM      5  C   UNL     1       2.352   4.943  19.349  0.00  0.00    +0.000 C 
ATOM      6  C   UNL     1       2.281   4.443  20.804  0.00  0.00    +0.000 C 
ATOM      7  C   UNL     1       2.534   2.952  20.948  0.00  0.00    +0.000 C 
ATOM      8  C   UNL     1       1.599   2.127  20.076  0.00  0.00    +0.000 C 
ATOM      9  C   UNL     1       1.557   2.601  18.625  0.00  0.00    +0.000 C 
ATOM     10  C   UNL     1       1.390   4.114  18.484  0.00  0.00    +0.000 C 
ATOM     11  O   UNL     1       1.813   6.291  19.399  0.00  0.00    +0.000 OA
ENDROOT
BRANCH   4  12
ATOM     12  C   UNL     1       4.472   4.118  17.952  0.00  0.00    +0.000 C 
ATOM     13  O   UNL     1       3.988   2.998  17.776  0.00  0.00    +0.000 OA
ATOM     14  N   UNL     1       5.504   4.605  17.153  0.00  0.00    +0.000 N 
ATOM     15  C   UNL     1       5.879   3.863  15.943  0.00  0.00    +0.000 C 
ATOM     16  C   UNL     1       6.543   4.805  14.929  0.00  0.00    +0.000 C 
ATOM     17  O   UNL     1       7.673   5.478  15.508  0.00  0.00    +0.000 OA
ATOM     18  C   UNL     1       7.274   6.254  16.643  0.00  0.00    +0.000 C 
ATOM     19  C   UNL     1       6.620   5.374  17.711  0.00  0.00    +0.000 C 
ENDBRANCH   4  12
TORSDOF 1
ENDMDL
MODEL 6
REMARK VINA RESULT:      -6.3      2.055      3.578
REMARK  Name = 
REMARK  1 active torsions:
REMARK  status: ('A' for Active; 'I' for Inactive)
REMARK    1  A    between atoms: C_4  and  C_5
REMARK                            x       y       z     vdW  Elec       q    Type
REMARK                         _______ _______ _______ _____ _____    ______ ____
ROOT
ATOM      1  O   UNL     1       7.932   5.519  20.464  0.00  0.00    +0.000 OA
ATOM      2  C   UNL     1       7.182   5.323  19.525  0.00  0.00    +0.000 C 
ATOM      3  C   UNL     1       5.883   4.604  19.595  0.00  0.00    +0.000 C 
ATOM      4  C   UNL     1       5.165   5.074  18.333  0.00  0.00    +0.000 C 
ATOM      5  C   UNL     1       6.319   5.393  17.366  0.00  0.00    +0.000 C 
ATOM      6  C   UNL     1       6.079   6.676  16.549  0.00  0.00    +0.000 C 
ATOM      7  C   UNL     1       5.151   6.478  15.362  0.00  0.00    +0.000 C 
ATOM      8  C   UNL     1       5.631   5.365  14.442  0.00  0.00    +0.000 C 
ATOM      9  C   UNL     1       5.957   4.071  15.184  0.00  0.00    +0.000 C 
ATOM     10  C   UNL     1       6.820   4.284  16.428  0.00  0.00    +0.000 C 
ATOM     11  O   UNL     1       7.424   5.724  18.250  0.00  0.00    +0.000 OA
ENDROOT
BRANCH   4  12
ATOM     12  C   UNL     1       4.128   4.005  17.995  0.00  0.00    +0.000 C 
ATOM     13  O   UNL     1       4.358   3.124  17.163  0.00  0.00    +0.000 OA
ATOM     14  N   UNL     1       3.035   3.932  18.856  0.00  0.00    +0.000 N 
ATOM     15  C   UNL     1       2.264   2.685  18.926  0.00  0.00    +0.000 C 
ATOM     16  C   UNL     1       1.551   2.579  20.281  0.00  0.00    +0.000 C 
ATOM     17  O   UNL     1       0.722   3.728  20.523  0.00  0.00    +0.000 OA
ATOM     18  C   UNL     1       1.504   4.927  20.523  0.00  0.00    +0.000 C 
ATOM     19  C   UNL     1       2.232   5.112  19.189  0.00  0.00    +0.000 C 
ENDBRANCH   4  12
TORSDOF 1
ENDMDL
MODEL 7
REMARK VINA RESULT:      -6.1      1.939      5.812
REMARK  Name = 
REMARK  1 active torsions:
REMARK  status: ('A' for Active; 'I' for Inactive)
REMARK    1  A    between atoms: C_4  and  C_5
REMARK                            x       y       z     vdW  Elec       q    Type
REMARK                         _______ _______ _______ _____ _____    ______ ____
ROOT
ATOM      1  O   UNL     1       1.974   8.325  19.239  0.00  0.00    +0.000 OA
ATOM      2  C   UNL     1       2.336   7.164  19.197  0.00  0.00    +0.000 C 
ATOM      3  C   UNL     1       3.737   6.703  19.012  0.00  0.00    +0.000 C 
ATOM      4  C   UNL     1       3.694   5.267  19.525  0.00  0.00    +0.000 C 
ATOM      5  C   UNL     1       2.238   4.841  19.267  0.00  0.00    +0.000 C 
ATOM      6  C   UNL     1       1.641   4.013  20.420  0.00  0.00    +0.000 C 
ATOM      7  C   UNL     1       2.062   2.554  20.404  0.00  0.00    +0.000 C 
ATOM      8  C   UNL     1       1.747   1.883  19.075  0.00  0.00    +0.000 C 
ATOM      9  C   UNL     1       2.248   2.676  17.870  0.00  0.00    +0.000 C 
ATOM     10  C   UNL     1       1.897   4.163  17.931  0.00  0.00    +0.000 C 
ATOM     11  O   UNL     1       1.505   6.094  19.298  0.00  0.00    +0.000 OA
ENDROOT
BRANCH   4  12
ATOM     12  C   UNL     1       4.859   4.531  18.866  0.00  0.00    +0.000 C 
ATOM     13  O   UNL     1       5.335   3.505  19.358  0.00  0.00    +0.000 OA
ATOM     14  N   UNL     1       5.168   4.933  17.568  0.00  0.00    +0.000 N 
ATOM     15  C   UNL     1       5.900   4.011  16.691  0.00  0.00    +0.000 C 
ATOM     16  C   UNL     1       5.614   4.340  15.220  0.00  0.00    +0.000 C 
ATOM     17  O   UNL     1       5.926   5.711  14.924  0.00  0.00    +0.000 OA
ATOM     18  C   UNL     1       5.148   6.596  15.738  0.00  0.00    +0.000 C 
ATOM     19  C   UNL     1       5.398   6.339  17.227  0.00  0.00    +0.000 C 
ENDBRANCH   4  12
TORSDOF 1
ENDMDL
MODEL 8
REMARK VINA RESULT:      -6.0      1.864      5.600
REMARK  Name = 
REMARK  1 active torsions:
REMARK  status: ('A' for Active; 'I' for Inactive)
REMARK    1  A    between atoms: C_4  and  C_5
REMARK                            x       y       z     vdW  Elec       q    Type
REMARK                         _______ _______ _______ _____ _____    ______ ____
ROOT
ATOM      1  O   UNL     1       0.776   1.212  18.879  0.00  0.00    +0.000 OA
ATOM      2  C   UNL     1       1.447   2.227  18.846  0.00  0.00    +0.000 C 
ATOM      3  C   UNL     1       2.929   2.279  18.740  0.00  0.00    +0.000 C 
ATOM      4  C   UNL     1       3.186   3.699  18.245  0.00  0.00    +0.000 C 
ATOM      5  C   UNL     1       1.986   4.489  18.795  0.00  0.00    +0.000 C 
ATOM      6  C   UNL     1       1.427   5.511  17.787  0.00  0.00    +0.000 C 
ATOM      7  C   UNL     1       2.232   6.798  17.715  0.00  0.00    +0.000 C 
ATOM      8  C   UNL     1       2.383   7.453  19.081  0.00  0.00    +0.000 C 
ATOM      9  C   UNL     1       2.870   6.489  20.159  0.00  0.00    +0.000 C 
ATOM     10  C   UNL     1       2.115   5.159  20.172  0.00  0.00    +0.000 C 
ATOM     11  O   UNL     1       0.942   3.487  18.915  0.00  0.00    +0.000 OA
ENDROOT
BRANCH   4  12
ATOM     12  C   UNL     1       4.615   4.053  18.652  0.00  0.00    +0.000 C 
ATOM     13  O   UNL     1       5.091   3.675  19.726  0.00  0.00    +0.000 OA
ATOM     14  N   UNL     1       5.413   4.590  17.645  0.00  0.00    +0.000 N 
ATOM     15  C   UNL     1       6.873   4.509  17.772  0.00  0.00    +0.000 C 
ATOM     16  C   UNL     1       7.530   4.571  16.386  0.00  0.00    +0.000 C 
ATOM     17  O   UNL     1       7.126   5.751  15.672  0.00  0.00    +0.000 OA
ATOM     18  C   UNL     1       5.705   5.775  15.495  0.00  0.00    +0.000 C 
ATOM     19  C   UNL     1       4.979   5.737  16.842  0.00  0.00    +0.000 C 
ENDBRANCH   4  12
TORSDOF 1
ENDMDL
MODEL 9
REMARK VINA RESULT:      -5.9      1.923      3.628
REMARK  Name = 
REMARK  1 active torsions:
REMARK  status: ('A' for Active; 'I' for Inactive)
REMARK    1  A    between atoms: C_4  and  C_5
REMARK                            x       y       z     vdW  Elec       q    Type
REMARK                         _______ _______ _______ _____ _____    ______ ____
ROOT
ATOM      1  O   UNL     1       8.452   8.368  18.313  0.00  0.00    +0.000 OA
ATOM      2  C   UNL     1       7.762   7.444  17.922  0.00  0.00    +0.000 C 
ATOM      3  C   UNL     1       7.023   6.491  18.792  0.00  0.00    +0.000 C 
ATOM      4  C   UNL     1       5.979   5.905  17.846  0.00  0.00    +0.000 C 
ATOM      5  C   UNL     1       6.652   6.009  16.466  0.00  0.00    +0.000 C 
ATOM      6  C   UNL     1       5.680   6.450  15.356  0.00  0.00    +0.000 C 
ATOM      7  C   UNL     1       4.801   5.327  14.834  0.00  0.00    +0.000 C 
ATOM      8  C   UNL     1       5.620   4.137  14.356  0.00  0.00    +0.000 C 
ATOM      9  C   UNL     1       6.659   3.675  15.374  0.00  0.00    +0.000 C 
ATOM     10  C   UNL     1       7.485   4.819  15.963  0.00  0.00    +0.000 C 
ATOM     11  O   UNL     1       7.568   7.126  16.615  0.00  0.00    +0.000 OA
ENDROOT
BRANCH   4  12
ATOM     12  C   UNL     1       5.574   4.551  18.425  0.00  0.00    +0.000 C 
ATOM     13  O   UNL     1       6.411   3.771  18.886  0.00  0.00    +0.000 OA
ATOM     14  N   UNL     1       4.209   4.369  18.634  0.00  0.00    +0.000 N 
ATOM     15  C   UNL     1       3.765   3.357  19.600  0.00  0.00    +0.000 C 
ATOM     16  C   UNL     1       2.368   3.710  20.131  0.00  0.00    +0.000 C 
ATOM     17  O   UNL     1       1.427   3.864  19.056  0.00  0.00    +0.000 OA
ATOM     18  C   UNL     1       1.841   4.905  18.165  0.00  0.00    +0.000 C 
ATOM     19  C   UNL     1       3.224   4.611  17.576  0.00  0.00    +0.000 C 
ENDBRANCH   4  12
TORSDOF 1
ENDMDL
