MODEL 1
REMARK VINA RESULT:      -7.5      0.000      0.000
REMARK  Name = 
REMARK  3 active torsions:
REMARK  status: ('A' for Active; 'I' for Inactive)
REMARK    1  A    between atoms: S_2  and  N_4
REMARK    2  A    between atoms: S_2  and  C_15
REMARK    3  A    between atoms: N_4  and  C_5
REMARK                            x       y       z     vdW  Elec       q    Type
REMARK                         _______ _______ _______ _____ _____    ______ ____
ROOT
ATOM      1  N   UNL     1       4.501   3.040  17.411  0.00  0.00    +0.000 N 
ATOM      2  H   UNL     1       4.510   2.130  16.940  0.00  0.00    +0.000 HD
ENDROOT
BRANCH   1   3
ATOM      3  C   UNL     1       5.370   3.959  16.715  0.00  0.00    +0.000 A 
ATOM      4  C   UNL     1       5.368   3.982  15.318  0.00  0.00    +0.000 A 
ATOM      5  C   UNL     1       6.180   4.889  14.643  0.00  0.00    +0.000 A 
ATOM      6  C   UNL     1       7.005   5.751  15.364  0.00  0.00    +0.000 A 
ATOM      7  C   UNL     1       7.027   5.706  16.769  0.00  0.00    +0.000 A 
ATOM      8  C   UNL     1       7.858   6.545  17.524  0.00  0.00    +0.000 A 
ATOM      9  C   UNL     1       7.859   6.454  18.911  0.00  0.00    +0.000 A 
ATOM     10  C   UNL     1       7.017   5.533  19.503  0.00  0.00    +0.000 A 
ATOM     11  N   UNL     1       6.183   4.725  18.813  0.00  0.00    +0.000 NA
ATOM     12  C   UNL     1       6.198   4.800  17.464  0.00  0.00    +0.000 A 
ENDBRANCH   1   3
BRANCH   1  14
ATOM     13  O   UNL     1       2.880   4.965  17.557  0.00  0.00    +0.000 OA
ATOM     14  S   UNL     1       2.890   3.518  17.641  0.00  0.00    +0.000 S 
ATOM     15  O   UNL     1       2.028   2.725  16.789  0.00  0.00    +0.000 OA
BRANCH  14  16
ATOM     16  C   UNL     1       2.524   3.100  19.314  0.00  0.00    +0.000 A 
ATOM     17  C   UNL     1       1.248   3.281  19.844  0.00  0.00    +0.000 A 
ATOM     18  C   UNL     1       1.031   2.992  21.189  0.00  0.00    +0.000 A 
ATOM     19  C   UNL     1       2.103   2.550  21.950  0.00  0.00    +0.000 A 
ATOM     20  N   UNL     1       3.355   2.387  21.464  0.00  0.00    +0.000 NA
ATOM     21  C   UNL     1       3.542   2.678  20.152  0.00  0.00    +0.000 A 
ENDBRANCH  14  16
ENDBRANCH   1  14
TORSDOF 3
ENDMDL
MODEL 2
REMARK VINA RESULT:      -7.4      2.423      5.396
REMARK  Name = 
REMARK  3 active torsions:
REMARK  status: ('A' for Active; 'I' for Inactive)
REMARK    1  A    between atoms: S_2  and  N_4
REMARK    2  A    between atoms: S_2  and  C_15
REMARK    3  A    between atoms: N_4  and  C_5
REMARK                            x       y       z     vdW  Elec       q    Type
REMARK                         _______ _______ _______ _____ _____    ______ ____
ROOT
ATOM      1  N   UNL     1       4.233   4.323  16.609  0.00  0.00    +0.000 N 
ATOM      2  H   UNL     1       4.439   3.389  16.976  0.00  0.00    +0.000 HD
ENDROOT
BRANCH   1   3
ATOM      3  C   UNL     1       3.615   5.128  17.635  0.00  0.00    +0.000 A 
ATOM      4  C   UNL     1       3.451   6.500  17.425  0.00  0.00    +0.000 A 
ATOM      5  C   UNL     1       2.826   7.275  18.398  0.00  0.00    +0.000 A 
ATOM      6  C   UNL     1       2.390   6.682  19.583  0.00  0.00    +0.000 A 
ATOM      7  C   UNL     1       2.583   5.307  19.804  0.00  0.00    +0.000 A 
ATOM      8  C   UNL     1       2.175   4.683  20.990  0.00  0.00    +0.000 A 
ATOM      9  C   UNL     1       2.401   3.324  21.172  0.00  0.00    +0.000 A 
ATOM     10  C   UNL     1       3.020   2.626  20.154  0.00  0.00    +0.000 A 
ATOM     11  N   UNL     1       3.405   3.184  18.985  0.00  0.00    +0.000 NA
ATOM     12  C   UNL     1       3.203   4.510  18.819  0.00  0.00    +0.000 A 
ENDBRANCH   1   3
BRANCH   1  14
ATOM     13  O   UNL     1       6.331   3.801  15.311  0.00  0.00    +0.000 OA
ATOM     14  S   UNL     1       5.635   4.939  15.876  0.00  0.00    +0.000 S 
ATOM     15  O   UNL     1       5.283   6.074  15.048  0.00  0.00    +0.000 OA
BRANCH  14  16
ATOM     16  C   UNL     1       6.623   5.534  17.210  0.00  0.00    +0.000 A 
ATOM     17  C   UNL     1       7.117   6.836  17.222  0.00  0.00    +0.000 A 
ATOM     18  C   UNL     1       7.944   7.233  18.270  0.00  0.00    +0.000 A 
ATOM     19  C   UNL     1       8.254   6.304  19.253  0.00  0.00    +0.000 A 
ATOM     20  N   UNL     1       7.803   5.029  19.252  0.00  0.00    +0.000 NA
ATOM     21  C   UNL     1       7.002   4.665  18.219  0.00  0.00    +0.000 A 
ENDBRANCH  14  16
ENDBRANCH   1  14
TORSDOF 3
ENDMDL
MODEL 3
REMARK VINA RESULT:      -7.3      1.970      2.316
REMARK  Name = 
REMARK  3 active torsions:
REMARK  status: ('A' for Active; 'I' for Inactive)
REMARK    1  A    between atoms: S_2  and  N_4
REMARK    2  A    between atoms: S_2  and  C_15
REMARK    3  A    between atoms: N_4  and  C_5
REMARK                            x       y       z     vdW  Elec       q    Type
REMARK                         _______ _______ _______ _____ _____    ______ ____
ROOT
ATOM      1  N   UNL     1       4.445   2.955  18.163  0.00  0.00    +0.000 N 
ATOM      2  H   UNL     1       4.677   1.991  17.904  0.00  0.00    +0.000 HD
ENDROOT
BRANCH   1   3
ATOM      3  C   UNL     1       5.106   3.875  17.269  0.00  0.00    +0.000 A 
ATOM      4  C   UNL     1       4.803   3.845  15.906  0.00  0.00    +0.000 A 
ATOM      5  C   UNL     1       5.414   4.752  15.044  0.00  0.00    +0.000 A 
ATOM      6  C   UNL     1       6.340   5.667  15.544  0.00  0.00    +0.000 A 
ATOM      7  C   UNL     1       6.665   5.675  16.912  0.00  0.00    +0.000 A 
ATOM      8  C   UNL     1       7.605   6.569  17.444  0.00  0.00    +0.000 A 
ATOM      9  C   UNL     1       7.908   6.530  18.800  0.00  0.00    +0.000 A 
ATOM     10  C   UNL     1       7.250   5.605  19.587  0.00  0.00    +0.000 A 
ATOM     11  N   UNL     1       6.320   4.745  19.118  0.00  0.00    +0.000 NA
ATOM     12  C   UNL     1       6.042   4.770  17.796  0.00  0.00    +0.000 A 
ENDBRANCH   1   3
BRANCH   1  14
ATOM     13  O   UNL     1       2.229   2.994  16.962  0.00  0.00    +0.000 OA
ATOM     14  S   UNL     1       2.759   3.089  18.307  0.00  0.00    +0.000 S 
ATOM     15  O   UNL     1       2.294   2.195  19.348  0.00  0.00    +0.000 OA
BRANCH  14  16
ATOM     16  C   UNL     1       2.478   4.741  18.854  0.00  0.00    +0.000 A 
ATOM     17  C   UNL     1       2.599   5.823  17.984  0.00  0.00    +0.000 A 
ATOM     18  C   UNL     1       2.426   7.111  18.484  0.00  0.00    +0.000 A 
ATOM     19  C   UNL     1       2.155   7.263  19.836  0.00  0.00    +0.000 A 
ATOM     20  N   UNL     1       2.054   6.230  20.704  0.00  0.00    +0.000 NA
ATOM     21  C   UNL     1       2.229   4.985  20.194  0.00  0.00    +0.000 A 
ENDBRANCH  14  16
ENDBRANCH   1  14
TORSDOF 3
ENDMDL
MODEL 4
REMARK VINA RESULT:      -7.2      1.856      2.264
REMARK  Name = 
REMARK  3 active torsions:
REMARK  status: ('A' for Active; 'I' for Inactive)
REMARK    1  A    between atoms: S_2  and  N_4
REMARK    2  A    between atoms: S_2  and  C_15
REMARK    3  A    between atoms: N_4  and  C_5
REMARK                            x       y       z     vdW  Elec       q    Type
REMARK                         _______ _______ _______ _____ _____    ______ ____
ROOT
ATOM      1  N   UNL     1       4.442   2.898  17.980  0.00  0.00    +0.000 N 
ATOM      2  H   UNL     1       4.637   1.939  17.675  0.00  0.00    +0.000 HD
ENDROOT
BRANCH   1   3
ATOM      3  C   UNL     1       5.127   3.835  17.122  0.00  0.00    +0.000 A 
ATOM      4  C   UNL     1       4.875   3.817  15.748  0.00  0.00    +0.000 A 
ATOM      5  C   UNL     1       5.507   4.740  14.919  0.00  0.00    +0.000 A 
ATOM      6  C   UNL     1       6.405   5.659  15.463  0.00  0.00    +0.000 A 
ATOM      7  C   UNL     1       6.679   5.655  16.843  0.00  0.00    +0.000 A 
ATOM      8  C   UNL     1       7.590   6.551  17.419  0.00  0.00    +0.000 A 
ATOM      9  C   UNL     1       7.843   6.500  18.785  0.00  0.00    +0.000 A 
ATOM     10  C   UNL     1       7.166   5.559  19.536  0.00  0.00    +0.000 A 
ATOM     11  N   UNL     1       6.262   4.695  19.024  0.00  0.00    +0.000 NA
ATOM     12  C   UNL     1       6.033   4.733  17.693  0.00  0.00    +0.000 A 
ENDBRANCH   1   3
BRANCH   1  14
ATOM     13  O   UNL     1       2.225   3.147  16.806  0.00  0.00    +0.000 OA
ATOM     14  S   UNL     1       2.764   3.084  18.150  0.00  0.00    +0.000 S 
ATOM     15  O   UNL     1       2.268   2.108  19.099  0.00  0.00    +0.000 OA
BRANCH  14  16
ATOM     16  C   UNL     1       2.552   4.682  18.863  0.00  0.00    +0.000 A 
ATOM     17  C   UNL     1       2.198   4.838  20.202  0.00  0.00    +0.000 A 
ATOM     18  C   UNL     1       1.983   6.122  20.696  0.00  0.00    +0.000 A 
ATOM     19  C   UNL     1       2.115   7.194  19.825  0.00  0.00    +0.000 A 
ATOM     20  N   UNL     1       2.436   7.067  18.517  0.00  0.00    +0.000 NA
ATOM     21  C   UNL     1       2.637   5.806  18.059  0.00  0.00    +0.000 A 
ENDBRANCH  14  16
ENDBRANCH   1  14
TORSDOF 3
ENDMDL
MODEL 5
REMARK VINA RESULT:      -7.2      2.145      5.988
REMARK  Name = 
REMARK  3 active torsions:
REMARK  status: ('A' for Active; 'I' for Inactive)
REMARK    1  A    between atoms: S_2  and  N_4
REMARK    2  A    between atoms: S_2  and  C_15
REMARK    3  A    between atoms: N_4  and  C_5
REMARK                            x       y       z     vdW  Elec       q    Type
REMARK                         _______ _______ _______ _____ _____    ______ ____
ROOT
ATOM      1  N   UNL     1       4.369   5.592  19.220  0.00  0.00    +0.000 N 
ATOM      2  H   UNL     1       4.445   6.464  18.688  0.00  0.00    +0.000 HD
ENDROOT
BRANCH   1   3
ATOM      3  C   UNL     1       3.139   4.917  18.881  0.00  0.00    +0.000 A 
ATOM      4  C   UNL     1       2.616   5.052  17.592  0.00  0.00    +0.000 A 
ATOM      5  C   UNL     1       1.447   4.377  17.250  0.00  0.00    +0.000 A 
ATOM      6  C   UNL     1       0.796   3.592  18.200  0.00  0.00    +0.000 A 
ATOM      7  C   UNL     1       1.309   3.482  19.505  0.00  0.00    +0.000 A 
ATOM      8  C   UNL     1       0.669   2.717  20.490  0.00  0.00    +0.000 A 
ATOM      9  C   UNL     1       1.203   2.650  21.771  0.00  0.00    +0.000 A 
ATOM     10  C   UNL     1       2.371   3.343  22.026  0.00  0.00    +0.000 A 
ATOM     11  N   UNL     1       3.031   4.070  21.098  0.00  0.00    +0.000 NA
ATOM     12  C   UNL     1       2.499   4.151  19.859  0.00  0.00    +0.000 A 
ENDBRANCH   1   3
BRANCH   1  14
ATOM     13  O   UNL     1       6.832   5.465  19.745  0.00  0.00    +0.000 OA
ATOM     14  S   UNL     1       5.811   4.716  19.039  0.00  0.00    +0.000 S 
ATOM     15  O   UNL     1       5.568   3.323  19.355  0.00  0.00    +0.000 OA
BRANCH  14  16
ATOM     16  C   UNL     1       6.195   4.818  17.322  0.00  0.00    +0.000 A 
ATOM     17  C   UNL     1       5.673   3.906  16.407  0.00  0.00    +0.000 A 
ATOM     18  C   UNL     1       6.059   3.997  15.072  0.00  0.00    +0.000 A 
ATOM     19  C   UNL     1       6.963   4.986  14.712  0.00  0.00    +0.000 A 
ATOM     20  N   UNL     1       7.499   5.869  15.586  0.00  0.00    +0.000 NA
ATOM     21  C   UNL     1       7.110   5.759  16.881  0.00  0.00    +0.000 A 
ENDBRANCH  14  16
ENDBRANCH   1  14
TORSDOF 3
ENDMDL
MODEL 6
REMARK VINA RESULT:      -7.1      2.540      6.393
REMARK  Name = 
REMARK  3 active torsions:
REMARK  status: ('A' for Active; 'I' for Inactive)
REMARK    1  A    between atoms: S_2  and  N_4
REMARK    2  A    between atoms: S_2  and  C_15
REMARK    3  A    between atoms: N_4  and  C_5
REMARK                            x       y       z     vdW  Elec       q    Type
REMARK                         _______ _______ _______ _____ _____    ______ ____
ROOT
ATOM      1  N   UNL     1       3.753   6.061  17.306  0.00  0.00    +0.000 N 
ATOM      2  H   UNL     1       3.430   5.492  16.516  0.00  0.00    +0.000 HD
ENDROOT
BRANCH   1   3
ATOM      3  C   UNL     1       2.942   5.789  18.469  0.00  0.00    +0.000 A 
ATOM      4  C   UNL     1       2.727   6.801  19.407  0.00  0.00    +0.000 A 
ATOM      5  C   UNL     1       1.919   6.554  20.514  0.00  0.00    +0.000 A 
ATOM      6  C   UNL     1       1.351   5.293  20.689  0.00  0.00    +0.000 A 
ATOM      7  C   UNL     1       1.594   4.267  19.759  0.00  0.00    +0.000 A 
ATOM      8  C   UNL     1       1.054   2.982  19.915  0.00  0.00    +0.000 A 
ATOM      9  C   UNL     1       1.335   1.994  18.979  0.00  0.00    +0.000 A 
ATOM     10  C   UNL     1       2.138   2.325  17.905  0.00  0.00    +0.000 A 
ATOM     11  N   UNL     1       2.656   3.557  17.705  0.00  0.00    +0.000 NA
ATOM     12  C   UNL     1       2.400   4.510  18.627  0.00  0.00    +0.000 A 
ENDBRANCH   1   3
BRANCH   1  14
ATOM     13  O   UNL     1       5.978   7.197  17.642  0.00  0.00    +0.000 OA
ATOM     14  S   UNL     1       5.431   5.867  17.465  0.00  0.00    +0.000 S 
ATOM     15  O   UNL     1       5.703   4.824  18.432  0.00  0.00    +0.000 OA
BRANCH  14  16
ATOM     16  C   UNL     1       5.976   5.295  15.890  0.00  0.00    +0.000 A 
ATOM     17  C   UNL     1       5.218   4.395  15.143  0.00  0.00    +0.000 A 
ATOM     18  C   UNL     1       5.726   3.928  13.933  0.00  0.00    +0.000 A 
ATOM     19  C   UNL     1       6.979   4.369  13.530  0.00  0.00    +0.000 A 
ATOM     20  N   UNL     1       7.741   5.226  14.247  0.00  0.00    +0.000 NA
ATOM     21  C   UNL     1       7.226   5.664  15.423  0.00  0.00    +0.000 A 
ENDBRANCH  14  16
ENDBRANCH   1  14
TORSDOF 3
ENDMDL
MODEL 7
REMARK VINA RESULT:      -7.1      2.406      6.194
REMARK  Name = 
REMARK  3 active torsions:
REMARK  status: ('A' for Active; 'I' for Inactive)
REMARK    1  A    between atoms: S_2  and  N_4
REMARK    2  A    between atoms: S_2  and  C_15
REMARK    3  A    between atoms: N_4  and  C_5
REMARK                            x       y       z     vdW  Elec       q    Type
REMARK                         _______ _______ _______ _____ _____    ______ ____
ROOT
ATOM      1  N   UNL     1       4.159   5.080  17.084  0.00  0.00    +0.000 N 
ATOM      2  H   UNL     1       3.700   4.422  16.446  0.00  0.00    +0.000 HD
ENDROOT
BRANCH   1   3
ATOM      3  C   UNL     1       3.307   5.333  18.221  0.00  0.00    +0.000 A 
ATOM      4  C   UNL     1       3.332   6.589  18.831  0.00  0.00    +0.000 A 
ATOM      5  C   UNL     1       2.489   6.849  19.908  0.00  0.00    +0.000 A 
ATOM      6  C   UNL     1       1.644   5.846  20.384  0.00  0.00    +0.000 A 
ATOM      7  C   UNL     1       1.643   4.573  19.787  0.00  0.00    +0.000 A 
ATOM      8  C   UNL     1       0.820   3.538  20.252  0.00  0.00    +0.000 A 
ATOM      9  C   UNL     1       0.864   2.290  19.642  0.00  0.00    +0.000 A 
ATOM     10  C   UNL     1       1.722   2.119  18.573  0.00  0.00    +0.000 A 
ATOM     11  N   UNL     1       2.512   3.098  18.079  0.00  0.00    +0.000 NA
ATOM     12  C   UNL     1       2.483   4.304  18.687  0.00  0.00    +0.000 A 
ENDBRANCH   1   3
BRANCH   1  14
ATOM     13  O   UNL     1       5.676   3.857  18.683  0.00  0.00    +0.000 OA
ATOM     14  S   UNL     1       5.732   4.526  17.398  0.00  0.00    +0.000 S 
ATOM     15  O   UNL     1       6.240   3.838  16.230  0.00  0.00    +0.000 OA
BRANCH  14  16
ATOM     16  C   UNL     1       6.693   5.987  17.623  0.00  0.00    +0.000 A 
ATOM     17  C   UNL     1       7.676   6.063  18.608  0.00  0.00    +0.000 A 
ATOM     18  C   UNL     1       8.362   7.262  18.782  0.00  0.00    +0.000 A 
ATOM     19  C   UNL     1       8.025   8.338  17.973  0.00  0.00    +0.000 A 
ATOM     20  N   UNL     1       7.062   8.294  17.025  0.00  0.00    +0.000 NA
ATOM     21  C   UNL     1       6.405   7.116  16.877  0.00  0.00    +0.000 A 
ENDBRANCH  14  16
ENDBRANCH   1  14
TORSDOF 3
ENDMDL
MODEL 8
REMARK VINA RESULT:      -7.1      2.658      6.072
REMARK  Name = 
REMARK  3 active torsions:
REMARK  status: ('A' for Active; 'I' for Inactive)
REMARK    1  A    between atoms: S_2  and  N_4
REMARK    2  A    between atoms: S_2  and  C_15
REMARK    3  A    between atoms: N_4  and  C_5
REMARK                            x       y       z     vdW  Elec       q    Type
REMARK                         _______ _______ _______ _____ _____    ______ ____
ROOT
ATOM      1  N   UNL     1       5.650   3.962  18.451  0.00  0.00    +0.000 N 
ATOM      2  H   UNL     1       5.944   3.510  19.323  0.00  0.00    +0.000 HD
ENDROOT
BRANCH   1   3
ATOM      3  C   UNL     1       4.411   4.672  18.662  0.00  0.00    +0.000 A 
ATOM      4  C   UNL     1       4.178   5.864  17.971  0.00  0.00    +0.000 A 
ATOM      5  C   UNL     1       2.971   6.536  18.146  0.00  0.00    +0.000 A 
ATOM      6  C   UNL     1       2.015   6.027  19.024  0.00  0.00    +0.000 A 
ATOM      7  C   UNL     1       2.265   4.843  19.740  0.00  0.00    +0.000 A 
ATOM      8  C   UNL     1       1.334   4.314  20.645  0.00  0.00    +0.000 A 
ATOM      9  C   UNL     1       1.631   3.150  21.344  0.00  0.00    +0.000 A 
ATOM     10  C   UNL     1       2.847   2.541  21.106  0.00  0.00    +0.000 A 
ATOM     11  N   UNL     1       3.760   3.004  20.223  0.00  0.00    +0.000 NA
ATOM     12  C   UNL     1       3.479   4.147  19.561  0.00  0.00    +0.000 A 
ENDBRANCH   1   3
BRANCH   1  14
ATOM     13  O   UNL     1       6.705   6.235  18.170  0.00  0.00    +0.000 OA
ATOM     14  S   UNL     1       6.957   4.848  17.830  0.00  0.00    +0.000 S 
ATOM     15  O   UNL     1       8.197   4.208  18.217  0.00  0.00    +0.000 OA
BRANCH  14  16
ATOM     16  C   UNL     1       6.807   4.715  16.078  0.00  0.00    +0.000 A 
ATOM     17  C   UNL     1       5.937   3.798  15.493  0.00  0.00    +0.000 A 
ATOM     18  C   UNL     1       5.905   3.693  14.105  0.00  0.00    +0.000 A 
ATOM     19  C   UNL     1       6.757   4.497  13.362  0.00  0.00    +0.000 A 
ATOM     20  N   UNL     1       7.625   5.379  13.908  0.00  0.00    +0.000 NA
ATOM     21  C   UNL     1       7.640   5.461  15.262  0.00  0.00    +0.000 A 
ENDBRANCH  14  16
ENDBRANCH   1  14
TORSDOF 3
ENDMDL
MODEL 9
REMARK VINA RESULT:      -7.0      0.661      1.085
REMARK  Name = 
REMARK  3 active torsions:
REMARK  status: ('A' for Active; 'I' for Inactive)
REMARK    1  A    between atoms: S_2  and  N_4
REMARK    2  A    between atoms: S_2  and  C_15
REMARK    3  A    between atoms: N_4  and  C_5
REMARK                            x       y       z     vdW  Elec       q    Type
REMARK                         _______ _______ _______ _____ _____    ______ ____
ROOT
ATOM      1  N   UNL     1       4.471   3.033  17.484  0.00  0.00    +0.000 N 
ATOM      2  H   UNL     1       4.530   2.101  17.062  0.00  0.00    +0.000 HD
ENDROOT
BRANCH   1   3
ATOM      3  C   UNL     1       5.317   3.952  16.760  0.00  0.00    +0.000 A 
ATOM      4  C   UNL     1       5.278   3.967  15.364  0.00  0.00    +0.000 A 
ATOM      5  C   UNL     1       6.067   4.874  14.662  0.00  0.00    +0.000 A 
ATOM      6  C   UNL     1       6.907   5.744  15.357  0.00  0.00    +0.000 A 
ATOM      7  C   UNL     1       6.967   5.707  16.761  0.00  0.00    +0.000 A 
ATOM      8  C   UNL     1       7.813   6.554  17.490  0.00  0.00    +0.000 A 
ATOM      9  C   UNL     1       7.852   6.471  18.876  0.00  0.00    +0.000 A 
ATOM     10  C   UNL     1       7.030   5.549  19.495  0.00  0.00    +0.000 A 
ATOM     11  N   UNL     1       6.181   4.734  18.832  0.00  0.00    +0.000 NA
ATOM     12  C   UNL     1       6.161   4.801  17.482  0.00  0.00    +0.000 A 
ENDBRANCH   1   3
BRANCH   1  14
ATOM     13  O   UNL     1       2.762   4.887  17.461  0.00  0.00    +0.000 OA
ATOM     14  S   UNL     1       2.835   3.452  17.652  0.00  0.00    +0.000 S 
ATOM     15  O   UNL     1       2.027   2.559  16.847  0.00  0.00    +0.000 OA
BRANCH  14  16
ATOM     16  C   UNL     1       2.456   3.140  19.345  0.00  0.00    +0.000 A 
ATOM     17  C   UNL     1       3.421   2.659  20.227  0.00  0.00    +0.000 A 
ATOM     18  C   UNL     1       3.050   2.372  21.539  0.00  0.00    +0.000 A 
ATOM     19  C   UNL     1       1.726   2.563  21.907  0.00  0.00    +0.000 A 
ATOM     20  N   UNL     1       0.768   3.009  21.063  0.00  0.00    +0.000 NA
ATOM     21  C   UNL     1       1.152   3.278  19.790  0.00  0.00    +0.000 A 
ENDBRANCH  14  16
ENDBRANCH   1  14
TORSDOF 3
ENDMDL
