MODEL 1
REMARK VINA RESULT:      -7.2      0.000      0.000
REMARK  Name = 
REMARK  4 active torsions:
REMARK  status: ('A' for Active; 'I' for Inactive)
REMARK    1  A    between atoms: C_1  and  O_2
REMARK    2  A    between atoms: O_2  and  C_3
REMARK    3  A    between atoms: N_6  and  C_7
REMARK    4  A    between atoms: C_11  and  C_12
REMARK                            x       y       z     vdW  Elec       q    Type
REMARK                         _______ _______ _______ _____ _____    ______ ____
ROOT
ATOM      1  C   UNL     1       6.416   6.720  17.384  0.00  0.00    +0.000 A 
ATOM      2  C   UNL     1       5.034   6.775  16.876  0.00  0.00    +0.000 A 
ATOM      3  N   UNL     1       4.044   6.043  17.262  0.00  0.00    +0.000 NA
ATOM      4  N   UNL     1       4.281   5.114  18.253  0.00  0.00    +0.000 N 
ATOM      5  C   UNL     1       5.556   4.874  18.791  0.00  0.00    +0.000 A 
ATOM      6  O   UNL     1       5.838   3.985  19.596  0.00  0.00    +0.000 OA
ATOM      7  C   UNL     1       6.645   5.769  18.294  0.00  0.00    +0.000 A 
ATOM      8 CL   UNL     1       8.231   5.509  18.940  0.00  0.00    +0.000 Cl
ENDROOT
BRANCH   4   9
ATOM      9  C   UNL     1       3.122   4.355  18.627  0.00  0.00    +0.000 A 
ATOM     10  C   UNL     1       2.088   4.087  17.719  0.00  0.00    +0.000 A 
ATOM     11  C   UNL     1       0.943   3.393  18.112  0.00  0.00    +0.000 A 
ATOM     12  C   UNL     1       0.799   2.968  19.428  0.00  0.00    +0.000 A 
ATOM     13  C   UNL     1       1.813   3.209  20.357  0.00  0.00    +0.000 A 
ATOM     14  C   UNL     1       1.650   2.807  21.793  0.00  0.00    +0.000 C 
ATOM     15  C   UNL     1       2.982   3.866  19.939  0.00  0.00    +0.000 A 
ENDBRANCH   4   9
BRANCH   1  17
ATOM     16  C   UNL     1       7.743   8.649  17.734  0.00  0.00    +0.000 C 
ATOM     17  O   UNL     1       7.417   7.542  16.901  0.00  0.00    +0.000 OA
ENDBRANCH   1  17
TORSDOF 2
ENDMDL
MODEL 2
REMARK VINA RESULT:      -7.2      1.721      1.919
REMARK  Name = 
REMARK  4 active torsions:
REMARK  status: ('A' for Active; 'I' for Inactive)
REMARK    1  A    between atoms: C_1  and  O_2
REMARK    2  A    between atoms: O_2  and  C_3
REMARK    3  A    between atoms: N_6  and  C_7
REMARK    4  A    between atoms: C_11  and  C_12
REMARK                            x       y       z     vdW  Elec       q    Type
REMARK                         _______ _______ _______ _____ _____    ______ ____
ROOT
ATOM      1  C   UNL     1       6.542   5.136  16.070  0.00  0.00    +0.000 A 
ATOM      2  C   UNL     1       5.484   4.202  15.650  0.00  0.00    +0.000 A 
ATOM      3  N   UNL     1       4.476   3.815  16.356  0.00  0.00    +0.000 NA
ATOM      4  N   UNL     1       4.354   4.322  17.634  0.00  0.00    +0.000 N 
ATOM      5  C   UNL     1       5.317   5.160  18.220  0.00  0.00    +0.000 A 
ATOM      6  O   UNL     1       5.310   5.550  19.390  0.00  0.00    +0.000 OA
ATOM      7  C   UNL     1       6.449   5.564  17.332  0.00  0.00    +0.000 A 
ATOM      8 CL   UNL     1       7.652   6.605  18.017  0.00  0.00    +0.000 Cl
ENDROOT
BRANCH   4   9
ATOM      9  C   UNL     1       3.200   3.848  18.340  0.00  0.00    +0.000 A 
ATOM     10  C   UNL     1       1.929   3.825  17.749  0.00  0.00    +0.000 A 
ATOM     11  C   UNL     1       0.805   3.410  18.466  0.00  0.00    +0.000 A 
ATOM     12  C   UNL     1       0.926   3.030  19.798  0.00  0.00    +0.000 A 
ATOM     13  C   UNL     1       2.178   3.032  20.416  0.00  0.00    +0.000 A 
ATOM     14  C   UNL     1       2.318   2.678  21.867  0.00  0.00    +0.000 C 
ATOM     15  C   UNL     1       3.309   3.404  19.671  0.00  0.00    +0.000 A 
ENDBRANCH   4   9
BRANCH   1  17
ATOM     16  C   UNL     1       7.456   5.077  13.887  0.00  0.00    +0.000 C 
ATOM     17  O   UNL     1       7.593   5.486  15.243  0.00  0.00    +0.000 OA
ENDBRANCH   1  17
TORSDOF 2
ENDMDL
MODEL 3
REMARK VINA RESULT:      -7.1      0.892      1.469
REMARK  Name = 
REMARK  4 active torsions:
REMARK  status: ('A' for Active; 'I' for Inactive)
REMARK    1  A    between atoms: C_1  and  O_2
REMARK    2  A    between atoms: O_2  and  C_3
REMARK    3  A    between atoms: N_6  and  C_7
REMARK    4  A    between atoms: C_11  and  C_12
REMARK                            x       y       z     vdW  Elec       q    Type
REMARK                         _______ _______ _______ _____ _____    ______ ____
ROOT
ATOM      1  C   UNL     1       6.561   6.857  17.535  0.00  0.00    +0.000 A 
ATOM      2  C   UNL     1       5.169   7.032  17.087  0.00  0.00    +0.000 A 
ATOM      3  N   UNL     1       4.126   6.451  17.577  0.00  0.00    +0.000 NA
ATOM      4  N   UNL     1       4.311   5.581  18.631  0.00  0.00    +0.000 N 
ATOM      5  C   UNL     1       5.579   5.238  19.128  0.00  0.00    +0.000 A 
ATOM      6  O   UNL     1       5.804   4.388  19.992  0.00  0.00    +0.000 OA
ATOM      7  C   UNL     1       6.732   5.960  18.509  0.00  0.00    +0.000 A 
ATOM      8 CL   UNL     1       8.313   5.570  19.103  0.00  0.00    +0.000 Cl
ENDROOT
BRANCH   4   9
ATOM      9  C   UNL     1       3.098   4.992  19.119  0.00  0.00    +0.000 A 
ATOM     10  C   UNL     1       2.376   5.557  20.181  0.00  0.00    +0.000 A 
ATOM     11  C   UNL     1       1.225   4.944  20.679  0.00  0.00    +0.000 A 
ATOM     12  C   UNL     1       0.783   3.741  20.139  0.00  0.00    +0.000 A 
ATOM     13  C   UNL     1       1.472   3.155  19.076  0.00  0.00    +0.000 A 
ATOM     14  C   UNL     1       1.040   1.831  18.517  0.00  0.00    +0.000 C 
ATOM     15  C   UNL     1       2.600   3.805  18.550  0.00  0.00    +0.000 A 
ENDBRANCH   4   9
BRANCH   1  17
ATOM     16  C   UNL     1       8.047   8.699  17.610  0.00  0.00    +0.000 C 
ATOM     17  O   UNL     1       7.620   7.518  16.940  0.00  0.00    +0.000 OA
ENDBRANCH   1  17
TORSDOF 2
ENDMDL
MODEL 4
REMARK VINA RESULT:      -7.0      3.056      6.087
REMARK  Name = 
REMARK  4 active torsions:
REMARK  status: ('A' for Active; 'I' for Inactive)
REMARK    1  A    between atoms: C_1  and  O_2
REMARK    2  A    between atoms: O_2  and  C_3
REMARK    3  A    between atoms: N_6  and  C_7
REMARK    4  A    between atoms: C_11  and  C_12
REMARK                            x       y       z     vdW  Elec       q    Type
REMARK                         _______ _______ _______ _____ _____    ______ ____
ROOT
ATOM      1  C   UNL     1       2.049   3.268  19.772  0.00  0.00    +0.000 A 
ATOM      2  C   UNL     1       2.743   2.332  18.872  0.00  0.00    +0.000 A 
ATOM      3  N   UNL     1       3.692   2.620  18.046  0.00  0.00    +0.000 NA
ATOM      4  N   UNL     1       4.118   3.931  17.991  0.00  0.00    +0.000 N 
ATOM      5  C   UNL     1       3.511   4.966  18.721  0.00  0.00    +0.000 A 
ATOM      6  O   UNL     1       3.782   6.165  18.625  0.00  0.00    +0.000 OA
ATOM      7  C   UNL     1       2.425   4.545  19.657  0.00  0.00    +0.000 A 
ATOM      8 CL   UNL     1       1.658   5.793  20.582  0.00  0.00    +0.000 Cl
ENDROOT
BRANCH   4   9
ATOM      9  C   UNL     1       5.183   4.158  17.057  0.00  0.00    +0.000 A 
ATOM     10  C   UNL     1       6.402   4.729  17.448  0.00  0.00    +0.000 A 
ATOM     11  C   UNL     1       7.409   4.991  16.518  0.00  0.00    +0.000 A 
ATOM     12  C   UNL     1       7.210   4.706  15.171  0.00  0.00    +0.000 A 
ATOM     13  C   UNL     1       6.012   4.129  14.748  0.00  0.00    +0.000 A 
ATOM     14  C   UNL     1       5.758   3.866  13.292  0.00  0.00    +0.000 C 
ATOM     15  C   UNL     1       5.024   3.824  15.699  0.00  0.00    +0.000 A 
ENDBRANCH   4   9
BRANCH   1  17
ATOM     16  C   UNL     1       1.451   2.487  21.926  0.00  0.00    +0.000 C 
ATOM     17  O   UNL     1       1.033   2.867  20.619  0.00  0.00    +0.000 OA
ENDBRANCH   1  17
TORSDOF 2
ENDMDL
MODEL 5
REMARK VINA RESULT:      -6.9      0.920      1.002
REMARK  Name = 
REMARK  4 active torsions:
REMARK  status: ('A' for Active; 'I' for Inactive)
REMARK    1  A    between atoms: C_1  and  O_2
REMARK    2  A    between atoms: O_2  and  C_3
REMARK    3  A    between atoms: N_6  and  C_7
REMARK    4  A    between atoms: C_11  and  C_12
REMARK                            x       y       z     vdW  Elec       q    Type
REMARK                         _______ _______ _______ _____ _____    ______ ____
ROOT
ATOM      1  C   UNL     1       6.812   6.896  17.306  0.00  0.00    +0.000 A 
ATOM      2  C   UNL     1       5.575   6.703  16.531  0.00  0.00    +0.000 A 
ATOM      3  N   UNL     1       4.623   5.875  16.798  0.00  0.00    +0.000 NA
ATOM      4  N   UNL     1       4.754   5.085  17.921  0.00  0.00    +0.000 N 
ATOM      5  C   UNL     1       5.905   5.083  18.726  0.00  0.00    +0.000 A 
ATOM      6  O   UNL     1       6.115   4.322  19.673  0.00  0.00    +0.000 OA
ATOM      7  C   UNL     1       6.956   6.076  18.351  0.00  0.00    +0.000 A 
ATOM      8 CL   UNL     1       8.388   6.110  19.327  0.00  0.00    +0.000 Cl
ENDROOT
BRANCH   4   9
ATOM      9  C   UNL     1       3.644   4.205  18.146  0.00  0.00    +0.000 A 
ATOM     10  C   UNL     1       3.386   3.111  17.307  0.00  0.00    +0.000 A 
ATOM     11  C   UNL     1       2.272   2.294  17.508  0.00  0.00    +0.000 A 
ATOM     12  C   UNL     1       1.381   2.566  18.541  0.00  0.00    +0.000 A 
ATOM     13  C   UNL     1       1.613   3.641  19.400  0.00  0.00    +0.000 A 
ATOM     14  C   UNL     1       0.633   3.981  20.485  0.00  0.00    +0.000 C 
ATOM     15  C   UNL     1       2.762   4.427  19.219  0.00  0.00    +0.000 A 
ENDBRANCH   4   9
BRANCH   1  17
ATOM     16  C   UNL     1       7.813   9.005  17.703  0.00  0.00    +0.000 C 
ATOM     17  O   UNL     1       7.785   7.806  16.936  0.00  0.00    +0.000 OA
ENDBRANCH   1  17
TORSDOF 2
ENDMDL
MODEL 6
REMARK VINA RESULT:      -6.8      2.181      2.408
REMARK  Name = 
REMARK  4 active torsions:
REMARK  status: ('A' for Active; 'I' for Inactive)
REMARK    1  A    between atoms: C_1  and  O_2
REMARK    2  A    between atoms: O_2  and  C_3
REMARK    3  A    between atoms: N_6  and  C_7
REMARK    4  A    between atoms: C_11  and  C_12
REMARK                            x       y       z     vdW  Elec       q    Type
REMARK                         _______ _______ _______ _____ _____    ______ ____
ROOT
ATOM      1  C   UNL     1       6.841   5.171  15.651  0.00  0.00    +0.000 A 
ATOM      2  C   UNL     1       5.950   4.041  15.339  0.00  0.00    +0.000 A 
ATOM      3  N   UNL     1       5.036   3.548  16.105  0.00  0.00    +0.000 NA
ATOM      4  N   UNL     1       4.854   4.130  17.343  0.00  0.00    +0.000 N 
ATOM      5  C   UNL     1       5.669   5.164  17.831  0.00  0.00    +0.000 A 
ATOM      6  O   UNL     1       5.617   5.641  18.966  0.00  0.00    +0.000 OA
ATOM      7  C   UNL     1       6.699   5.679  16.879  0.00  0.00    +0.000 A 
ATOM      8 CL   UNL     1       7.719   6.961  17.443  0.00  0.00    +0.000 Cl
ENDROOT
BRANCH   4   9
ATOM      9  C   UNL     1       3.810   3.528  18.120  0.00  0.00    +0.000 A 
ATOM     10  C   UNL     1       3.520   2.158  18.035  0.00  0.00    +0.000 A 
ATOM     11  C   UNL     1       2.467   1.596  18.758  0.00  0.00    +0.000 A 
ATOM     12  C   UNL     1       1.667   2.396  19.567  0.00  0.00    +0.000 A 
ATOM     13  C   UNL     1       1.933   3.762  19.683  0.00  0.00    +0.000 A 
ATOM     14  C   UNL     1       1.048   4.649  20.507  0.00  0.00    +0.000 C 
ATOM     15  C   UNL     1       3.025   4.308  18.988  0.00  0.00    +0.000 A 
ENDBRANCH   4   9
BRANCH   1  17
ATOM     16  C   UNL     1       7.666   5.149  13.432  0.00  0.00    +0.000 C 
ATOM     17  O   UNL     1       7.802   5.624  14.767  0.00  0.00    +0.000 OA
ENDBRANCH   1  17
TORSDOF 2
ENDMDL
MODEL 7
REMARK VINA RESULT:      -6.8      1.592      1.651
REMARK  Name = 
REMARK  4 active torsions:
REMARK  status: ('A' for Active; 'I' for Inactive)
REMARK    1  A    between atoms: C_1  and  O_2
REMARK    2  A    between atoms: O_2  and  C_3
REMARK    3  A    between atoms: N_6  and  C_7
REMARK    4  A    between atoms: C_11  and  C_12
REMARK                            x       y       z     vdW  Elec       q    Type
REMARK                         _______ _______ _______ _____ _____    ______ ____
ROOT
ATOM      1  C   UNL     1       6.626   6.250  17.108  0.00  0.00    +0.000 A 
ATOM      2  C   UNL     1       5.747   6.594  18.238  0.00  0.00    +0.000 A 
ATOM      3  N   UNL     1       4.712   5.935  18.635  0.00  0.00    +0.000 NA
ATOM      4  N   UNL     1       4.382   4.783  17.950  0.00  0.00    +0.000 N 
ATOM      5  C   UNL     1       5.065   4.354  16.800  0.00  0.00    +0.000 A 
ATOM      6  O   UNL     1       4.744   3.397  16.093  0.00  0.00    +0.000 OA
ATOM      7  C   UNL     1       6.254   5.171  16.412  0.00  0.00    +0.000 A 
ATOM      8 CL   UNL     1       7.127   4.668  15.003  0.00  0.00    +0.000 Cl
ENDROOT
BRANCH   4   9
ATOM      9  C   UNL     1       3.227   4.109  18.469  0.00  0.00    +0.000 A 
ATOM     10  C   UNL     1       2.070   3.926  17.698  0.00  0.00    +0.000 A 
ATOM     11  C   UNL     1       0.935   3.314  18.233  0.00  0.00    +0.000 A 
ATOM     12  C   UNL     1       0.927   2.890  19.558  0.00  0.00    +0.000 A 
ATOM     13  C   UNL     1       2.064   3.049  20.351  0.00  0.00    +0.000 A 
ATOM     14  C   UNL     1       2.055   2.648  21.797  0.00  0.00    +0.000 C 
ATOM     15  C   UNL     1       3.217   3.621  19.788  0.00  0.00    +0.000 A 
ENDBRANCH   4   9
BRANCH   1  17
ATOM     16  C   UNL     1       7.923   8.178  17.558  0.00  0.00    +0.000 C 
ATOM     17  O   UNL     1       7.712   7.027  16.749  0.00  0.00    +0.000 OA
ENDBRANCH   1  17
TORSDOF 2
ENDMDL
MODEL 8
REMARK VINA RESULT:      -6.7      1.905      2.291
REMARK  Name = 
REMARK  4 active torsions:
REMARK  status: ('A' for Active; 'I' for Inactive)
REMARK    1  A    between atoms: C_1  and  O_2
REMARK    2  A    between atoms: O_2  and  C_3
REMARK    3  A    between atoms: N_6  and  C_7
REMARK    4  A    between atoms: C_11  and  C_12
REMARK                            x       y       z     vdW  Elec       q    Type
REMARK                         _______ _______ _______ _____ _____    ______ ____
ROOT
ATOM      1  C   UNL     1       6.591   4.843  16.268  0.00  0.00    +0.000 A 
ATOM      2  C   UNL     1       5.157   5.006  15.971  0.00  0.00    +0.000 A 
ATOM      3  N   UNL     1       4.200   5.094  16.831  0.00  0.00    +0.000 NA
ATOM      4  N   UNL     1       4.530   5.040  18.169  0.00  0.00    +0.000 N 
ATOM      5  C   UNL     1       5.838   4.807  18.626  0.00  0.00    +0.000 A 
ATOM      6  O   UNL     1       6.166   4.642  19.802  0.00  0.00    +0.000 OA
ATOM      7  C   UNL     1       6.887   4.723  17.565  0.00  0.00    +0.000 A 
ATOM      8 CL   UNL     1       8.515   4.444  18.091  0.00  0.00    +0.000 Cl
ENDROOT
BRANCH   4   9
ATOM      9  C   UNL     1       3.406   5.158  19.051  0.00  0.00    +0.000 A 
ATOM     10  C   UNL     1       2.873   6.405  19.407  0.00  0.00    +0.000 A 
ATOM     11  C   UNL     1       1.812   6.507  20.308  0.00  0.00    +0.000 A 
ATOM     12  C   UNL     1       1.274   5.363  20.889  0.00  0.00    +0.000 A 
ATOM     13  C   UNL     1       1.774   4.105  20.550  0.00  0.00    +0.000 A 
ATOM     14  C   UNL     1       1.244   2.865  21.208  0.00  0.00    +0.000 C 
ATOM     15  C   UNL     1       2.810   4.011  19.606  0.00  0.00    +0.000 A 
ENDBRANCH   4   9
BRANCH   1  17
ATOM     16  C   UNL     1       7.042   4.773  13.945  0.00  0.00    +0.000 C 
ATOM     17  O   UNL     1       7.548   4.748  15.275  0.00  0.00    +0.000 OA
ENDBRANCH   1  17
TORSDOF 2
ENDMDL
MODEL 9
REMARK VINA RESULT:      -6.7      1.641      2.182
REMARK  Name = 
REMARK  4 active torsions:
REMARK  status: ('A' for Active; 'I' for Inactive)
REMARK    1  A    between atoms: C_1  and  O_2
REMARK    2  A    between atoms: O_2  and  C_3
REMARK    3  A    between atoms: N_6  and  C_7
REMARK    4  A    between atoms: C_11  and  C_12
REMARK                            x       y       z     vdW  Elec       q    Type
REMARK                         _______ _______ _______ _____ _____    ______ ____
ROOT
ATOM      1  C   UNL     1       6.499   5.451  16.293  0.00  0.00    +0.000 A 
ATOM      2  C   UNL     1       5.229   4.818  15.898  0.00  0.00    +0.000 A 
ATOM      3  N   UNL     1       4.220   4.577  16.664  0.00  0.00    +0.000 NA
ATOM      4  N   UNL     1       4.316   4.947  17.989  0.00  0.00    +0.000 N 
ATOM      5  C   UNL     1       5.485   5.488  18.550  0.00  0.00    +0.000 A 
ATOM      6  O   UNL     1       5.658   5.733  19.746  0.00  0.00    +0.000 OA
ATOM      7  C   UNL     1       6.604   5.741  17.593  0.00  0.00    +0.000 A 
ATOM      8 CL   UNL     1       8.060   6.415  18.246  0.00  0.00    +0.000 Cl
ENDROOT
BRANCH   4   9
ATOM      9  C   UNL     1       3.145   4.653  18.763  0.00  0.00    +0.000 A 
ATOM     10  C   UNL     1       2.783   5.420  19.879  0.00  0.00    +0.000 A 
ATOM     11  C   UNL     1       1.670   5.090  20.653  0.00  0.00    +0.000 A 
ATOM     12  C   UNL     1       0.905   3.971  20.338  0.00  0.00    +0.000 A 
ATOM     13  C   UNL     1       1.231   3.190  19.228  0.00  0.00    +0.000 A 
ATOM     14  C   UNL     1       0.450   1.950  18.906  0.00  0.00    +0.000 C 
ATOM     15  C   UNL     1       2.325   3.560  18.428  0.00  0.00    +0.000 A 
ENDBRANCH   4   9
BRANCH   1  17
ATOM     16  C   UNL     1       7.326   5.119  14.099  0.00  0.00    +0.000 C 
ATOM     17  O   UNL     1       7.532   5.661  15.399  0.00  0.00    +0.000 OA
ENDBRANCH   1  17
TORSDOF 2
ENDMDL
