MODEL 1
REMARK VINA RESULT:      -6.4      0.000      0.000
REMARK  Name = 
REMARK  5 active torsions:
REMARK  status: ('A' for Active; 'I' for Inactive)
REMARK    1  A    between atoms: C_2  and  C_3
REMARK    2  A    between atoms: C_3  and  C_4
REMARK    3  A    between atoms: C_4  and  C_5
REMARK    4  A    between atoms: C_8  and  C_9
REMARK    5  A    between atoms: C_12  and  C_13
REMARK                            x       y       z     vdW  Elec       q    Type
REMARK                         _______ _______ _______ _____ _____    ______ ____
ROOT
ATOM      1  C   UNL     1       2.542   7.479  18.465  0.00  0.00    +0.000 A 
ATOM      2  C   UNL     1       2.181   8.652  17.830  0.00  0.00    +0.000 A 
ATOM      3  C   UNL     1       1.411   9.516  18.665  0.00  0.00    +0.000 A 
ATOM      4  C   UNL     1       1.203   8.990  19.925  0.00  0.00    +0.000 A 
ATOM      5  S   UNL     1       1.936   7.445  20.068  0.00  0.00    +0.000 S 
ENDROOT
BRANCH   1   9
ATOM      6  C   UNL     1       5.150   5.022  16.948  0.00  0.00    +0.000 A 
ATOM      7  C   UNL     1       4.072   4.258  17.343  0.00  0.00    +0.000 A 
ATOM      8  C   UNL     1       3.031   5.050  17.916  0.00  0.00    +0.000 A 
ATOM      9  C   UNL     1       3.333   6.397  17.933  0.00  0.00    +0.000 A 
ATOM     10  S   UNL     1       4.865   6.687  17.215  0.00  0.00    +0.000 S 
BRANCH   6  11
ATOM     11  C   UNL     1       6.444   4.557  16.346  0.00  0.00    +0.000 C 
BRANCH  11  12
ATOM     12  C   UNL     1       6.257   3.637  15.136  0.00  0.00    +0.000 C 
BRANCH  12  14
ATOM     13 BR   UNL     1       6.000   3.325  12.319  0.00  0.00    +0.000 Br
ATOM     14  C   UNL     1       5.663   4.358  13.936  0.00  0.00    +0.000 C 
ENDBRANCH  12  14
ENDBRANCH  11  12
ENDBRANCH   6  11
ENDBRANCH   1   9
BRANCH   4  15
ATOM     15  C   UNL     1       0.476   9.584  21.022  0.00  0.00    +0.000 A 
ATOM     16  C   UNL     1       0.360   9.111  22.317  0.00  0.00    +0.000 A 
ATOM     17  C   UNL     1      -0.455   9.945  23.137  0.00  0.00    +0.000 A 
ATOM     18  C   UNL     1      -0.937  11.032  22.447  0.00  0.00    +0.000 A 
ATOM     19  S   UNL     1      -0.398  11.051  20.826  0.00  0.00    +0.000 S 
ENDBRANCH   4  15
TORSDOF 5
ENDMDL
MODEL 2
REMARK VINA RESULT:      -6.1      2.686      3.164
REMARK  Name = 
REMARK  5 active torsions:
REMARK  status: ('A' for Active; 'I' for Inactive)
REMARK    1  A    between atoms: C_2  and  C_3
REMARK    2  A    between atoms: C_3  and  C_4
REMARK    3  A    between atoms: C_4  and  C_5
REMARK    4  A    between atoms: C_8  and  C_9
REMARK    5  A    between atoms: C_12  and  C_13
REMARK                            x       y       z     vdW  Elec       q    Type
REMARK                         _______ _______ _______ _____ _____    ______ ____
ROOT
ATOM      1  C   UNL     1       2.155   7.834  18.676  0.00  0.00    +0.000 A 
ATOM      2  C   UNL     1       1.832   8.960  17.943  0.00  0.00    +0.000 A 
ATOM      3  C   UNL     1       1.115   9.928  18.707  0.00  0.00    +0.000 A 
ATOM      4  C   UNL     1       0.910   9.527  20.013  0.00  0.00    +0.000 A 
ATOM      5  S   UNL     1       1.579   7.972  20.285  0.00  0.00    +0.000 S 
ENDROOT
BRANCH   1   9
ATOM      6  C   UNL     1       3.561   4.381  17.565  0.00  0.00    +0.000 A 
ATOM      7  C   UNL     1       4.566   5.301  17.353  0.00  0.00    +0.000 A 
ATOM      8  C   UNL     1       4.175   6.621  17.732  0.00  0.00    +0.000 A 
ATOM      9  C   UNL     1       2.890   6.675  18.234  0.00  0.00    +0.000 A 
ATOM     10  S   UNL     1       2.187   5.110  18.276  0.00  0.00    +0.000 S 
BRANCH   6  11
ATOM     11  C   UNL     1       3.572   2.911  17.258  0.00  0.00    +0.000 C 
BRANCH  11  12
ATOM     12  C   UNL     1       3.150   2.038  18.445  0.00  0.00    +0.000 C 
BRANCH  12  14
ATOM     13 BR   UNL     1       2.666   2.744  21.159  0.00  0.00    +0.000 Br
ATOM     14  C   UNL     1       3.919   2.365  19.715  0.00  0.00    +0.000 C 
ENDBRANCH  12  14
ENDBRANCH  11  12
ENDBRANCH   6  11
ENDBRANCH   1   9
BRANCH   4  15
ATOM     15  C   UNL     1       0.229  10.250  21.062  0.00  0.00    +0.000 A 
ATOM     16  C   UNL     1      -0.285   9.744  22.243  0.00  0.00    +0.000 A 
ATOM     17  C   UNL     1      -0.912  10.744  23.043  0.00  0.00    +0.000 A 
ATOM     18  C   UNL     1      -0.859  11.984  22.452  0.00  0.00    +0.000 A 
ATOM     19  S   UNL     1      -0.045  11.942  20.951  0.00  0.00    +0.000 S 
ENDBRANCH   4  15
TORSDOF 5
ENDMDL
MODEL 3
REMARK VINA RESULT:      -6.1      2.654      3.158
REMARK  Name = 
REMARK  5 active torsions:
REMARK  status: ('A' for Active; 'I' for Inactive)
REMARK    1  A    between atoms: C_2  and  C_3
REMARK    2  A    between atoms: C_3  and  C_4
REMARK    3  A    between atoms: C_4  and  C_5
REMARK    4  A    between atoms: C_8  and  C_9
REMARK    5  A    between atoms: C_12  and  C_13
REMARK                            x       y       z     vdW  Elec       q    Type
REMARK                         _______ _______ _______ _____ _____    ______ ____
ROOT
ATOM      1  C   UNL     1       2.177   8.222  18.531  0.00  0.00    +0.000 A 
ATOM      2  C   UNL     1       1.831   9.387  17.872  0.00  0.00    +0.000 A 
ATOM      3  C   UNL     1       1.038  10.260  18.675  0.00  0.00    +0.000 A 
ATOM      4  C   UNL     1       0.798   9.749  19.936  0.00  0.00    +0.000 A 
ATOM      5  S   UNL     1       1.528   8.208  20.118  0.00  0.00    +0.000 S 
ENDROOT
BRANCH   1   9
ATOM      6  C   UNL     1       3.840   4.901  17.373  0.00  0.00    +0.000 A 
ATOM      7  C   UNL     1       4.678   5.921  16.974  0.00  0.00    +0.000 A 
ATOM      8  C   UNL     1       4.180   7.205  17.349  0.00  0.00    +0.000 A 
ATOM      9  C   UNL     1       2.983   7.134  18.034  0.00  0.00    +0.000 A 
ATOM     10  S   UNL     1       2.500   5.502  18.249  0.00  0.00    +0.000 S 
BRANCH   6  11
ATOM     11  C   UNL     1       3.995   3.427  17.132  0.00  0.00    +0.000 C 
BRANCH  11  12
ATOM     12  C   UNL     1       2.771   2.610  17.555  0.00  0.00    +0.000 C 
BRANCH  12  14
ATOM     13 BR   UNL     1       1.754   2.441  20.208  0.00  0.00    +0.000 Br
ATOM     14  C   UNL     1       3.001   1.830  18.841  0.00  0.00    +0.000 C 
ENDBRANCH  12  14
ENDBRANCH  11  12
ENDBRANCH   6  11
ENDBRANCH   1   9
BRANCH   4  15
ATOM     15  C   UNL     1       0.042  10.356  21.006  0.00  0.00    +0.000 A 
ATOM     16  C   UNL     1      -0.526  11.618  21.033  0.00  0.00    +0.000 A 
ATOM     17  C   UNL     1      -1.188  11.898  22.264  0.00  0.00    +0.000 A 
ATOM     18  C   UNL     1      -1.110  10.842  23.141  0.00  0.00    +0.000 A 
ATOM     19  S   UNL     1      -0.256   9.520  22.478  0.00  0.00    +0.000 S 
ENDBRANCH   4  15
TORSDOF 5
ENDMDL
MODEL 4
REMARK VINA RESULT:      -6.1      0.986      1.206
REMARK  Name = 
REMARK  5 active torsions:
REMARK  status: ('A' for Active; 'I' for Inactive)
REMARK    1  A    between atoms: C_2  and  C_3
REMARK    2  A    between atoms: C_3  and  C_4
REMARK    3  A    between atoms: C_4  and  C_5
REMARK    4  A    between atoms: C_8  and  C_9
REMARK    5  A    between atoms: C_12  and  C_13
REMARK                            x       y       z     vdW  Elec       q    Type
REMARK                         _______ _______ _______ _____ _____    ______ ____
ROOT
ATOM      1  C   UNL     1       2.330   7.567  18.474  0.00  0.00    +0.000 A 
ATOM      2  C   UNL     1       2.089   8.725  17.760  0.00  0.00    +0.000 A 
ATOM      3  C   UNL     1       1.397   9.711  18.525  0.00  0.00    +0.000 A 
ATOM      4  C   UNL     1       1.129   9.290  19.813  0.00  0.00    +0.000 A 
ATOM      5  S   UNL     1       1.708   7.696  20.067  0.00  0.00    +0.000 S 
ENDROOT
BRANCH   1   9
ATOM      6  C   UNL     1       4.655   4.793  17.048  0.00  0.00    +0.000 A 
ATOM      7  C   UNL     1       3.624   4.147  17.697  0.00  0.00    +0.000 A 
ATOM      8  C   UNL     1       2.687   5.062  18.264  0.00  0.00    +0.000 A 
ATOM      9  C   UNL     1       3.018   6.382  18.026  0.00  0.00    +0.000 A 
ATOM     10  S   UNL     1       4.445   6.490  17.078  0.00  0.00    +0.000 S 
BRANCH   6  11
ATOM     11  C   UNL     1       5.846   4.184  16.366  0.00  0.00    +0.000 C 
BRANCH  11  12
ATOM     12  C   UNL     1       6.840   5.222  15.835  0.00  0.00    +0.000 C 
BRANCH  12  14
ATOM     13 BR   UNL     1       5.928   3.806  13.540  0.00  0.00    +0.000 Br
ATOM     14  C   UNL     1       7.246   4.961  14.393  0.00  0.00    +0.000 C 
ENDBRANCH  12  14
ENDBRANCH  11  12
ENDBRANCH   6  11
ENDBRANCH   1   9
BRANCH   4  15
ATOM     15  C   UNL     1       0.452  10.021  20.858  0.00  0.00    +0.000 A 
ATOM     16  C   UNL     1       0.237  11.386  20.935  0.00  0.00    +0.000 A 
ATOM     17  C   UNL     1      -0.453  11.770  22.123  0.00  0.00    +0.000 A 
ATOM     18  C   UNL     1      -0.747  10.687  22.918  0.00  0.00    +0.000 A 
ATOM     19  S   UNL     1      -0.206   9.221  22.229  0.00  0.00    +0.000 S 
ENDBRANCH   4  15
TORSDOF 5
ENDMDL
MODEL 5
REMARK VINA RESULT:      -6.1      2.579      3.065
REMARK  Name = 
REMARK  5 active torsions:
REMARK  status: ('A' for Active; 'I' for Inactive)
REMARK    1  A    between atoms: C_2  and  C_3
REMARK    2  A    between atoms: C_3  and  C_4
REMARK    3  A    between atoms: C_4  and  C_5
REMARK    4  A    between atoms: C_8  and  C_9
REMARK    5  A    between atoms: C_12  and  C_13
REMARK                            x       y       z     vdW  Elec       q    Type
REMARK                         _______ _______ _______ _____ _____    ______ ____
ROOT
ATOM      1  C   UNL     1       2.217   7.528  18.765  0.00  0.00    +0.000 A 
ATOM      2  C   UNL     1       1.848   7.693  20.086  0.00  0.00    +0.000 A 
ATOM      3  C   UNL     1       1.243   8.961  20.335  0.00  0.00    +0.000 A 
ATOM      4  C   UNL     1       1.154   9.738  19.197  0.00  0.00    +0.000 A 
ATOM      5  S   UNL     1       1.823   8.920  17.846  0.00  0.00    +0.000 S 
ENDROOT
BRANCH   1   9
ATOM      6  C   UNL     1       4.393   4.812  17.025  0.00  0.00    +0.000 A 
ATOM      7  C   UNL     1       3.258   4.175  17.479  0.00  0.00    +0.000 A 
ATOM      8  C   UNL     1       2.364   5.072  18.138  0.00  0.00    +0.000 A 
ATOM      9  C   UNL     1       2.831   6.372  18.159  0.00  0.00    +0.000 A 
ATOM     10  S   UNL     1       4.335   6.491  17.342  0.00  0.00    +0.000 S 
BRANCH   6  11
ATOM     11  C   UNL     1       5.577   4.208  16.326  0.00  0.00    +0.000 C 
BRANCH  11  12
ATOM     12  C   UNL     1       6.865   5.021  16.498  0.00  0.00    +0.000 C 
BRANCH  12  14
ATOM     13 BR   UNL     1       7.751   5.876  19.064  0.00  0.00    +0.000 Br
ATOM     14  C   UNL     1       7.718   4.529  17.657  0.00  0.00    +0.000 C 
ENDBRANCH  12  14
ENDBRANCH  11  12
ENDBRANCH   6  11
ENDBRANCH   1   9
BRANCH   4  15
ATOM     15  C   UNL     1       0.600  11.067  19.075  0.00  0.00    +0.000 A 
ATOM     16  C   UNL     1      -0.735  11.428  19.032  0.00  0.00    +0.000 A 
ATOM     17  C   UNL     1      -0.921  12.834  18.887  0.00  0.00    +0.000 A 
ATOM     18  C   UNL     1       0.277  13.507  18.825  0.00  0.00    +0.000 A 
ATOM     19  S   UNL     1       1.612  12.451  18.955  0.00  0.00    +0.000 S 
ENDBRANCH   4  15
TORSDOF 5
ENDMDL
MODEL 6
REMARK VINA RESULT:      -6.0      2.565      2.943
REMARK  Name = 
REMARK  5 active torsions:
REMARK  status: ('A' for Active; 'I' for Inactive)
REMARK    1  A    between atoms: C_2  and  C_3
REMARK    2  A    between atoms: C_3  and  C_4
REMARK    3  A    between atoms: C_4  and  C_5
REMARK    4  A    between atoms: C_8  and  C_9
REMARK    5  A    between atoms: C_12  and  C_13
REMARK                            x       y       z     vdW  Elec       q    Type
REMARK                         _______ _______ _______ _____ _____    ______ ____
ROOT
ATOM      1  C   UNL     1       1.952   8.344  18.701  0.00  0.00    +0.000 A 
ATOM      2  C   UNL     1       1.387   9.360  17.954  0.00  0.00    +0.000 A 
ATOM      3  C   UNL     1       0.549  10.215  18.731  0.00  0.00    +0.000 A 
ATOM      4  C   UNL     1       0.496   9.840  20.060  0.00  0.00    +0.000 A 
ATOM      5  S   UNL     1       1.452   8.444  20.337  0.00  0.00    +0.000 S 
ENDROOT
BRANCH   1   9
ATOM      6  C   UNL     1       4.000   5.158  17.811  0.00  0.00    +0.000 A 
ATOM      7  C   UNL     1       4.571   6.201  17.113  0.00  0.00    +0.000 A 
ATOM      8  C   UNL     1       3.909   7.441  17.360  0.00  0.00    +0.000 A 
ATOM      9  C   UNL     1       2.859   7.318  18.249  0.00  0.00    +0.000 A 
ATOM     10  S   UNL     1       2.717   5.701  18.803  0.00  0.00    +0.000 S 
BRANCH   6  11
ATOM     11  C   UNL     1       4.382   3.706  17.785  0.00  0.00    +0.000 C 
BRANCH  11  12
ATOM     12  C   UNL     1       3.224   2.779  17.403  0.00  0.00    +0.000 C 
BRANCH  12  14
ATOM     13 BR   UNL     1       0.886   2.340  18.965  0.00  0.00    +0.000 Br
ATOM     14  C   UNL     1       2.748   1.925  18.567  0.00  0.00    +0.000 C 
ENDBRANCH  12  14
ENDBRANCH  11  12
ENDBRANCH   6  11
ENDBRANCH   1   9
BRANCH   4  15
ATOM     15  C   UNL     1      -0.244  10.472  21.126  0.00  0.00    +0.000 A 
ATOM     16  C   UNL     1      -0.450  10.000  22.411  0.00  0.00    +0.000 A 
ATOM     17  C   UNL     1      -1.249  10.878  23.199  0.00  0.00    +0.000 A 
ATOM     18  C   UNL     1      -1.631  11.996  22.496  0.00  0.00    +0.000 A 
ATOM     19  S   UNL     1      -1.016  11.991  20.903  0.00  0.00    +0.000 S 
ENDBRANCH   4  15
TORSDOF 5
ENDMDL
MODEL 7
REMARK VINA RESULT:      -6.0      4.365      9.257
REMARK  Name = 
REMARK  5 active torsions:
REMARK  status: ('A' for Active; 'I' for Inactive)
REMARK    1  A    between atoms: C_2  and  C_3
REMARK    2  A    between atoms: C_3  and  C_4
REMARK    3  A    between atoms: C_4  and  C_5
REMARK    4  A    between atoms: C_8  and  C_9
REMARK    5  A    between atoms: C_12  and  C_13
REMARK                            x       y       z     vdW  Elec       q    Type
REMARK                         _______ _______ _______ _____ _____    ______ ____
ROOT
ATOM      1  C   UNL     1       1.161   9.078  19.922  0.00  0.00    +0.000 A 
ATOM      2  C   UNL     1       1.350   9.602  18.657  0.00  0.00    +0.000 A 
ATOM      3  C   UNL     1       2.082   8.726  17.801  0.00  0.00    +0.000 A 
ATOM      4  C   UNL     1       2.434   7.545  18.426  0.00  0.00    +0.000 A 
ATOM      5  S   UNL     1       1.881   7.527  20.050  0.00  0.00    +0.000 S 
ENDROOT
BRANCH   1   9
ATOM      6  C   UNL     1      -0.930  11.156  22.460  0.00  0.00    +0.000 A 
ATOM      7  C   UNL     1      -0.532  10.013  23.121  0.00  0.00    +0.000 A 
ATOM      8  C   UNL     1       0.258   9.160  22.293  0.00  0.00    +0.000 A 
ATOM      9  C   UNL     1       0.453   9.676  21.027  0.00  0.00    +0.000 A 
ATOM     10  S   UNL     1      -0.295  11.213  20.874  0.00  0.00    +0.000 S 
BRANCH   6  11
ATOM     11  C   UNL     1      -1.798  12.268  22.974  0.00  0.00    +0.000 C 
BRANCH  11  12
ATOM     12  C   UNL     1      -2.854  12.732  21.966  0.00  0.00    +0.000 C 
BRANCH  12  14
ATOM     13 BR   UNL     1      -4.185  12.579  24.478  0.00  0.00    +0.000 Br
ATOM     14  C   UNL     1      -4.133  13.211  22.635  0.00  0.00    +0.000 C 
ENDBRANCH  12  14
ENDBRANCH  11  12
ENDBRANCH   6  11
ENDBRANCH   1   9
BRANCH   4  15
ATOM     15  C   UNL     1       3.171   6.436  17.868  0.00  0.00    +0.000 A 
ATOM     16  C   UNL     1       2.835   5.094  17.898  0.00  0.00    +0.000 A 
ATOM     17  C   UNL     1       3.807   4.267  17.263  0.00  0.00    +0.000 A 
ATOM     18  C   UNL     1       4.858   5.001  16.764  0.00  0.00    +0.000 A 
ATOM     19  S   UNL     1       4.663   6.674  17.049  0.00  0.00    +0.000 S 
ENDBRANCH   4  15
TORSDOF 5
ENDMDL
MODEL 8
REMARK VINA RESULT:      -6.0      2.608      4.683
REMARK  Name = 
REMARK  5 active torsions:
REMARK  status: ('A' for Active; 'I' for Inactive)
REMARK    1  A    between atoms: C_2  and  C_3
REMARK    2  A    between atoms: C_3  and  C_4
REMARK    3  A    between atoms: C_4  and  C_5
REMARK    4  A    between atoms: C_8  and  C_9
REMARK    5  A    between atoms: C_12  and  C_13
REMARK                            x       y       z     vdW  Elec       q    Type
REMARK                         _______ _______ _______ _____ _____    ______ ____
ROOT
ATOM      1  C   UNL     1       0.332   9.766  21.076  0.00  0.00    +0.000 A 
ATOM      2  C   UNL     1       0.117   9.207  22.321  0.00  0.00    +0.000 A 
ATOM      3  C   UNL     1      -0.677  10.037  23.168  0.00  0.00    +0.000 A 
ATOM      4  C   UNL     1      -1.061  11.212  22.551  0.00  0.00    +0.000 A 
ATOM      5  S   UNL     1      -0.436  11.294  20.956  0.00  0.00    +0.000 S 
ENDROOT
BRANCH   1   9
ATOM      6  C   UNL     1       2.375   7.704  18.486  0.00  0.00    +0.000 A 
ATOM      7  C   UNL     1       1.988   8.863  17.848  0.00  0.00    +0.000 A 
ATOM      8  C   UNL     1       1.228   9.720  18.701  0.00  0.00    +0.000 A 
ATOM      9  C   UNL     1       1.065   9.200  19.971  0.00  0.00    +0.000 A 
ATOM     10  S   UNL     1       1.874   7.694  20.121  0.00  0.00    +0.000 S 
BRANCH   6  11
ATOM     11  C   UNL     1       3.145   6.547  17.917  0.00  0.00    +0.000 C 
BRANCH  11  12
ATOM     12  C   UNL     1       2.404   5.210  18.028  0.00  0.00    +0.000 C 
BRANCH  12  14
ATOM     13 BR   UNL     1       2.483   2.371  17.843  0.00  0.00    +0.000 Br
ATOM     14  C   UNL     1       3.332   4.050  18.351  0.00  0.00    +0.000 C 
ENDBRANCH  12  14
ENDBRANCH  11  12
ENDBRANCH   6  11
ENDBRANCH   1   9
BRANCH   4  15
ATOM     15  C   UNL     1      -1.866  12.277  23.102  0.00  0.00    +0.000 A 
ATOM     16  C   UNL     1      -3.174  12.208  23.547  0.00  0.00    +0.000 A 
ATOM     17  C   UNL     1      -3.665  13.463  24.013  0.00  0.00    +0.000 A 
ATOM     18  C   UNL     1      -2.717  14.454  23.912  0.00  0.00    +0.000 A 
ATOM     19  S   UNL     1      -1.245  13.870  23.273  0.00  0.00    +0.000 S 
ENDBRANCH   4  15
TORSDOF 5
ENDMDL
MODEL 9
REMARK VINA RESULT:      -5.9      1.995      2.554
REMARK  Name = 
REMARK  5 active torsions:
REMARK  status: ('A' for Active; 'I' for Inactive)
REMARK    1  A    between atoms: C_2  and  C_3
REMARK    2  A    between atoms: C_3  and  C_4
REMARK    3  A    between atoms: C_4  and  C_5
REMARK    4  A    between atoms: C_8  and  C_9
REMARK    5  A    between atoms: C_12  and  C_13
REMARK                            x       y       z     vdW  Elec       q    Type
REMARK                         _______ _______ _______ _____ _____    ______ ____
ROOT
ATOM      1  C   UNL     1       2.141   7.489  18.791  0.00  0.00    +0.000 A 
ATOM      2  C   UNL     1       1.788   7.729  20.106  0.00  0.00    +0.000 A 
ATOM      3  C   UNL     1       1.274   9.045  20.307  0.00  0.00    +0.000 A 
ATOM      4  C   UNL     1       1.238   9.785  19.141  0.00  0.00    +0.000 A 
ATOM      5  S   UNL     1       1.844   8.872  17.822  0.00  0.00    +0.000 S 
ENDROOT
BRANCH   1   9
ATOM      6  C   UNL     1       4.129   4.552  17.192  0.00  0.00    +0.000 A 
ATOM      7  C   UNL     1       2.915   4.034  17.592  0.00  0.00    +0.000 A 
ATOM      8  C   UNL     1       2.080   5.023  18.195  0.00  0.00    +0.000 A 
ATOM      9  C   UNL     1       2.670   6.271  18.229  0.00  0.00    +0.000 A 
ATOM     10  S   UNL     1       4.218   6.234  17.490  0.00  0.00    +0.000 S 
BRANCH   6  11
ATOM     11  C   UNL     1       5.282   3.828  16.560  0.00  0.00    +0.000 C 
BRANCH  11  12
ATOM     12  C   UNL     1       6.595   4.617  16.605  0.00  0.00    +0.000 C 
BRANCH  12  14
ATOM     13 BR   UNL     1       6.147   3.983  13.867  0.00  0.00    +0.000 Br
ATOM     14  C   UNL     1       7.083   5.023  15.223  0.00  0.00    +0.000 C 
ENDBRANCH  12  14
ENDBRANCH  11  12
ENDBRANCH   6  11
ENDBRANCH   1   9
BRANCH   4  15
ATOM     15  C   UNL     1       0.780  11.143  18.971  0.00  0.00    +0.000 A 
ATOM     16  C   UNL     1      -0.526  11.594  18.890  0.00  0.00    +0.000 A 
ATOM     17  C   UNL     1      -0.611  13.004  18.701  0.00  0.00    +0.000 A 
ATOM     18  C   UNL     1       0.631  13.592  18.645  0.00  0.00    +0.000 A 
ATOM     19  S   UNL     1       1.887  12.451  18.833  0.00  0.00    +0.000 S 
ENDBRANCH   4  15
TORSDOF 5
ENDMDL
