MODEL 1
REMARK VINA RESULT:      -7.7      0.000      0.000
REMARK  Name = 
REMARK  6 active torsions:
REMARK  status: ('A' for Active; 'I' for Inactive)
REMARK    1  A    between atoms: C_1  and  C_2
REMARK    2  A    between atoms: C_2  and  C_13
REMARK    3  A    between atoms: N_3  and  N_4
REMARK    4  A    between atoms: C_7  and  C_8
REMARK    5  A    between atoms: C_10  and  C_11
REMARK    6  A    between atoms: C_18  and  C_19
REMARK                            x       y       z     vdW  Elec       q    Type
REMARK                         _______ _______ _______ _____ _____    ______ ____
ROOT
ATOM      1  C   UNL     1       8.120   6.282  18.869  0.00  0.00    +0.000 C 
ATOM      2  C   UNL     1       6.904   5.439  18.534  0.00  0.00    +0.000 C 
ATOM      3  N   UNL     1       6.336   4.927  19.594  0.00  0.00    +0.000 NA
ENDROOT
BRANCH   3   4
ATOM      4  N   UNL     1       5.306   4.060  19.457  0.00  0.00    +0.000 N 
ATOM      5  C   UNL     1       4.022   4.465  19.886  0.00  0.00    +0.000 A 
ATOM      6  N   UNL     1       3.599   5.739  19.769  0.00  0.00    +0.000 NA
ATOM      7  C   UNL     1       2.333   6.017  20.141  0.00  0.00    +0.000 A 
ATOM      8  C   UNL     1       1.863   7.437  20.009  0.00  0.00    +0.000 C 
ATOM      9  C   UNL     1       1.481   5.050  20.624  0.00  0.00    +0.000 A 
ATOM     10  C   UNL     1       1.986   3.771  20.711  0.00  0.00    +0.000 A 
ATOM     11  C   UNL     1       1.151   2.626  21.195  0.00  0.00    +0.000 C 
ATOM     12  N   UNL     1       3.249   3.471  20.346  0.00  0.00    +0.000 NA
ATOM     13  H   UNL     1       5.430   3.147  19.890  0.00  0.00    +0.000 HD
ENDBRANCH   3   4
BRANCH   2  14
ATOM     14  C   UNL     1       6.468   5.300  17.078  0.00  0.00    +0.000 A 
ATOM     15  C   UNL     1       7.079   4.290  16.307  0.00  0.00    +0.000 A 
ATOM     16  C   UNL     1       6.815   4.127  14.941  0.00  0.00    +0.000 A 
ATOM     17  C   UNL     1       5.895   4.948  14.314  0.00  0.00    +0.000 A 
ATOM     18  C   UNL     1       5.221   5.907  15.060  0.00  0.00    +0.000 A 
ATOM     19  C   UNL     1       5.479   6.093  16.441  0.00  0.00    +0.000 A 
ATOM     20  C   UNL     1       4.652   7.152  17.112  0.00  0.00    +0.000 C 
ENDBRANCH   2  14
TORSDOF 2
ENDMDL
MODEL 2
REMARK VINA RESULT:      -7.2      1.602      5.997
REMARK  Name = 
REMARK  6 active torsions:
REMARK  status: ('A' for Active; 'I' for Inactive)
REMARK    1  A    between atoms: C_1  and  C_2
REMARK    2  A    between atoms: C_2  and  C_13
REMARK    3  A    between atoms: N_3  and  N_4
REMARK    4  A    between atoms: C_7  and  C_8
REMARK    5  A    between atoms: C_10  and  C_11
REMARK    6  A    between atoms: C_18  and  C_19
REMARK                            x       y       z     vdW  Elec       q    Type
REMARK                         _______ _______ _______ _____ _____    ______ ____
ROOT
ATOM      1  C   UNL     1       1.847   7.628  20.247  0.00  0.00    +0.000 C 
ATOM      2  C   UNL     1       2.356   6.458  19.426  0.00  0.00    +0.000 C 
ATOM      3  N   UNL     1       3.070   6.836  18.398  0.00  0.00    +0.000 NA
ENDROOT
BRANCH   3   4
ATOM      4  N   UNL     1       3.504   5.918  17.503  0.00  0.00    +0.000 N 
ATOM      5  C   UNL     1       4.896   5.714  17.367  0.00  0.00    +0.000 A 
ATOM      6  N   UNL     1       5.735   5.798  18.418  0.00  0.00    +0.000 NA
ATOM      7  C   UNL     1       7.038   5.518  18.204  0.00  0.00    +0.000 A 
ATOM      8  C   UNL     1       7.972   5.612  19.377  0.00  0.00    +0.000 C 
ATOM      9  C   UNL     1       7.517   5.154  16.966  0.00  0.00    +0.000 A 
ATOM     10  C   UNL     1       6.596   5.088  15.944  0.00  0.00    +0.000 A 
ATOM     11  C   UNL     1       6.987   4.678  14.558  0.00  0.00    +0.000 C 
ATOM     12  N   UNL     1       5.290   5.364  16.134  0.00  0.00    +0.000 NA
ATOM     13  H   UNL     1       3.182   6.041  16.545  0.00  0.00    +0.000 HD
ENDBRANCH   3   4
BRANCH   2  14
ATOM     14  C   UNL     1       2.028   5.034  19.867  0.00  0.00    +0.000 A 
ATOM     15  C   UNL     1       2.258   4.701  21.218  0.00  0.00    +0.000 A 
ATOM     16  C   UNL     1       2.072   3.403  21.711  0.00  0.00    +0.000 A 
ATOM     17  C   UNL     1       1.607   2.406  20.871  0.00  0.00    +0.000 A 
ATOM     18  C   UNL     1       1.301   2.718  19.552  0.00  0.00    +0.000 A 
ATOM     19  C   UNL     1       1.490   4.022  19.031  0.00  0.00    +0.000 A 
ATOM     20  C   UNL     1       1.091   4.206  17.595  0.00  0.00    +0.000 C 
ENDBRANCH   2  14
TORSDOF 2
ENDMDL
MODEL 3
REMARK VINA RESULT:      -7.1      2.687      4.906
REMARK  Name = 
REMARK  6 active torsions:
REMARK  status: ('A' for Active; 'I' for Inactive)
REMARK    1  A    between atoms: C_1  and  C_2
REMARK    2  A    between atoms: C_2  and  C_13
REMARK    3  A    between atoms: N_3  and  N_4
REMARK    4  A    between atoms: C_7  and  C_8
REMARK    5  A    between atoms: C_10  and  C_11
REMARK    6  A    between atoms: C_18  and  C_19
REMARK                            x       y       z     vdW  Elec       q    Type
REMARK                         _______ _______ _______ _____ _____    ______ ____
ROOT
ATOM      1  C   UNL     1       2.116   3.479  21.148  0.00  0.00    +0.000 C 
ATOM      2  C   UNL     1       2.583   4.695  20.372  0.00  0.00    +0.000 C 
ATOM      3  N   UNL     1       2.118   5.815  20.859  0.00  0.00    +0.000 NA
ENDROOT
BRANCH   3   4
ATOM      4  N   UNL     1       2.353   6.982  20.215  0.00  0.00    +0.000 N 
ATOM      5  C   UNL     1       1.529   8.092  20.509  0.00  0.00    +0.000 A 
ATOM      6  N   UNL     1       1.044   8.313  21.747  0.00  0.00    +0.000 NA
ATOM      7  C   UNL     1       0.324   9.437  21.947  0.00  0.00    +0.000 A 
ATOM      8  C   UNL     1      -0.215   9.682  23.327  0.00  0.00    +0.000 C 
ATOM      9  C   UNL     1       0.082  10.343  20.940  0.00  0.00    +0.000 A 
ATOM     10  C   UNL     1       0.614  10.048  19.704  0.00  0.00    +0.000 A 
ATOM     11  C   UNL     1       0.445  10.967  18.534  0.00  0.00    +0.000 C 
ATOM     12  N   UNL     1       1.336   8.930  19.480  0.00  0.00    +0.000 NA
ATOM     13  H   UNL     1       2.349   6.940  19.198  0.00  0.00    +0.000 HD
ENDBRANCH   3   4
BRANCH   2  14
ATOM     14  C   UNL     1       3.520   4.509  19.181  0.00  0.00    +0.000 A 
ATOM     15  C   UNL     1       4.904   4.640  19.413  0.00  0.00    +0.000 A 
ATOM     16  C   UNL     1       5.847   4.572  18.380  0.00  0.00    +0.000 A 
ATOM     17  C   UNL     1       5.432   4.327  17.083  0.00  0.00    +0.000 A 
ATOM     18  C   UNL     1       4.081   4.120  16.830  0.00  0.00    +0.000 A 
ATOM     19  C   UNL     1       3.111   4.194  17.860  0.00  0.00    +0.000 A 
ATOM     20  C   UNL     1       1.697   3.923  17.431  0.00  0.00    +0.000 C 
ENDBRANCH   2  14
TORSDOF 2
ENDMDL
MODEL 4
REMARK VINA RESULT:      -7.0      2.797      6.439
REMARK  Name = 
REMARK  6 active torsions:
REMARK  status: ('A' for Active; 'I' for Inactive)
REMARK    1  A    between atoms: C_1  and  C_2
REMARK    2  A    between atoms: C_2  and  C_13
REMARK    3  A    between atoms: N_3  and  N_4
REMARK    4  A    between atoms: C_7  and  C_8
REMARK    5  A    between atoms: C_10  and  C_11
REMARK    6  A    between atoms: C_18  and  C_19
REMARK                            x       y       z     vdW  Elec       q    Type
REMARK                         _______ _______ _______ _____ _____    ______ ____
ROOT
ATOM      1  C   UNL     1       5.795   5.758  19.142  0.00  0.00    +0.000 C 
ATOM      2  C   UNL     1       5.353   4.690  18.160  0.00  0.00    +0.000 C 
ATOM      3  N   UNL     1       6.283   4.385  17.293  0.00  0.00    +0.000 NA
ENDROOT
BRANCH   3   4
ATOM      4  N   UNL     1       6.009   3.530  16.280  0.00  0.00    +0.000 N 
ATOM      5  C   UNL     1       6.302   3.935  14.958  0.00  0.00    +0.000 A 
ATOM      6  N   UNL     1       7.371   4.702  14.667  0.00  0.00    +0.000 NA
ATOM      7  C   UNL     1       7.608   4.979  13.368  0.00  0.00    +0.000 A 
ATOM      8  C   UNL     1       8.801   5.834  13.045  0.00  0.00    +0.000 C 
ATOM      9  C   UNL     1       6.805   4.504  12.357  0.00  0.00    +0.000 A 
ATOM     10  C   UNL     1       5.734   3.725  12.735  0.00  0.00    +0.000 A 
ATOM     11  C   UNL     1       4.801   3.126  11.728  0.00  0.00    +0.000 C 
ATOM     12  N   UNL     1       5.476   3.436  14.027  0.00  0.00    +0.000 NA
ATOM     13  H   UNL     1       5.050   3.196  16.225  0.00  0.00    +0.000 HD
ENDBRANCH   3   4
BRANCH   2  14
ATOM     14  C   UNL     1       3.956   4.087  18.286  0.00  0.00    +0.000 A 
ATOM     15  C   UNL     1       2.917   4.690  17.549  0.00  0.00    +0.000 A 
ATOM     16  C   UNL     1       1.584   4.271  17.654  0.00  0.00    +0.000 A 
ATOM     17  C   UNL     1       1.259   3.204  18.472  0.00  0.00    +0.000 A 
ATOM     18  C   UNL     1       2.270   2.541  19.157  0.00  0.00    +0.000 A 
ATOM     19  C   UNL     1       3.623   2.954  19.071  0.00  0.00    +0.000 A 
ATOM     20  C   UNL     1       4.600   2.120  19.850  0.00  0.00    +0.000 C 
ENDBRANCH   2  14
TORSDOF 2
ENDMDL
MODEL 5
REMARK VINA RESULT:      -7.0      2.986      6.744
REMARK  Name = 
REMARK  6 active torsions:
REMARK  status: ('A' for Active; 'I' for Inactive)
REMARK    1  A    between atoms: C_1  and  C_2
REMARK    2  A    between atoms: C_2  and  C_13
REMARK    3  A    between atoms: N_3  and  N_4
REMARK    4  A    between atoms: C_7  and  C_8
REMARK    5  A    between atoms: C_10  and  C_11
REMARK    6  A    between atoms: C_18  and  C_19
REMARK                            x       y       z     vdW  Elec       q    Type
REMARK                         _______ _______ _______ _____ _____    ______ ____
ROOT
ATOM      1  C   UNL     1       3.904   7.271  17.678  0.00  0.00    +0.000 C 
ATOM      2  C   UNL     1       4.070   5.832  17.227  0.00  0.00    +0.000 C 
ATOM      3  N   UNL     1       4.886   5.713  16.212  0.00  0.00    +0.000 NA
ENDROOT
BRANCH   3   4
ATOM      4  N   UNL     1       5.056   4.507  15.620  0.00  0.00    +0.000 N 
ATOM      5  C   UNL     1       5.795   4.446  14.417  0.00  0.00    +0.000 A 
ATOM      6  N   UNL     1       6.851   5.250  14.186  0.00  0.00    +0.000 NA
ATOM      7  C   UNL     1       7.537   5.070  13.038  0.00  0.00    +0.000 A 
ATOM      8  C   UNL     1       8.715   5.967  12.783  0.00  0.00    +0.000 C 
ATOM      9  C   UNL     1       7.194   4.103  12.121  0.00  0.00    +0.000 A 
ATOM     10  C   UNL     1       6.104   3.319  12.431  0.00  0.00    +0.000 A 
ATOM     11  C   UNL     1       5.646   2.215  11.528  0.00  0.00    +0.000 C 
ATOM     12  N   UNL     1       5.402   3.482  13.571  0.00  0.00    +0.000 NA
ATOM     13  H   UNL     1       4.205   3.989  15.409  0.00  0.00    +0.000 HD
ENDBRANCH   3   4
BRANCH   2  14
ATOM     14  C   UNL     1       3.335   4.723  17.974  0.00  0.00    +0.000 A 
ATOM     15  C   UNL     1       1.963   4.550  17.699  0.00  0.00    +0.000 A 
ATOM     16  C   UNL     1       1.173   3.619  18.386  0.00  0.00    +0.000 A 
ATOM     17  C   UNL     1       1.747   2.801  19.343  0.00  0.00    +0.000 A 
ATOM     18  C   UNL     1       3.112   2.895  19.587  0.00  0.00    +0.000 A 
ATOM     19  C   UNL     1       3.927   3.836  18.910  0.00  0.00    +0.000 A 
ATOM     20  C   UNL     1       5.385   3.798  19.266  0.00  0.00    +0.000 C 
ENDBRANCH   2  14
TORSDOF 2
ENDMDL
MODEL 6
REMARK VINA RESULT:      -6.9      3.053      6.669
REMARK  Name = 
REMARK  6 active torsions:
REMARK  status: ('A' for Active; 'I' for Inactive)
REMARK    1  A    between atoms: C_1  and  C_2
REMARK    2  A    between atoms: C_2  and  C_13
REMARK    3  A    between atoms: N_3  and  N_4
REMARK    4  A    between atoms: C_7  and  C_8
REMARK    5  A    between atoms: C_10  and  C_11
REMARK    6  A    between atoms: C_18  and  C_19
REMARK                            x       y       z     vdW  Elec       q    Type
REMARK                         _______ _______ _______ _____ _____    ______ ____
ROOT
ATOM      1  C   UNL     1       4.049   7.069  17.772  0.00  0.00    +0.000 C 
ATOM      2  C   UNL     1       4.295   5.647  17.307  0.00  0.00    +0.000 C 
ATOM      3  N   UNL     1       4.929   5.591  16.165  0.00  0.00    +0.000 NA
ENDROOT
BRANCH   3   4
ATOM      4  N   UNL     1       5.127   4.397  15.559  0.00  0.00    +0.000 N 
ATOM      5  C   UNL     1       5.850   4.368  14.345  0.00  0.00    +0.000 A 
ATOM      6  N   UNL     1       6.878   5.207  14.107  0.00  0.00    +0.000 NA
ATOM      7  C   UNL     1       7.553   5.058  12.949  0.00  0.00    +0.000 A 
ATOM      8  C   UNL     1       8.699   5.993  12.685  0.00  0.00    +0.000 C 
ATOM      9  C   UNL     1       7.226   4.089  12.027  0.00  0.00    +0.000 A 
ATOM     10  C   UNL     1       6.166   3.269  12.345  0.00  0.00    +0.000 A 
ATOM     11  C   UNL     1       5.729   2.160  11.439  0.00  0.00    +0.000 C 
ATOM     12  N   UNL     1       5.475   3.401  13.497  0.00  0.00    +0.000 NA
ATOM     13  H   UNL     1       4.290   3.855  15.356  0.00  0.00    +0.000 HD
ENDBRANCH   3   4
BRANCH   2  14
ATOM     14  C   UNL     1       3.831   4.483  18.179  0.00  0.00    +0.000 A 
ATOM     15  C   UNL     1       4.790   3.869  19.011  0.00  0.00    +0.000 A 
ATOM     16  C   UNL     1       4.494   2.742  19.789  0.00  0.00    +0.000 A 
ATOM     17  C   UNL     1       3.213   2.220  19.788  0.00  0.00    +0.000 A 
ATOM     18  C   UNL     1       2.226   2.845  19.035  0.00  0.00    +0.000 A 
ATOM     19  C   UNL     1       2.506   3.980  18.235  0.00  0.00    +0.000 A 
ATOM     20  C   UNL     1       1.329   4.555  17.500  0.00  0.00    +0.000 C 
ENDBRANCH   2  14
TORSDOF 2
ENDMDL
MODEL 7
REMARK VINA RESULT:      -6.8      2.894      6.334
REMARK  Name = 
REMARK  6 active torsions:
REMARK  status: ('A' for Active; 'I' for Inactive)
REMARK    1  A    between atoms: C_1  and  C_2
REMARK    2  A    between atoms: C_2  and  C_13
REMARK    3  A    between atoms: N_3  and  N_4
REMARK    4  A    between atoms: C_7  and  C_8
REMARK    5  A    between atoms: C_10  and  C_11
REMARK    6  A    between atoms: C_18  and  C_19
REMARK                            x       y       z     vdW  Elec       q    Type
REMARK                         _______ _______ _______ _____ _____    ______ ____
ROOT
ATOM      1  C   UNL     1       5.583   5.886  18.979  0.00  0.00    +0.000 C 
ATOM      2  C   UNL     1       5.234   4.755  18.030  0.00  0.00    +0.000 C 
ATOM      3  N   UNL     1       6.183   4.511  17.164  0.00  0.00    +0.000 NA
ENDROOT
BRANCH   3   4
ATOM      4  N   UNL     1       5.982   3.607  16.178  0.00  0.00    +0.000 N 
ATOM      5  C   UNL     1       6.315   3.969  14.853  0.00  0.00    +0.000 A 
ATOM      6  N   UNL     1       7.368   4.762  14.573  0.00  0.00    +0.000 NA
ATOM      7  C   UNL     1       7.649   4.995  13.274  0.00  0.00    +0.000 A 
ATOM      8  C   UNL     1       8.824   5.879  12.964  0.00  0.00    +0.000 C 
ATOM      9  C   UNL     1       6.906   4.451  12.252  0.00  0.00    +0.000 A 
ATOM     10  C   UNL     1       5.848   3.648  12.619  0.00  0.00    +0.000 A 
ATOM     11  C   UNL     1       4.979   2.976  11.602  0.00  0.00    +0.000 C 
ATOM     12  N   UNL     1       5.547   3.402  13.911  0.00  0.00    +0.000 NA
ATOM     13  H   UNL     1       5.037   3.235  16.098  0.00  0.00    +0.000 HD
ENDBRANCH   3   4
BRANCH   2  14
ATOM     14  C   UNL     1       3.898   4.033  18.184  0.00  0.00    +0.000 A 
ATOM     15  C   UNL     1       3.932   2.650  18.458  0.00  0.00    +0.000 A 
ATOM     16  C   UNL     1       2.768   1.874  18.536  0.00  0.00    +0.000 A 
ATOM     17  C   UNL     1       1.529   2.470  18.384  0.00  0.00    +0.000 A 
ATOM     18  C   UNL     1       1.457   3.844  18.185  0.00  0.00    +0.000 A 
ATOM     19  C   UNL     1       2.622   4.646  18.094  0.00  0.00    +0.000 A 
ATOM     20  C   UNL     1       2.377   6.116  17.903  0.00  0.00    +0.000 C 
ENDBRANCH   2  14
TORSDOF 2
ENDMDL
MODEL 8
REMARK VINA RESULT:      -6.8      3.205      6.056
REMARK  Name = 
REMARK  6 active torsions:
REMARK  status: ('A' for Active; 'I' for Inactive)
REMARK    1  A    between atoms: C_1  and  C_2
REMARK    2  A    between atoms: C_2  and  C_13
REMARK    3  A    between atoms: N_3  and  N_4
REMARK    4  A    between atoms: C_7  and  C_8
REMARK    5  A    between atoms: C_10  and  C_11
REMARK    6  A    between atoms: C_18  and  C_19
REMARK                            x       y       z     vdW  Elec       q    Type
REMARK                         _______ _______ _______ _____ _____    ______ ____
ROOT
ATOM      1  C   UNL     1       4.049   6.258  18.355  0.00  0.00    +0.000 C 
ATOM      2  C   UNL     1       2.888   6.256  19.332  0.00  0.00    +0.000 C 
ATOM      3  N   UNL     1       2.509   7.461  19.669  0.00  0.00    +0.000 NA
ENDROOT
BRANCH   3   4
ATOM      4  N   UNL     1       1.558   7.630  20.617  0.00  0.00    +0.000 N 
ATOM      5  C   UNL     1       0.789   8.815  20.597  0.00  0.00    +0.000 A 
ATOM      6  N   UNL     1       0.432   9.415  19.444  0.00  0.00    +0.000 NA
ATOM      7  C   UNL     1      -0.361  10.503  19.523  0.00  0.00    +0.000 A 
ATOM      8  C   UNL     1      -0.758  11.171  18.237  0.00  0.00    +0.000 C 
ATOM      9  C   UNL     1      -0.808  11.001  20.726  0.00  0.00    +0.000 A 
ATOM     10  C   UNL     1      -0.404  10.330  21.859  0.00  0.00    +0.000 A 
ATOM     11  C   UNL     1      -0.844  10.756  23.225  0.00  0.00    +0.000 C 
ATOM     12  N   UNL     1       0.391   9.241  21.804  0.00  0.00    +0.000 NA
ATOM     13  H   UNL     1       1.873   7.561  21.583  0.00  0.00    +0.000 HD
ENDBRANCH   3   4
BRANCH   2  14
ATOM     14  C   UNL     1       2.289   4.926  19.780  0.00  0.00    +0.000 A 
ATOM     15  C   UNL     1       2.403   4.586  21.144  0.00  0.00    +0.000 A 
ATOM     16  C   UNL     1       1.964   3.355  21.649  0.00  0.00    +0.000 A 
ATOM     17  C   UNL     1       1.357   2.441  20.806  0.00  0.00    +0.000 A 
ATOM     18  C   UNL     1       1.163   2.774  19.471  0.00  0.00    +0.000 A 
ATOM     19  C   UNL     1       1.607   4.010  18.938  0.00  0.00    +0.000 A 
ATOM     20  C   UNL     1       1.302   4.231  17.484  0.00  0.00    +0.000 C 
ENDBRANCH   2  14
TORSDOF 2
ENDMDL
MODEL 9
REMARK VINA RESULT:      -6.7      2.904      5.081
REMARK  Name = 
REMARK  6 active torsions:
REMARK  status: ('A' for Active; 'I' for Inactive)
REMARK    1  A    between atoms: C_1  and  C_2
REMARK    2  A    between atoms: C_2  and  C_13
REMARK    3  A    between atoms: N_3  and  N_4
REMARK    4  A    between atoms: C_7  and  C_8
REMARK    5  A    between atoms: C_10  and  C_11
REMARK    6  A    between atoms: C_18  and  C_19
REMARK                            x       y       z     vdW  Elec       q    Type
REMARK                         _______ _______ _______ _____ _____    ______ ____
ROOT
ATOM      1  C   UNL     1       4.448   6.821  16.891  0.00  0.00    +0.000 C 
ATOM      2  C   UNL     1       3.461   6.464  17.985  0.00  0.00    +0.000 C 
ATOM      3  N   UNL     1       2.971   7.517  18.587  0.00  0.00    +0.000 NA
ENDROOT
BRANCH   3   4
ATOM      4  N   UNL     1       2.161   7.367  19.660  0.00  0.00    +0.000 N 
ATOM      5  C   UNL     1       1.369   8.465  20.066  0.00  0.00    +0.000 A 
ATOM      6  N   UNL     1       0.839   9.330  19.179  0.00  0.00    +0.000 NA
ATOM      7  C   UNL     1       0.039  10.306  19.656  0.00  0.00    +0.000 A 
ATOM      8  C   UNL     1      -0.551  11.269  18.665  0.00  0.00    +0.000 C 
ATOM      9  C   UNL     1      -0.245  10.433  20.996  0.00  0.00    +0.000 A 
ATOM     10  C   UNL     1       0.331   9.509  21.839  0.00  0.00    +0.000 A 
ATOM     11  C   UNL     1       0.079   9.524  23.315  0.00  0.00    +0.000 C 
ATOM     12  N   UNL     1       1.136   8.525  21.385  0.00  0.00    +0.000 NA
ATOM     13  H   UNL     1       2.611   7.061  20.520  0.00  0.00    +0.000 HD
ENDBRANCH   3   4
BRANCH   2  14
ATOM     14  C   UNL     1       3.130   4.998  18.247  0.00  0.00    +0.000 A 
ATOM     15  C   UNL     1       1.863   4.532  17.840  0.00  0.00    +0.000 A 
ATOM     16  C   UNL     1       1.423   3.228  18.104  0.00  0.00    +0.000 A 
ATOM     17  C   UNL     1       2.260   2.336  18.751  0.00  0.00    +0.000 A 
ATOM     18  C   UNL     1       3.542   2.741  19.101  0.00  0.00    +0.000 A 
ATOM     19  C   UNL     1       4.003   4.057  18.851  0.00  0.00    +0.000 A 
ATOM     20  C   UNL     1       5.420   4.332  19.267  0.00  0.00    +0.000 C 
ENDBRANCH   2  14
TORSDOF 2
ENDMDL
