MODEL 1
REMARK VINA RESULT:      -9.4      0.000      0.000
REMARK  Name = 
REMARK  8 active torsions:
REMARK  status: ('A' for Active; 'I' for Inactive)
REMARK    1  A    between atoms: C_1  and  C_2
REMARK    2  A    between atoms: C_5  and  N_6
REMARK    3  A    between atoms: N_6  and  S_7
REMARK    4  A    between atoms: S_7  and  C_10
REMARK    5  A    between atoms: C_13  and  N_14
REMARK    6  A    between atoms: N_14  and  C_15
REMARK    7  A    between atoms: C_17  and  C_18
REMARK    8  A    between atoms: C_22  and  C_23
REMARK                            x       y       z     vdW  Elec       q    Type
REMARK                         _______ _______ _______ _____ _____    ______ ____
ROOT
ATOM      1  C   UNL     1       1.629   7.912  20.119  0.00  0.00    +0.000 A 
ATOM      2  C   UNL     1       1.758   6.597  20.567  0.00  0.00    +0.000 A 
ATOM      3  C   UNL     1       2.401   5.660  19.768  0.00  0.00    +0.000 A 
ATOM      4  C   UNL     1       2.911   6.019  18.511  0.00  0.00    +0.000 A 
ATOM      5  C   UNL     1       2.807   7.352  18.081  0.00  0.00    +0.000 A 
ATOM      6  C   UNL     1       2.153   8.287  18.879  0.00  0.00    +0.000 A 
ENDROOT
BRANCH   1   7
ATOM      7  S   UNL     1       0.768   9.109  21.110  0.00  0.00    +0.000 S 
ATOM      8  O   UNL     1       1.541   9.452  22.395  0.00  0.00    +0.000 OA
ATOM      9  O   UNL     1      -0.581   8.608  21.652  0.00  0.00    +0.000 OA
BRANCH   7  10
ATOM     10  N   UNL     1       0.455  10.655  20.337  0.00  0.00    +0.000 N 
ATOM     11  H   UNL     1       0.999  11.471  20.652  0.00  0.00    +0.000 HD
BRANCH  10  16
ATOM     12  C   UNL     1      -4.205  11.416  17.106  0.00  0.00    +0.000 C 
ATOM     13  C   UNL     1      -2.956  11.229  17.912  0.00  0.00    +0.000 A 
ATOM     14  C   UNL     1      -1.968  10.301  17.534  0.00  0.00    +0.000 A 
ATOM     15  C   UNL     1      -0.834  10.120  18.336  0.00  0.00    +0.000 A 
ATOM     16  C   UNL     1      -0.673  10.866  19.509  0.00  0.00    +0.000 A 
ATOM     17  C   UNL     1      -1.652  11.801  19.879  0.00  0.00    +0.000 A 
ATOM     18  C   UNL     1      -2.786  11.980  19.081  0.00  0.00    +0.000 A 
ENDBRANCH  10  16
ENDBRANCH   7  10
ENDBRANCH   1   7
BRANCH   4  19
ATOM     19  N   UNL     1       3.554   5.030  17.705  0.00  0.00    +0.000 N 
ATOM     20  H   UNL     1       2.981   4.446  17.081  0.00  0.00    +0.000 HD
BRANCH  19  21
ATOM     21  C   UNL     1       4.978   4.985  17.620  0.00  0.00    +0.000 A 
ATOM     22  C   UNL     1       5.799   5.328  18.712  0.00  0.00    +0.000 A 
ATOM     23  C   UNL     1       7.193   5.339  18.560  0.00  0.00    +0.000 A 
ATOM     24  C   UNL     1       8.071   5.745  19.703  0.00  0.00    +0.000 C 
ATOM     25  N   UNL     1       7.747   4.998  17.353  0.00  0.00    +0.000 NA
ATOM     26  C   UNL     1       6.926   4.651  16.334  0.00  0.00    +0.000 A 
ATOM     27  N   UNL     1       7.297   4.334  15.082  0.00  0.00    +0.000 NA
ATOM     28  C   UNL     1       6.100   4.122  14.477  0.00  0.00    +0.000 A 
ATOM     29  C   UNL     1       5.945   3.768  13.035  0.00  0.00    +0.000 C 
ATOM     30  N   UNL     1       5.052   4.303  15.317  0.00  0.00    +0.000 NA
ATOM     31  N   UNL     1       5.599   4.637  16.465  0.00  0.00    +0.000 N 
ENDBRANCH  19  21
ENDBRANCH   4  19
TORSDOF 5
ENDMDL
MODEL 2
REMARK VINA RESULT:      -9.3      0.880      1.259
REMARK  Name = 
REMARK  8 active torsions:
REMARK  status: ('A' for Active; 'I' for Inactive)
REMARK    1  A    between atoms: C_1  and  C_2
REMARK    2  A    between atoms: C_5  and  N_6
REMARK    3  A    between atoms: N_6  and  S_7
REMARK    4  A    between atoms: S_7  and  C_10
REMARK    5  A    between atoms: C_13  and  N_14
REMARK    6  A    between atoms: N_14  and  C_15
REMARK    7  A    between atoms: C_17  and  C_18
REMARK    8  A    between atoms: C_22  and  C_23
REMARK                            x       y       z     vdW  Elec       q    Type
REMARK                         _______ _______ _______ _____ _____    ______ ____
ROOT
ATOM      1  C   UNL     1       1.660   8.115  19.935  0.00  0.00    +0.000 A 
ATOM      2  C   UNL     1       2.003   6.838  20.383  0.00  0.00    +0.000 A 
ATOM      3  C   UNL     1       2.704   5.982  19.543  0.00  0.00    +0.000 A 
ATOM      4  C   UNL     1       3.059   6.382  18.245  0.00  0.00    +0.000 A 
ATOM      5  C   UNL     1       2.740   7.680  17.814  0.00  0.00    +0.000 A 
ATOM      6  C   UNL     1       2.029   8.533  18.655  0.00  0.00    +0.000 A 
ENDROOT
BRANCH   1   7
ATOM      7  S   UNL     1       0.724   9.202  20.983  0.00  0.00    +0.000 S 
ATOM      8  O   UNL     1       1.495   9.570  22.262  0.00  0.00    +0.000 OA
ATOM      9  O   UNL     1      -0.564   8.571  21.535  0.00  0.00    +0.000 OA
BRANCH   7  10
ATOM     10  N   UNL     1       0.264  10.740  20.267  0.00  0.00    +0.000 N 
ATOM     11  H   UNL     1       0.741  11.589  20.600  0.00  0.00    +0.000 HD
BRANCH  10  16
ATOM     12  C   UNL     1      -4.319  11.380  16.902  0.00  0.00    +0.000 C 
ATOM     13  C   UNL     1      -3.150  11.202  17.823  0.00  0.00    +0.000 A 
ATOM     14  C   UNL     1      -3.003  11.980  18.985  0.00  0.00    +0.000 A 
ATOM     15  C   UNL     1      -1.874  11.818  19.798  0.00  0.00    +0.000 A 
ATOM     16  C   UNL     1      -0.893  10.877  19.465  0.00  0.00    +0.000 A 
ATOM     17  C   UNL     1      -1.047  10.091  18.311  0.00  0.00    +0.000 A 
ATOM     18  C   UNL     1      -2.171  10.255  17.497  0.00  0.00    +0.000 A 
ENDBRANCH  10  16
ENDBRANCH   7  10
ENDBRANCH   1   7
BRANCH   4  19
ATOM     19  N   UNL     1       3.766   5.474  17.399  0.00  0.00    +0.000 N 
ATOM     20  H   UNL     1       3.249   4.706  16.950  0.00  0.00    +0.000 HD
BRANCH  19  21
ATOM     21  C   UNL     1       5.117   5.742  17.026  0.00  0.00    +0.000 A 
ATOM     22  C   UNL     1       5.948   6.581  17.794  0.00  0.00    +0.000 A 
ATOM     23  C   UNL     1       7.246   6.873  17.350  0.00  0.00    +0.000 A 
ATOM     24  C   UNL     1       8.120   7.798  18.138  0.00  0.00    +0.000 C 
ATOM     25  N   UNL     1       7.703   6.323  16.179  0.00  0.00    +0.000 NA
ATOM     26  C   UNL     1       6.883   5.502  15.481  0.00  0.00    +0.000 A 
ATOM     27  N   UNL     1       7.154   4.919  14.302  0.00  0.00    +0.000 NA
ATOM     28  C   UNL     1       5.996   4.259  14.040  0.00  0.00    +0.000 A 
ATOM     29  C   UNL     1       5.751   3.461  12.803  0.00  0.00    +0.000 C 
ATOM     30  N   UNL     1       5.066   4.434  15.011  0.00  0.00    +0.000 NA
ATOM     31  N   UNL     1       5.647   5.218  15.892  0.00  0.00    +0.000 N 
ENDBRANCH  19  21
ENDBRANCH   4  19
TORSDOF 5
ENDMDL
MODEL 3
REMARK VINA RESULT:      -9.0      2.210      3.613
REMARK  Name = 
REMARK  8 active torsions:
REMARK  status: ('A' for Active; 'I' for Inactive)
REMARK    1  A    between atoms: C_1  and  C_2
REMARK    2  A    between atoms: C_5  and  N_6
REMARK    3  A    between atoms: N_6  and  S_7
REMARK    4  A    between atoms: S_7  and  C_10
REMARK    5  A    between atoms: C_13  and  N_14
REMARK    6  A    between atoms: N_14  and  C_15
REMARK    7  A    between atoms: C_17  and  C_18
REMARK    8  A    between atoms: C_22  and  C_23
REMARK                            x       y       z     vdW  Elec       q    Type
REMARK                         _______ _______ _______ _____ _____    ______ ____
ROOT
ATOM      1  C   UNL     1       0.542   9.908  19.669  0.00  0.00    +0.000 A 
ATOM      2  C   UNL     1       0.597   9.214  20.878  0.00  0.00    +0.000 A 
ATOM      3  C   UNL     1       1.385   8.075  20.981  0.00  0.00    +0.000 A 
ATOM      4  C   UNL     1       2.117   7.608  19.878  0.00  0.00    +0.000 A 
ATOM      5  C   UNL     1       2.083   8.330  18.673  0.00  0.00    +0.000 A 
ATOM      6  C   UNL     1       1.284   9.466  18.571  0.00  0.00    +0.000 A 
ENDROOT
BRANCH   1   7
ATOM      7  S   UNL     1      -0.498  11.339  19.512  0.00  0.00    +0.000 S 
ATOM      8  O   UNL     1       0.000  12.292  18.413  0.00  0.00    +0.000 OA
ATOM      9  O   UNL     1      -0.505  12.238  20.759  0.00  0.00    +0.000 OA
BRANCH   7  10
ATOM     10  N   UNL     1      -2.179  11.019  19.114  0.00  0.00    +0.000 N 
ATOM     11  H   UNL     1      -2.824  10.799  19.885  0.00  0.00    +0.000 HD
BRANCH  10  16
ATOM     12  C   UNL     1      -4.040  10.025  13.796  0.00  0.00    +0.000 C 
ATOM     13  C   UNL     1      -3.507  10.298  15.169  0.00  0.00    +0.000 A 
ATOM     14  C   UNL     1      -2.388   9.611  15.675  0.00  0.00    +0.000 A 
ATOM     15  C   UNL     1      -1.946   9.859  16.980  0.00  0.00    +0.000 A 
ATOM     16  C   UNL     1      -2.605  10.796  17.783  0.00  0.00    +0.000 A 
ATOM     17  C   UNL     1      -3.713  11.491  17.273  0.00  0.00    +0.000 A 
ATOM     18  C   UNL     1      -4.158  11.241  15.972  0.00  0.00    +0.000 A 
ENDBRANCH  10  16
ENDBRANCH   7  10
ENDBRANCH   1   7
BRANCH   4  19
ATOM     19  N   UNL     1       2.906   6.424  20.008  0.00  0.00    +0.000 N 
ATOM     20  H   UNL     1       3.526   6.326  20.824  0.00  0.00    +0.000 HD
BRANCH  19  21
ATOM     21  C   UNL     1       2.696   5.318  19.132  0.00  0.00    +0.000 A 
ATOM     22  C   UNL     1       1.658   4.389  19.344  0.00  0.00    +0.000 A 
ATOM     23  C   UNL     1       1.534   3.276  18.498  0.00  0.00    +0.000 A 
ATOM     24  C   UNL     1       0.461   2.261  18.743  0.00  0.00    +0.000 C 
ATOM     25  N   UNL     1       2.413   3.112  17.459  0.00  0.00    +0.000 NA
ATOM     26  C   UNL     1       3.382   4.040  17.273  0.00  0.00    +0.000 A 
ATOM     27  N   UNL     1       4.346   4.010  16.337  0.00  0.00    +0.000 NA
ATOM     28  C   UNL     1       5.055   5.132  16.626  0.00  0.00    +0.000 A 
ATOM     29  C   UNL     1       6.282   5.557  15.888  0.00  0.00    +0.000 C 
ATOM     30  N   UNL     1       4.550   5.809  17.686  0.00  0.00    +0.000 NA
ATOM     31  N   UNL     1       3.511   5.101  18.070  0.00  0.00    +0.000 N 
ENDBRANCH  19  21
ENDBRANCH   4  19
TORSDOF 5
ENDMDL
MODEL 4
REMARK VINA RESULT:      -8.9      1.177      1.502
REMARK  Name = 
REMARK  8 active torsions:
REMARK  status: ('A' for Active; 'I' for Inactive)
REMARK    1  A    between atoms: C_1  and  C_2
REMARK    2  A    between atoms: C_5  and  N_6
REMARK    3  A    between atoms: N_6  and  S_7
REMARK    4  A    between atoms: S_7  and  C_10
REMARK    5  A    between atoms: C_13  and  N_14
REMARK    6  A    between atoms: N_14  and  C_15
REMARK    7  A    between atoms: C_17  and  C_18
REMARK    8  A    between atoms: C_22  and  C_23
REMARK                            x       y       z     vdW  Elec       q    Type
REMARK                         _______ _______ _______ _____ _____    ______ ____
ROOT
ATOM      1  C   UNL     1       1.541   8.658  19.466  0.00  0.00    +0.000 A 
ATOM      2  C   UNL     1       1.900   8.833  18.129  0.00  0.00    +0.000 A 
ATOM      3  C   UNL     1       2.630   7.846  17.480  0.00  0.00    +0.000 A 
ATOM      4  C   UNL     1       3.021   6.681  18.158  0.00  0.00    +0.000 A 
ATOM      5  C   UNL     1       2.628   6.497  19.494  0.00  0.00    +0.000 A 
ATOM      6  C   UNL     1       1.904   7.493  20.145  0.00  0.00    +0.000 A 
ENDROOT
BRANCH   1   7
ATOM      7  S   UNL     1       0.648   9.934  20.321  0.00  0.00    +0.000 S 
ATOM      8  O   UNL     1       1.530  10.662  21.349  0.00  0.00    +0.000 OA
ATOM      9  O   UNL     1      -0.510   9.407  21.184  0.00  0.00    +0.000 OA
BRANCH   7  10
ATOM     10  N   UNL     1      -0.019  11.206  19.308  0.00  0.00    +0.000 N 
ATOM     11  H   UNL     1       0.526  12.073  19.201  0.00  0.00    +0.000 HD
BRANCH  10  16
ATOM     12  C   UNL     1      -5.500  11.050  17.675  0.00  0.00    +0.000 C 
ATOM     13  C   UNL     1      -4.051  11.097  18.054  0.00  0.00    +0.000 A 
ATOM     14  C   UNL     1      -3.122  10.183  17.526  0.00  0.00    +0.000 A 
ATOM     15  C   UNL     1      -1.785  10.227  17.937  0.00  0.00    +0.000 A 
ATOM     16  C   UNL     1      -1.363  11.185  18.866  0.00  0.00    +0.000 A 
ATOM     17  C   UNL     1      -2.288  12.107  19.383  0.00  0.00    +0.000 A 
ATOM     18  C   UNL     1      -3.624  12.060  18.976  0.00  0.00    +0.000 A 
ENDBRANCH  10  16
ENDBRANCH   7  10
ENDBRANCH   1   7
BRANCH   4  19
ATOM     19  N   UNL     1       3.785   5.689  17.469  0.00  0.00    +0.000 N 
ATOM     20  H   UNL     1       3.306   4.853  17.107  0.00  0.00    +0.000 HD
BRANCH  19  21
ATOM     21  C   UNL     1       5.144   5.944  17.117  0.00  0.00    +0.000 A 
ATOM     22  C   UNL     1       5.958   6.809  17.874  0.00  0.00    +0.000 A 
ATOM     23  C   UNL     1       7.266   7.086  17.449  0.00  0.00    +0.000 A 
ATOM     24  C   UNL     1       8.123   8.038  18.224  0.00  0.00    +0.000 C 
ATOM     25  N   UNL     1       7.749   6.496  16.309  0.00  0.00    +0.000 NA
ATOM     26  C   UNL     1       6.944   5.652  15.622  0.00  0.00    +0.000 A 
ATOM     27  N   UNL     1       7.240   5.028  14.469  0.00  0.00    +0.000 NA
ATOM     28  C   UNL     1       6.088   4.359  14.205  0.00  0.00    +0.000 A 
ATOM     29  C   UNL     1       5.871   3.519  12.990  0.00  0.00    +0.000 C 
ATOM     30  N   UNL     1       5.137   4.567  15.148  0.00  0.00    +0.000 NA
ATOM     31  N   UNL     1       5.699   5.381  16.015  0.00  0.00    +0.000 N 
ENDBRANCH  19  21
ENDBRANCH   4  19
TORSDOF 5
ENDMDL
MODEL 5
REMARK VINA RESULT:      -8.9      1.141      1.329
REMARK  Name = 
REMARK  8 active torsions:
REMARK  status: ('A' for Active; 'I' for Inactive)
REMARK    1  A    between atoms: C_1  and  C_2
REMARK    2  A    between atoms: C_5  and  N_6
REMARK    3  A    between atoms: N_6  and  S_7
REMARK    4  A    between atoms: S_7  and  C_10
REMARK    5  A    between atoms: C_13  and  N_14
REMARK    6  A    between atoms: N_14  and  C_15
REMARK    7  A    between atoms: C_17  and  C_18
REMARK    8  A    between atoms: C_22  and  C_23
REMARK                            x       y       z     vdW  Elec       q    Type
REMARK                         _______ _______ _______ _____ _____    ______ ____
ROOT
ATOM      1  C   UNL     1       1.719   8.822  19.394  0.00  0.00    +0.000 A 
ATOM      2  C   UNL     1       1.773   7.694  20.214  0.00  0.00    +0.000 A 
ATOM      3  C   UNL     1       2.372   6.532  19.745  0.00  0.00    +0.000 A 
ATOM      4  C   UNL     1       2.913   6.478  18.450  0.00  0.00    +0.000 A 
ATOM      5  C   UNL     1       2.885   7.627  17.643  0.00  0.00    +0.000 A 
ATOM      6  C   UNL     1       2.274   8.786  18.113  0.00  0.00    +0.000 A 
ENDROOT
BRANCH   1   7
ATOM      7  S   UNL     1       0.913  10.298  19.966  0.00  0.00    +0.000 S 
ATOM      8  O   UNL     1       1.328  11.532  19.146  0.00  0.00    +0.000 OA
ATOM      9  O   UNL     1       1.302  10.700  21.398  0.00  0.00    +0.000 OA
BRANCH   7  10
ATOM     10  N   UNL     1      -0.843  10.279  19.909  0.00  0.00    +0.000 N 
ATOM     11  H   UNL     1      -1.349   9.962  20.747  0.00  0.00    +0.000 HD
BRANCH  10  16
ATOM     12  C   UNL     1      -3.859  10.783  15.073  0.00  0.00    +0.000 C 
ATOM     13  C   UNL     1      -3.027  10.662  16.313  0.00  0.00    +0.000 A 
ATOM     14  C   UNL     1      -1.959   9.751  16.398  0.00  0.00    +0.000 A 
ATOM     15  C   UNL     1      -1.231   9.633  17.588  0.00  0.00    +0.000 A 
ATOM     16  C   UNL     1      -1.555  10.425  18.695  0.00  0.00    +0.000 A 
ATOM     17  C   UNL     1      -2.613  11.345  18.606  0.00  0.00    +0.000 A 
ATOM     18  C   UNL     1      -3.342  11.460  17.420  0.00  0.00    +0.000 A 
ENDBRANCH  10  16
ENDBRANCH   7  10
ENDBRANCH   1   7
BRANCH   4  19
ATOM     19  N   UNL     1       3.510   5.264  17.989  0.00  0.00    +0.000 N 
ATOM     20  H   UNL     1       2.906   4.525  17.605  0.00  0.00    +0.000 HD
BRANCH  19  21
ATOM     21  C   UNL     1       4.929   5.156  17.879  0.00  0.00    +0.000 A 
ATOM     22  C   UNL     1       5.783   5.470  18.954  0.00  0.00    +0.000 A 
ATOM     23  C   UNL     1       7.174   5.419  18.778  0.00  0.00    +0.000 A 
ATOM     24  C   UNL     1       8.089   5.793  19.902  0.00  0.00    +0.000 C 
ATOM     25  N   UNL     1       7.691   5.046  17.564  0.00  0.00    +0.000 NA
ATOM     26  C   UNL     1       6.837   4.729  16.562  0.00  0.00    +0.000 A 
ATOM     27  N   UNL     1       7.172   4.387  15.306  0.00  0.00    +0.000 NA
ATOM     28  C   UNL     1       5.956   4.224  14.724  0.00  0.00    +0.000 A 
ATOM     29  C   UNL     1       5.760   3.868  13.287  0.00  0.00    +0.000 C 
ATOM     30  N   UNL     1       4.932   4.456  15.581  0.00  0.00    +0.000 NA
ATOM     31  N   UNL     1       5.514   4.774  16.717  0.00  0.00    +0.000 N 
ENDBRANCH  19  21
ENDBRANCH   4  19
TORSDOF 5
ENDMDL
MODEL 6
REMARK VINA RESULT:      -8.6      1.025      1.424
REMARK  Name = 
REMARK  8 active torsions:
REMARK  status: ('A' for Active; 'I' for Inactive)
REMARK    1  A    between atoms: C_1  and  C_2
REMARK    2  A    between atoms: C_5  and  N_6
REMARK    3  A    between atoms: N_6  and  S_7
REMARK    4  A    between atoms: S_7  and  C_10
REMARK    5  A    between atoms: C_13  and  N_14
REMARK    6  A    between atoms: N_14  and  C_15
REMARK    7  A    between atoms: C_17  and  C_18
REMARK    8  A    between atoms: C_22  and  C_23
REMARK                            x       y       z     vdW  Elec       q    Type
REMARK                         _______ _______ _______ _____ _____    ______ ____
ROOT
ATOM      1  C   UNL     1       1.604   8.545  19.173  0.00  0.00    +0.000 A 
ATOM      2  C   UNL     1       2.094   8.363  17.879  0.00  0.00    +0.000 A 
ATOM      3  C   UNL     1       2.748   7.182  17.553  0.00  0.00    +0.000 A 
ATOM      4  C   UNL     1       2.933   6.176  18.514  0.00  0.00    +0.000 A 
ATOM      5  C   UNL     1       2.409   6.352  19.805  0.00  0.00    +0.000 A 
ATOM      6  C   UNL     1       1.762   7.541  20.131  0.00  0.00    +0.000 A 
ENDROOT
BRANCH   1   7
ATOM      7  S   UNL     1       0.807  10.069  19.615  0.00  0.00    +0.000 S 
ATOM      8  O   UNL     1       1.800  11.087  20.201  0.00  0.00    +0.000 OA
ATOM      9  O   UNL     1      -0.228   9.922  20.742  0.00  0.00    +0.000 OA
BRANCH   7  10
ATOM     10  N   UNL     1       0.003  10.917  18.303  0.00  0.00    +0.000 N 
ATOM     11  H   UNL     1       0.563  11.569  17.736  0.00  0.00    +0.000 HD
BRANCH  10  16
ATOM     12  C   UNL     1      -5.707  10.928  17.944  0.00  0.00    +0.000 C 
ATOM     13  C   UNL     1      -4.209  10.928  17.987  0.00  0.00    +0.000 A 
ATOM     14  C   UNL     1      -3.453   9.946  17.322  0.00  0.00    +0.000 A 
ATOM     15  C   UNL     1      -2.057   9.950  17.421  0.00  0.00    +0.000 A 
ATOM     16  C   UNL     1      -1.406  10.935  18.173  0.00  0.00    +0.000 A 
ATOM     17  C   UNL     1      -2.160  11.923  18.826  0.00  0.00    +0.000 A 
ATOM     18  C   UNL     1      -3.554  11.917  18.731  0.00  0.00    +0.000 A 
ENDBRANCH  10  16
ENDBRANCH   7  10
ENDBRANCH   1   7
BRANCH   4  19
ATOM     19  N   UNL     1       3.623   4.978  18.154  0.00  0.00    +0.000 N 
ATOM     20  H   UNL     1       3.077   4.154  17.867  0.00  0.00    +0.000 HD
BRANCH  19  21
ATOM     21  C   UNL     1       5.043   4.982  18.005  0.00  0.00    +0.000 A 
ATOM     22  C   UNL     1       5.900   5.341  19.064  0.00  0.00    +0.000 A 
ATOM     23  C   UNL     1       7.285   5.401  18.851  0.00  0.00    +0.000 A 
ATOM     24  C   UNL     1       8.199   5.824  19.959  0.00  0.00    +0.000 C 
ATOM     25  N   UNL     1       7.796   5.090  17.617  0.00  0.00    +0.000 NA
ATOM     26  C   UNL     1       6.942   4.726  16.631  0.00  0.00    +0.000 A 
ATOM     27  N   UNL     1       7.268   4.434  15.361  0.00  0.00    +0.000 NA
ATOM     28  C   UNL     1       6.053   4.187  14.807  0.00  0.00    +0.000 A 
ATOM     29  C   UNL     1       5.846   3.843  13.369  0.00  0.00    +0.000 C 
ATOM     30  N   UNL     1       5.038   4.325  15.695  0.00  0.00    +0.000 NA
ATOM     31  N   UNL     1       5.624   4.666  16.821  0.00  0.00    +0.000 N 
ENDBRANCH  19  21
ENDBRANCH   4  19
TORSDOF 5
ENDMDL
MODEL 7
REMARK VINA RESULT:      -8.6      2.553      9.215
REMARK  Name = 
REMARK  8 active torsions:
REMARK  status: ('A' for Active; 'I' for Inactive)
REMARK    1  A    between atoms: C_1  and  C_2
REMARK    2  A    between atoms: C_5  and  N_6
REMARK    3  A    between atoms: N_6  and  S_7
REMARK    4  A    between atoms: S_7  and  C_10
REMARK    5  A    between atoms: C_13  and  N_14
REMARK    6  A    between atoms: N_14  and  C_15
REMARK    7  A    between atoms: C_17  and  C_18
REMARK    8  A    between atoms: C_22  and  C_23
REMARK                            x       y       z     vdW  Elec       q    Type
REMARK                         _______ _______ _______ _____ _____    ______ ____
ROOT
ATOM      1  C   UNL     1       1.994   7.623  19.335  0.00  0.00    +0.000 A 
ATOM      2  C   UNL     1       2.102   8.296  18.118  0.00  0.00    +0.000 A 
ATOM      3  C   UNL     1       1.606   9.588  18.002  0.00  0.00    +0.000 A 
ATOM      4  C   UNL     1       0.987  10.219  19.093  0.00  0.00    +0.000 A 
ATOM      5  C   UNL     1       0.912   9.547  20.325  0.00  0.00    +0.000 A 
ATOM      6  C   UNL     1       1.401   8.248  20.434  0.00  0.00    +0.000 A 
ENDROOT
BRANCH   1   7
ATOM      7  S   UNL     1       2.583   5.953  19.483  0.00  0.00    +0.000 S 
ATOM      8  O   UNL     1       1.849   5.000  18.524  0.00  0.00    +0.000 OA
ATOM      9  O   UNL     1       2.313   5.321  20.858  0.00  0.00    +0.000 OA
BRANCH   7  10
ATOM     10  N   UNL     1       4.291   5.715  19.147  0.00  0.00    +0.000 N 
ATOM     11  H   UNL     1       4.971   6.042  19.848  0.00  0.00    +0.000 HD
BRANCH  10  16
ATOM     12  C   UNL     1       6.017   4.235  13.897  0.00  0.00    +0.000 C 
ATOM     13  C   UNL     1       5.608   4.602  15.291  0.00  0.00    +0.000 A 
ATOM     14  C   UNL     1       5.453   3.628  16.293  0.00  0.00    +0.000 A 
ATOM     15  C   UNL     1       5.025   4.001  17.573  0.00  0.00    +0.000 A 
ATOM     16  C   UNL     1       4.759   5.344  17.864  0.00  0.00    +0.000 A 
ATOM     17  C   UNL     1       4.927   6.318  16.867  0.00  0.00    +0.000 A 
ATOM     18  C   UNL     1       5.350   5.945  15.588  0.00  0.00    +0.000 A 
ENDBRANCH  10  16
ENDBRANCH   7  10
ENDBRANCH   1   7
BRANCH   4  19
ATOM     19  N   UNL     1       0.472  11.543  18.940  0.00  0.00    +0.000 N 
ATOM     20  H   UNL     1       1.078  12.270  18.537  0.00  0.00    +0.000 HD
BRANCH  19  21
ATOM     21  C   UNL     1      -0.914  11.806  19.157  0.00  0.00    +0.000 A 
ATOM     22  C   UNL     1      -1.390  12.320  20.379  0.00  0.00    +0.000 A 
ATOM     23  C   UNL     1      -2.769  12.494  20.573  0.00  0.00    +0.000 A 
ATOM     24  C   UNL     1      -3.286  12.999  21.884  0.00  0.00    +0.000 C 
ATOM     25  N   UNL     1      -3.641  12.180  19.562  0.00  0.00    +0.000 NA
ATOM     26  C   UNL     1      -3.143  11.711  18.394  0.00  0.00    +0.000 A 
ATOM     27  N   UNL     1      -3.854  11.317  17.325  0.00  0.00    +0.000 NA
ATOM     28  C   UNL     1      -2.880  10.906  16.473  0.00  0.00    +0.000 A 
ATOM     29  C   UNL     1      -3.142  10.328  15.121  0.00  0.00    +0.000 C 
ATOM     30  N   UNL     1      -1.638  11.041  16.998  0.00  0.00    +0.000 NA
ATOM     31  N   UNL     1      -1.836  11.540  18.198  0.00  0.00    +0.000 N 
ENDBRANCH  19  21
ENDBRANCH   4  19
TORSDOF 5
ENDMDL
MODEL 8
REMARK VINA RESULT:      -8.6      0.878      2.744
REMARK  Name = 
REMARK  8 active torsions:
REMARK  status: ('A' for Active; 'I' for Inactive)
REMARK    1  A    between atoms: C_1  and  C_2
REMARK    2  A    between atoms: C_5  and  N_6
REMARK    3  A    between atoms: N_6  and  S_7
REMARK    4  A    between atoms: S_7  and  C_10
REMARK    5  A    between atoms: C_13  and  N_14
REMARK    6  A    between atoms: N_14  and  C_15
REMARK    7  A    between atoms: C_17  and  C_18
REMARK    8  A    between atoms: C_22  and  C_23
REMARK                            x       y       z     vdW  Elec       q    Type
REMARK                         _______ _______ _______ _____ _____    ______ ____
ROOT
ATOM      1  C   UNL     1       1.738   7.402  20.126  0.00  0.00    +0.000 A 
ATOM      2  C   UNL     1       2.352   7.554  18.883  0.00  0.00    +0.000 A 
ATOM      3  C   UNL     1       2.946   6.457  18.272  0.00  0.00    +0.000 A 
ATOM      4  C   UNL     1       2.946   5.201  18.899  0.00  0.00    +0.000 A 
ATOM      5  C   UNL     1       2.296   5.048  20.136  0.00  0.00    +0.000 A 
ATOM      6  C   UNL     1       1.710   6.153  20.749  0.00  0.00    +0.000 A 
ENDROOT
BRANCH   1   7
ATOM      7  S   UNL     1       1.015   8.808  20.938  0.00  0.00    +0.000 S 
ATOM      8  O   UNL     1       1.821   9.231  22.178  0.00  0.00    +0.000 OA
ATOM      9  O   UNL     1      -0.381   8.536  21.521  0.00  0.00    +0.000 OA
BRANCH   7  10
ATOM     10  N   UNL     1       0.878  10.263  19.963  0.00  0.00    +0.000 N 
ATOM     11  H   UNL     1       1.571  11.010  20.109  0.00  0.00    +0.000 HD
BRANCH  10  16
ATOM     12  C   UNL     1      -3.892  11.322  16.986  0.00  0.00    +0.000 C 
ATOM     13  C   UNL     1      -2.615  11.055  17.724  0.00  0.00    +0.000 A 
ATOM     14  C   UNL     1      -1.702  10.079  17.286  0.00  0.00    +0.000 A 
ATOM     15  C   UNL     1      -0.541   9.825  18.026  0.00  0.00    +0.000 A 
ATOM     16  C   UNL     1      -0.278  10.546  19.196  0.00  0.00    +0.000 A 
ATOM     17  C   UNL     1      -1.183  11.530  19.626  0.00  0.00    +0.000 A 
ATOM     18  C   UNL     1      -2.345  11.780  18.890  0.00  0.00    +0.000 A 
ENDBRANCH  10  16
ENDBRANCH   7  10
ENDBRANCH   1   7
BRANCH   4  19
ATOM     19  N   UNL     1       3.578   4.093  18.255  0.00  0.00    +0.000 N 
ATOM     20  H   UNL     1       3.131   3.168  18.301  0.00  0.00    +0.000 HD
BRANCH  19  21
ATOM     21  C   UNL     1       4.701   4.304  17.399  0.00  0.00    +0.000 A 
ATOM     22  C   UNL     1       4.629   4.079  16.010  0.00  0.00    +0.000 A 
ATOM     23  C   UNL     1       5.778   4.229  15.220  0.00  0.00    +0.000 A 
ATOM     24  C   UNL     1       5.721   3.950  13.750  0.00  0.00    +0.000 C 
ATOM     25  N   UNL     1       6.959   4.612  15.803  0.00  0.00    +0.000 NA
ATOM     26  C   UNL     1       6.981   4.841  17.137  0.00  0.00    +0.000 A 
ATOM     27  N   UNL     1       8.056   5.177  17.870  0.00  0.00    +0.000 NA
ATOM     28  C   UNL     1       7.536   5.237  19.123  0.00  0.00    +0.000 A 
ATOM     29  C   UNL     1       8.337   5.543  20.346  0.00  0.00    +0.000 C 
ATOM     30  N   UNL     1       6.212   4.949  19.152  0.00  0.00    +0.000 NA
ATOM     31  N   UNL     1       5.897   4.701  17.899  0.00  0.00    +0.000 N 
ENDBRANCH  19  21
ENDBRANCH   4  19
TORSDOF 5
ENDMDL
MODEL 9
REMARK VINA RESULT:      -8.6      2.261      3.001
REMARK  Name = 
REMARK  8 active torsions:
REMARK  status: ('A' for Active; 'I' for Inactive)
REMARK    1  A    between atoms: C_1  and  C_2
REMARK    2  A    between atoms: C_5  and  N_6
REMARK    3  A    between atoms: N_6  and  S_7
REMARK    4  A    between atoms: S_7  and  C_10
REMARK    5  A    between atoms: C_13  and  N_14
REMARK    6  A    between atoms: N_14  and  C_15
REMARK    7  A    between atoms: C_17  and  C_18
REMARK    8  A    between atoms: C_22  and  C_23
REMARK                            x       y       z     vdW  Elec       q    Type
REMARK                         _______ _______ _______ _____ _____    ______ ____
ROOT
ATOM      1  C   UNL     1       1.152   9.771  19.989  0.00  0.00    +0.000 A 
ATOM      2  C   UNL     1       1.444   8.515  20.521  0.00  0.00    +0.000 A 
ATOM      3  C   UNL     1       2.052   7.555  19.722  0.00  0.00    +0.000 A 
ATOM      4  C   UNL     1       2.365   7.832  18.382  0.00  0.00    +0.000 A 
ATOM      5  C   UNL     1       2.099   9.110  17.863  0.00  0.00    +0.000 A 
ATOM      6  C   UNL     1       1.480  10.066  18.664  0.00  0.00    +0.000 A 
ENDROOT
BRANCH   1   7
ATOM      7  S   UNL     1       0.333  10.991  20.987  0.00  0.00    +0.000 S 
ATOM      8  O   UNL     1       1.177  12.268  21.141  0.00  0.00    +0.000 OA
ATOM      9  O   UNL     1       0.116  10.553  22.445  0.00  0.00    +0.000 OA
BRANCH   7  10
ATOM     10  N   UNL     1      -1.226  11.541  20.391  0.00  0.00    +0.000 N 
ATOM     11  H   UNL     1      -1.892  11.933  21.071  0.00  0.00    +0.000 HD
BRANCH  10  16
ATOM     12  C   UNL     1      -2.943  10.160  15.111  0.00  0.00    +0.000 C 
ATOM     13  C   UNL     1      -2.523  10.564  16.492  0.00  0.00    +0.000 A 
ATOM     14  C   UNL     1      -1.919  11.808  16.744  0.00  0.00    +0.000 A 
ATOM     15  C   UNL     1      -1.498  12.133  18.039  0.00  0.00    +0.000 A 
ATOM     16  C   UNL     1      -1.684  11.227  19.090  0.00  0.00    +0.000 A 
ATOM     17  C   UNL     1      -2.300   9.990  18.840  0.00  0.00    +0.000 A 
ATOM     18  C   UNL     1      -2.716   9.664  17.547  0.00  0.00    +0.000 A 
ENDBRANCH  10  16
ENDBRANCH   7  10
ENDBRANCH   1   7
BRANCH   4  19
ATOM     19  N   UNL     1       2.976   6.821  17.579  0.00  0.00    +0.000 N 
ATOM     20  H   UNL     1       2.798   6.813  16.566  0.00  0.00    +0.000 HD
BRANCH  19  21
ATOM     21  C   UNL     1       3.967   5.960  18.138  0.00  0.00    +0.000 A 
ATOM     22  C   UNL     1       5.326   6.327  18.192  0.00  0.00    +0.000 A 
ATOM     23  C   UNL     1       6.276   5.419  18.684  0.00  0.00    +0.000 A 
ATOM     24  C   UNL     1       7.727   5.786  18.703  0.00  0.00    +0.000 C 
ATOM     25  N   UNL     1       5.870   4.186  19.127  0.00  0.00    +0.000 NA
ATOM     26  C   UNL     1       4.552   3.879  19.081  0.00  0.00    +0.000 A 
ATOM     27  N   UNL     1       3.994   2.709  19.432  0.00  0.00    +0.000 NA
ATOM     28  C   UNL     1       2.683   2.925  19.151  0.00  0.00    +0.000 A 
ATOM     29  C   UNL     1       1.611   1.902  19.329  0.00  0.00    +0.000 C 
ATOM     30  N   UNL     1       2.455   4.165  18.652  0.00  0.00    +0.000 NA
ATOM     31  N   UNL     1       3.641   4.733  18.616  0.00  0.00    +0.000 N 
ENDBRANCH  19  21
ENDBRANCH   4  19
TORSDOF 5
ENDMDL
