MODEL 1
REMARK VINA RESULT:      -8.2      0.000      0.000
REMARK  Name = 
REMARK  5 active torsions:
REMARK  status: ('A' for Active; 'I' for Inactive)
REMARK    1  A    between atoms: C_1  and  O_2
REMARK    2  A    between atoms: O_2  and  C_3
REMARK    3  A    between atoms: C_8  and  C_9
REMARK    4  A    between atoms: C_15  and  C_16
REMARK    5  A    between atoms: C_29  and  C_30
REMARK                            x       y       z     vdW  Elec       q    Type
REMARK                         _______ _______ _______ _____ _____    ______ ____
ROOT
ATOM      1  C   UNL     1       0.190  10.804  18.923  0.00  0.00    +0.000 A 
ATOM      2  C   UNL     1      -1.095  10.982  18.363  0.00  0.00    +0.000 A 
ATOM      3  N   UNL     1      -1.434  12.257  18.197  0.00  0.00    +0.000 NA
ATOM      4  N   UNL     1      -0.362  12.954  18.642  0.00  0.00    +0.000 N 
ATOM      5  C   UNL     1      -0.222  14.342  18.642  0.00  0.00    +0.000 A 
ATOM      6  C   UNL     1       0.886  14.916  19.143  0.00  0.00    +0.000 A 
ATOM      7  C   UNL     1       1.937  14.071  19.702  0.00  0.00    +0.000 A 
ATOM      8  C   UNL     1       1.823  12.723  19.648  0.00  0.00    +0.000 A 
ATOM      9  C   UNL     1       0.642  12.102  19.121  0.00  0.00    +0.000 A 
ENDROOT
BRANCH   1  15
ATOM     10  C   UNL     1       0.770   8.903  20.482  0.00  0.00    +0.000 A 
ATOM     11  C   UNL     1       1.449   7.699  20.730  0.00  0.00    +0.000 A 
ATOM     12  C   UNL     1       2.260   7.173  19.743  0.00  0.00    +0.000 A 
ATOM     13  C   UNL     1       2.416   7.819  18.520  0.00  0.00    +0.000 A 
ATOM     14  C   UNL     1       1.775   9.015  18.260  0.00  0.00    +0.000 A 
ATOM     15  C   UNL     1       0.908   9.563  19.225  0.00  0.00    +0.000 A 
ATOM     16  C   UNL     1       3.316   7.028  17.626  0.00  0.00    +0.000 C 
ATOM     17  N   UNL     1       3.698   5.888  18.458  0.00  0.00    +0.000 N 
ATOM     18  C   UNL     1       4.563   4.939  17.978  0.00  0.00    +0.000 C 
ATOM     19  C   UNL     1       4.931   3.794  18.887  0.00  0.00    +0.000 C 
ATOM     20  O   UNL     1       5.038   5.007  16.844  0.00  0.00    +0.000 OA
ATOM     21  C   UNL     1       3.067   5.919  19.774  0.00  0.00    +0.000 C 
BRANCH  10  23
ATOM     22  C   UNL     1       0.349   9.436  22.765  0.00  0.00    +0.000 C 
ATOM     23  O   UNL     1      -0.088   9.452  21.409  0.00  0.00    +0.000 OA
ENDBRANCH  10  23
ENDBRANCH   1  15
BRANCH   7  24
ATOM     24  C   UNL     1       3.158  14.634  20.299  0.00  0.00    +0.000 A 
ATOM     25  C   UNL     1       3.236  14.987  21.649  0.00  0.00    +0.000 A 
ATOM     26  C   UNL     1       4.424  15.512  22.135  0.00  0.00    +0.000 A 
ATOM     27  N   UNL     1       5.551  15.720  21.416  0.00  0.00    +0.000 NA
ATOM     28  C   UNL     1       5.426  15.359  20.125  0.00  0.00    +0.000 A 
ATOM     29  N   UNL     1       6.424  15.471  19.197  0.00  0.00    +0.000 N 
ATOM     30  C   UNL     1       5.979  15.021  17.980  0.00  0.00    +0.000 A 
ATOM     31  C   UNL     1       4.669  14.611  18.137  0.00  0.00    +0.000 A 
ATOM     32  C   UNL     1       4.303  14.823  19.498  0.00  0.00    +0.000 A 
ATOM     33  H   UNL     1       7.340  15.835  19.407  0.00  0.00    +0.000 HD
ENDBRANCH   7  24
TORSDOF 3
ENDMDL
MODEL 2
REMARK VINA RESULT:      -8.0      0.440      1.638
REMARK  Name = 
REMARK  5 active torsions:
REMARK  status: ('A' for Active; 'I' for Inactive)
REMARK    1  A    between atoms: C_1  and  O_2
REMARK    2  A    between atoms: O_2  and  C_3
REMARK    3  A    between atoms: C_8  and  C_9
REMARK    4  A    between atoms: C_15  and  C_16
REMARK    5  A    between atoms: C_29  and  C_30
REMARK                            x       y       z     vdW  Elec       q    Type
REMARK                         _______ _______ _______ _____ _____    ______ ____
ROOT
ATOM      1  C   UNL     1       0.197  10.934  19.146  0.00  0.00    +0.000 A 
ATOM      2  C   UNL     1      -1.180  11.178  18.939  0.00  0.00    +0.000 A 
ATOM      3  N   UNL     1      -1.471  12.458  18.729  0.00  0.00    +0.000 NA
ATOM      4  N   UNL     1      -0.275  13.092  18.784  0.00  0.00    +0.000 N 
ATOM      5  C   UNL     1      -0.054  14.455  18.588  0.00  0.00    +0.000 A 
ATOM      6  C   UNL     1       1.184  14.968  18.701  0.00  0.00    +0.000 A 
ATOM      7  C   UNL     1       2.294  14.084  19.046  0.00  0.00    +0.000 A 
ATOM      8  C   UNL     1       2.085  12.753  19.178  0.00  0.00    +0.000 A 
ATOM      9  C   UNL     1       0.766  12.199  19.065  0.00  0.00    +0.000 A 
ENDROOT
BRANCH   1  15
ATOM     10  C   UNL     1       0.779   8.966  20.618  0.00  0.00    +0.000 A 
ATOM     11  C   UNL     1       1.433   7.737  20.801  0.00  0.00    +0.000 A 
ATOM     12  C   UNL     1       2.195   7.225  19.768  0.00  0.00    +0.000 A 
ATOM     13  C   UNL     1       2.325   7.909  18.562  0.00  0.00    +0.000 A 
ATOM     14  C   UNL     1       1.707   9.129  18.366  0.00  0.00    +0.000 A 
ATOM     15  C   UNL     1       0.890   9.665  19.380  0.00  0.00    +0.000 A 
ATOM     16  C   UNL     1       3.171   7.125  17.611  0.00  0.00    +0.000 C 
ATOM     17  N   UNL     1       3.551   5.948  18.389  0.00  0.00    +0.000 N 
ATOM     18  C   UNL     1       4.373   4.994  17.847  0.00  0.00    +0.000 C 
ATOM     19  C   UNL     1       4.741   3.809  18.703  0.00  0.00    +0.000 C 
ATOM     20  O   UNL     1       4.809   5.088  16.699  0.00  0.00    +0.000 OA
ATOM     21  C   UNL     1       2.968   5.950  19.727  0.00  0.00    +0.000 C 
BRANCH  10  23
ATOM     22  C   UNL     1       0.419   9.368  22.938  0.00  0.00    +0.000 C 
ATOM     23  O   UNL     1      -0.031   9.505  21.593  0.00  0.00    +0.000 OA
ENDBRANCH  10  23
ENDBRANCH   1  15
BRANCH   7  24
ATOM     24  C   UNL     1       3.666  14.585  19.221  0.00  0.00    +0.000 A 
ATOM     25  C   UNL     1       4.512  14.844  18.140  0.00  0.00    +0.000 A 
ATOM     26  C   UNL     1       5.793  15.314  18.391  0.00  0.00    +0.000 A 
ATOM     27  N   UNL     1       6.321  15.559  19.612  0.00  0.00    +0.000 NA
ATOM     28  C   UNL     1       5.466  15.299  20.618  0.00  0.00    +0.000 A 
ATOM     29  N   UNL     1       5.765  15.467  21.942  0.00  0.00    +0.000 N 
ATOM     30  C   UNL     1       4.685  15.114  22.710  0.00  0.00    +0.000 A 
ATOM     31  C   UNL     1       3.675  14.714  21.857  0.00  0.00    +0.000 A 
ATOM     32  C   UNL     1       4.160  14.825  20.521  0.00  0.00    +0.000 A 
ATOM     33  H   UNL     1       6.657  15.802  22.272  0.00  0.00    +0.000 HD
ENDBRANCH   7  24
TORSDOF 3
ENDMDL
MODEL 3
REMARK VINA RESULT:      -7.9      4.149      7.713
REMARK  Name = 
REMARK  5 active torsions:
REMARK  status: ('A' for Active; 'I' for Inactive)
REMARK    1  A    between atoms: C_1  and  O_2
REMARK    2  A    between atoms: O_2  and  C_3
REMARK    3  A    between atoms: C_8  and  C_9
REMARK    4  A    between atoms: C_15  and  C_16
REMARK    5  A    between atoms: C_29  and  C_30
REMARK                            x       y       z     vdW  Elec       q    Type
REMARK                         _______ _______ _______ _____ _____    ______ ____
ROOT
ATOM      1  C   UNL     1       4.279   3.936  18.978  0.00  0.00    +0.000 A 
ATOM      2  C   UNL     1       4.158   2.812  19.827  0.00  0.00    +0.000 A 
ATOM      3  N   UNL     1       3.261   2.969  20.796  0.00  0.00    +0.000 NA
ATOM      4  N   UNL     1       2.759   4.211  20.598  0.00  0.00    +0.000 N 
ATOM      5  C   UNL     1       1.754   4.825  21.346  0.00  0.00    +0.000 A 
ATOM      6  C   UNL     1       1.365   6.080  21.064  0.00  0.00    +0.000 A 
ATOM      7  C   UNL     1       2.016   6.802  19.975  0.00  0.00    +0.000 A 
ATOM      8  C   UNL     1       2.950   6.184  19.215  0.00  0.00    +0.000 A 
ATOM      9  C   UNL     1       3.376   4.846  19.512  0.00  0.00    +0.000 A 
ENDROOT
BRANCH   1  15
ATOM     10  C   UNL     1       6.471   4.604  17.915  0.00  0.00    +0.000 A 
ATOM     11  C   UNL     1       7.273   4.745  16.771  0.00  0.00    +0.000 A 
ATOM     12  C   UNL     1       6.741   4.423  15.537  0.00  0.00    +0.000 A 
ATOM     13  C   UNL     1       5.429   3.972  15.414  0.00  0.00    +0.000 A 
ATOM     14  C   UNL     1       4.614   3.844  16.523  0.00  0.00    +0.000 A 
ATOM     15  C   UNL     1       5.132   4.123  17.802  0.00  0.00    +0.000 A 
ATOM     16  C   UNL     1       5.118   3.668  13.984  0.00  0.00    +0.000 C 
ATOM     17  N   UNL     1       6.352   4.023  13.288  0.00  0.00    +0.000 N 
ATOM     18  C   UNL     1       6.438   3.906  11.924  0.00  0.00    +0.000 C 
ATOM     19  C   UNL     1       7.733   4.301  11.261  0.00  0.00    +0.000 C 
ATOM     20  O   UNL     1       5.494   3.498  11.247  0.00  0.00    +0.000 OA
ATOM     21  C   UNL     1       7.395   4.487  14.198  0.00  0.00    +0.000 C 
BRANCH  10  23
ATOM     22  C   UNL     1       7.874   5.950  19.290  0.00  0.00    +0.000 C 
ATOM     23  O   UNL     1       6.959   4.864  19.176  0.00  0.00    +0.000 OA
ENDBRANCH  10  23
ENDBRANCH   1  15
BRANCH   7  24
ATOM     24  C   UNL     1       1.666   8.190  19.638  0.00  0.00    +0.000 A 
ATOM     25  C   UNL     1       1.927   8.744  18.382  0.00  0.00    +0.000 A 
ATOM     26  C   UNL     1       1.566  10.062  18.143  0.00  0.00    +0.000 A 
ATOM     27  N   UNL     1       0.963  10.890  19.027  0.00  0.00    +0.000 NA
ATOM     28  C   UNL     1       0.728  10.308  20.218  0.00  0.00    +0.000 A 
ATOM     29  N   UNL     1       0.129  10.938  21.274  0.00  0.00    +0.000 N 
ATOM     30  C   UNL     1       0.038  10.075  22.337  0.00  0.00    +0.000 A 
ATOM     31  C   UNL     1       0.589   8.870  21.949  0.00  0.00    +0.000 A 
ATOM     32  C   UNL     1       1.034   9.005  20.601  0.00  0.00    +0.000 A 
ATOM     33  H   UNL     1      -0.186  11.895  21.245  0.00  0.00    +0.000 HD
ENDBRANCH   7  24
TORSDOF 3
ENDMDL
MODEL 4
REMARK VINA RESULT:      -7.7      3.259      5.956
REMARK  Name = 
REMARK  5 active torsions:
REMARK  status: ('A' for Active; 'I' for Inactive)
REMARK    1  A    between atoms: C_1  and  O_2
REMARK    2  A    between atoms: O_2  and  C_3
REMARK    3  A    between atoms: C_8  and  C_9
REMARK    4  A    between atoms: C_15  and  C_16
REMARK    5  A    between atoms: C_29  and  C_30
REMARK                            x       y       z     vdW  Elec       q    Type
REMARK                         _______ _______ _______ _____ _____    ______ ____
ROOT
ATOM      1  C   UNL     1       1.052  11.761  19.776  0.00  0.00    +0.000 A 
ATOM      2  C   UNL     1       1.966  12.719  19.281  0.00  0.00    +0.000 A 
ATOM      3  N   UNL     1       1.461  13.946  19.195  0.00  0.00    +0.000 NA
ATOM      4  N   UNL     1       0.190  13.823  19.647  0.00  0.00    +0.000 N 
ATOM      5  C   UNL     1      -0.741  14.853  19.782  0.00  0.00    +0.000 A 
ATOM      6  C   UNL     1      -1.987  14.593  20.215  0.00  0.00    +0.000 A 
ATOM      7  C   UNL     1      -2.361  13.217  20.530  0.00  0.00    +0.000 A 
ATOM      8  C   UNL     1      -1.438  12.229  20.453  0.00  0.00    +0.000 A 
ATOM      9  C   UNL     1      -0.108  12.497  19.985  0.00  0.00    +0.000 A 
ENDROOT
BRANCH   1  15
ATOM     10  C   UNL     1       0.978   9.751  21.303  0.00  0.00    +0.000 A 
ATOM     11  C   UNL     1       1.152   8.372  21.506  0.00  0.00    +0.000 A 
ATOM     12  C   UNL     1       1.601   7.593  20.457  0.00  0.00    +0.000 A 
ATOM     13  C   UNL     1       1.888   8.155  19.216  0.00  0.00    +0.000 A 
ATOM     14  C   UNL     1       1.744   9.511  18.997  0.00  0.00    +0.000 A 
ATOM     15  C   UNL     1       1.250  10.333  20.030  0.00  0.00    +0.000 A 
ATOM     16  C   UNL     1       2.323   7.094  18.256  0.00  0.00    +0.000 C 
ATOM     17  N   UNL     1       2.302   5.878  19.065  0.00  0.00    +0.000 N 
ATOM     18  C   UNL     1       2.680   4.677  18.523  0.00  0.00    +0.000 C 
ATOM     19  C   UNL     1       2.650   3.459  19.411  0.00  0.00    +0.000 C 
ATOM     20  O   UNL     1       3.040   4.579  17.350  0.00  0.00    +0.000 OA
ATOM     21  C   UNL     1       1.853   6.124  20.433  0.00  0.00    +0.000 C 
BRANCH  10  23
ATOM     22  C   UNL     1      -0.500  10.009  23.153  0.00  0.00    +0.000 C 
ATOM     23  O   UNL     1       0.490  10.571  22.296  0.00  0.00    +0.000 OA
ENDBRANCH  10  23
ENDBRANCH   1  15
BRANCH   7  24
ATOM     24  C   UNL     1      -3.716  12.857  20.973  0.00  0.00    +0.000 A 
ATOM     25  C   UNL     1      -4.752  12.593  20.073  0.00  0.00    +0.000 A 
ATOM     26  C   UNL     1      -6.003  12.260  20.572  0.00  0.00    +0.000 A 
ATOM     27  N   UNL     1      -6.332  12.157  21.880  0.00  0.00    +0.000 NA
ATOM     28  C   UNL     1      -5.300  12.415  22.704  0.00  0.00    +0.000 A 
ATOM     29  N   UNL     1      -5.380  12.376  24.069  0.00  0.00    +0.000 N 
ATOM     30  C   UNL     1      -4.161  12.687  24.614  0.00  0.00    +0.000 A 
ATOM     31  C   UNL     1      -3.284  12.929  23.575  0.00  0.00    +0.000 A 
ATOM     32  C   UNL     1      -3.998  12.761  22.352  0.00  0.00    +0.000 A 
ATOM     33  H   UNL     1      -6.225  12.148  24.571  0.00  0.00    +0.000 HD
ENDBRANCH   7  24
TORSDOF 3
ENDMDL
MODEL 5
REMARK VINA RESULT:      -7.7      4.217      6.473
REMARK  Name = 
REMARK  5 active torsions:
REMARK  status: ('A' for Active; 'I' for Inactive)
REMARK    1  A    between atoms: C_1  and  O_2
REMARK    2  A    between atoms: O_2  and  C_3
REMARK    3  A    between atoms: C_8  and  C_9
REMARK    4  A    between atoms: C_15  and  C_16
REMARK    5  A    between atoms: C_29  and  C_30
REMARK                            x       y       z     vdW  Elec       q    Type
REMARK                         _______ _______ _______ _____ _____    ______ ____
ROOT
ATOM      1  C   UNL     1       0.815   9.126  21.058  0.00  0.00    +0.000 A 
ATOM      2  C   UNL     1       1.114   9.635  22.342  0.00  0.00    +0.000 A 
ATOM      3  N   UNL     1       0.361  10.672  22.696  0.00  0.00    +0.000 NA
ATOM      4  N   UNL     1      -0.469  10.864  21.642  0.00  0.00    +0.000 N 
ATOM      5  C   UNL     1      -1.476  11.824  21.549  0.00  0.00    +0.000 A 
ATOM      6  C   UNL     1      -2.214  11.933  20.431  0.00  0.00    +0.000 A 
ATOM      7  C   UNL     1      -1.938  11.044  19.305  0.00  0.00    +0.000 A 
ATOM      8  C   UNL     1      -0.999  10.076  19.420  0.00  0.00    +0.000 A 
ATOM      9  C   UNL     1      -0.203   9.957  20.608  0.00  0.00    +0.000 A 
ENDROOT
BRANCH   1  15
ATOM     10  C   UNL     1       2.207   8.171  19.179  0.00  0.00    +0.000 A 
ATOM     11  C   UNL     1       2.786   7.064  18.538  0.00  0.00    +0.000 A 
ATOM     12  C   UNL     1       2.559   5.800  19.049  0.00  0.00    +0.000 A 
ATOM     13  C   UNL     1       1.765   5.613  20.177  0.00  0.00    +0.000 A 
ATOM     14  C   UNL     1       1.168   6.684  20.814  0.00  0.00    +0.000 A 
ATOM     15  C   UNL     1       1.409   7.991  20.347  0.00  0.00    +0.000 A 
ATOM     16  C   UNL     1       1.709   4.163  20.535  0.00  0.00    +0.000 C 
ATOM     17  N   UNL     1       2.506   3.526  19.489  0.00  0.00    +0.000 N 
ATOM     18  C   UNL     1       2.659   2.164  19.466  0.00  0.00    +0.000 C 
ATOM     19  C   UNL     1       3.482   1.563  18.355  0.00  0.00    +0.000 C 
ATOM     20  O   UNL     1       2.144   1.438  20.317  0.00  0.00    +0.000 OA
ATOM     21  C   UNL     1       3.066   4.491  18.548  0.00  0.00    +0.000 C 
BRANCH  10  23
ATOM     22  C   UNL     1       1.843   9.820  17.500  0.00  0.00    +0.000 C 
ATOM     23  O   UNL     1       2.434   9.457  18.744  0.00  0.00    +0.000 OA
ENDBRANCH  10  23
ENDBRANCH   1  15
BRANCH   7  24
ATOM     24  C   UNL     1      -2.681  11.133  18.039  0.00  0.00    +0.000 A 
ATOM     25  C   UNL     1      -2.101  10.820  16.807  0.00  0.00    +0.000 A 
ATOM     26  C   UNL     1      -2.870  10.930  15.658  0.00  0.00    +0.000 A 
ATOM     27  N   UNL     1      -4.165  11.318  15.606  0.00  0.00    +0.000 NA
ATOM     28  C   UNL     1      -4.678  11.603  16.817  0.00  0.00    +0.000 A 
ATOM     29  N   UNL     1      -5.965  12.016  17.027  0.00  0.00    +0.000 N 
ATOM     30  C   UNL     1      -6.173  12.223  18.366  0.00  0.00    +0.000 A 
ATOM     31  C   UNL     1      -4.994  11.935  19.025  0.00  0.00    +0.000 A 
ATOM     32  C   UNL     1      -4.032  11.540  18.049  0.00  0.00    +0.000 A 
ATOM     33  H   UNL     1      -6.637  12.140  16.286  0.00  0.00    +0.000 HD
ENDBRANCH   7  24
TORSDOF 3
ENDMDL
MODEL 6
REMARK VINA RESULT:      -7.6      2.129      3.300
REMARK  Name = 
REMARK  5 active torsions:
REMARK  status: ('A' for Active; 'I' for Inactive)
REMARK    1  A    between atoms: C_1  and  O_2
REMARK    2  A    between atoms: O_2  and  C_3
REMARK    3  A    between atoms: C_8  and  C_9
REMARK    4  A    between atoms: C_15  and  C_16
REMARK    5  A    between atoms: C_29  and  C_30
REMARK                            x       y       z     vdW  Elec       q    Type
REMARK                         _______ _______ _______ _____ _____    ______ ____
ROOT
ATOM      1  C   UNL     1       0.397   9.666  21.115  0.00  0.00    +0.000 A 
ATOM      2  C   UNL     1      -0.498   9.233  22.119  0.00  0.00    +0.000 A 
ATOM      3  N   UNL     1      -1.017  10.224  22.837  0.00  0.00    +0.000 NA
ATOM      4  N   UNL     1      -0.475  11.347  22.308  0.00  0.00    +0.000 N 
ATOM      5  C   UNL     1      -0.740  12.658  22.705  0.00  0.00    +0.000 A 
ATOM      6  C   UNL     1      -0.109  13.689  22.117  0.00  0.00    +0.000 A 
ATOM      7  C   UNL     1       0.870  13.422  21.067  0.00  0.00    +0.000 A 
ATOM      8  C   UNL     1       1.083  12.153  20.645  0.00  0.00    +0.000 A 
ATOM      9  C   UNL     1       0.418  11.047  21.272  0.00  0.00    +0.000 A 
ENDROOT
BRANCH   1  15
ATOM     10  C   UNL     1       1.138   9.223  18.741  0.00  0.00    +0.000 A 
ATOM     11  C   UNL     1       1.878   8.463  17.821  0.00  0.00    +0.000 A 
ATOM     12  C   UNL     1       2.591   7.371  18.277  0.00  0.00    +0.000 A 
ATOM     13  C   UNL     1       2.579   7.014  19.622  0.00  0.00    +0.000 A 
ATOM     14  C   UNL     1       1.842   7.734  20.543  0.00  0.00    +0.000 A 
ATOM     15  C   UNL     1       1.134   8.878  20.125  0.00  0.00    +0.000 A 
ATOM     16  C   UNL     1       3.451   5.822  19.850  0.00  0.00    +0.000 C 
ATOM     17  N   UNL     1       3.935   5.497  18.510  0.00  0.00    +0.000 N 
ATOM     18  C   UNL     1       4.756   4.418  18.311  0.00  0.00    +0.000 C 
ATOM     19  C   UNL     1       5.212   4.125  16.904  0.00  0.00    +0.000 C 
ATOM     20  O   UNL     1       5.116   3.695  19.241  0.00  0.00    +0.000 OA
ATOM     21  C   UNL     1       3.444   6.428  17.497  0.00  0.00    +0.000 C 
BRANCH  10  23
ATOM     22  C   UNL     1      -0.863  10.140  17.831  0.00  0.00    +0.000 C 
ATOM     23  O   UNL     1       0.445  10.349  18.356  0.00  0.00    +0.000 OA
ENDBRANCH  10  23
ENDBRANCH   1  15
BRANCH   7  24
ATOM     24  C   UNL     1       1.624  14.500  20.408  0.00  0.00    +0.000 A 
ATOM     25  C   UNL     1       3.002  14.658  20.573  0.00  0.00    +0.000 A 
ATOM     26  C   UNL     1       3.639  15.701  19.917  0.00  0.00    +0.000 A 
ATOM     27  N   UNL     1       3.045  16.606  19.105  0.00  0.00    +0.000 NA
ATOM     28  C   UNL     1       1.720  16.408  18.976  0.00  0.00    +0.000 A 
ATOM     29  N   UNL     1       0.899  17.188  18.209  0.00  0.00    +0.000 N 
ATOM     30  C   UNL     1      -0.390  16.724  18.290  0.00  0.00    +0.000 A 
ATOM     31  C   UNL     1      -0.389  15.623  19.124  0.00  0.00    +0.000 A 
ATOM     32  C   UNL     1       0.949  15.411  19.569  0.00  0.00    +0.000 A 
ATOM     33  H   UNL     1       1.222  17.980  17.676  0.00  0.00    +0.000 HD
ENDBRANCH   7  24
TORSDOF 3
ENDMDL
MODEL 7
REMARK VINA RESULT:      -7.6      1.225      2.114
REMARK  Name = 
REMARK  5 active torsions:
REMARK  status: ('A' for Active; 'I' for Inactive)
REMARK    1  A    between atoms: C_1  and  O_2
REMARK    2  A    between atoms: O_2  and  C_3
REMARK    3  A    between atoms: C_8  and  C_9
REMARK    4  A    between atoms: C_15  and  C_16
REMARK    5  A    between atoms: C_29  and  C_30
REMARK                            x       y       z     vdW  Elec       q    Type
REMARK                         _______ _______ _______ _____ _____    ______ ____
ROOT
ATOM      1  C   UNL     1       0.373  11.993  19.709  0.00  0.00    +0.000 A 
ATOM      2  C   UNL     1      -0.940  12.511  19.642  0.00  0.00    +0.000 A 
ATOM      3  N   UNL     1      -0.990  13.805  19.343  0.00  0.00    +0.000 NA
ATOM      4  N   UNL     1       0.306  14.170  19.195  0.00  0.00    +0.000 N 
ATOM      5  C   UNL     1       0.773  15.436  18.842  0.00  0.00    +0.000 A 
ATOM      6  C   UNL     1       2.093  15.678  18.759  0.00  0.00    +0.000 A 
ATOM      7  C   UNL     1       3.035  14.603  19.056  0.00  0.00    +0.000 A 
ATOM      8  C   UNL     1       2.579  13.361  19.342  0.00  0.00    +0.000 A 
ATOM      9  C   UNL     1       1.172  13.096  19.439  0.00  0.00    +0.000 A 
ENDROOT
BRANCH   1  15
ATOM     10  C   UNL     1       0.729  10.053  21.288  0.00  0.00    +0.000 A 
ATOM     11  C   UNL     1       1.138   8.729  21.513  0.00  0.00    +0.000 A 
ATOM     12  C   UNL     1       1.638   7.995  20.455  0.00  0.00    +0.000 A 
ATOM     13  C   UNL     1       1.748   8.549  19.182  0.00  0.00    +0.000 A 
ATOM     14  C   UNL     1       1.371   9.857  18.941  0.00  0.00    +0.000 A 
ATOM     15  C   UNL     1       0.818  10.625  19.984  0.00  0.00    +0.000 A 
ATOM     16  C   UNL     1       2.286   7.539  18.221  0.00  0.00    +0.000 C 
ATOM     17  N   UNL     1       2.516   6.365  19.061  0.00  0.00    +0.000 N 
ATOM     18  C   UNL     1       3.049   5.222  18.524  0.00  0.00    +0.000 C 
ATOM     19  C   UNL     1       3.276   4.048  19.442  0.00  0.00    +0.000 C 
ATOM     20  O   UNL     1       3.343   5.141  17.331  0.00  0.00    +0.000 OA
ATOM     21  C   UNL     1       2.124   6.585  20.450  0.00  0.00    +0.000 C 
BRANCH  10  23
ATOM     22  C   UNL     1      -0.796  10.184  23.113  0.00  0.00    +0.000 C 
ATOM     23  O   UNL     1       0.179  10.819  22.292  0.00  0.00    +0.000 OA
ENDBRANCH  10  23
ENDBRANCH   1  15
BRANCH   7  24
ATOM     24  C   UNL     1       4.492  14.809  19.020  0.00  0.00    +0.000 A 
ATOM     25  C   UNL     1       5.227  14.748  17.834  0.00  0.00    +0.000 A 
ATOM     26  C   UNL     1       6.598  14.953  17.885  0.00  0.00    +0.000 A 
ATOM     27  N   UNL     1       7.318  15.218  19.000  0.00  0.00    +0.000 NA
ATOM     28  C   UNL     1       6.564  15.271  20.113  0.00  0.00    +0.000 A 
ATOM     29  N   UNL     1       7.058  15.524  21.363  0.00  0.00    +0.000 N 
ATOM     30  C   UNL     1       6.036  15.508  22.278  0.00  0.00    +0.000 A 
ATOM     31  C   UNL     1       4.865  15.241  21.596  0.00  0.00    +0.000 A 
ATOM     32  C   UNL     1       5.187  15.086  20.216  0.00  0.00    +0.000 A 
ATOM     33  H   UNL     1       8.034  15.692  21.552  0.00  0.00    +0.000 HD
ENDBRANCH   7  24
TORSDOF 3
ENDMDL
MODEL 8
REMARK VINA RESULT:      -7.5      3.645      6.901
REMARK  Name = 
REMARK  5 active torsions:
REMARK  status: ('A' for Active; 'I' for Inactive)
REMARK    1  A    between atoms: C_1  and  O_2
REMARK    2  A    between atoms: O_2  and  C_3
REMARK    3  A    between atoms: C_8  and  C_9
REMARK    4  A    between atoms: C_15  and  C_16
REMARK    5  A    between atoms: C_29  and  C_30
REMARK                            x       y       z     vdW  Elec       q    Type
REMARK                         _______ _______ _______ _____ _____    ______ ____
ROOT
ATOM      1  C   UNL     1       0.019  12.731  20.973  0.00  0.00    +0.000 A 
ATOM      2  C   UNL     1       0.709  13.785  21.614  0.00  0.00    +0.000 A 
ATOM      3  N   UNL     1      -0.092  14.701  22.149  0.00  0.00    +0.000 NA
ATOM      4  N   UNL     1      -1.343  14.260  21.876  0.00  0.00    +0.000 N 
ATOM      5  C   UNL     1      -2.536  14.869  22.265  0.00  0.00    +0.000 A 
ATOM      6  C   UNL     1      -3.720  14.344  21.902  0.00  0.00    +0.000 A 
ATOM      7  C   UNL     1      -3.743  13.136  21.083  0.00  0.00    +0.000 A 
ATOM      8  C   UNL     1      -2.585  12.516  20.756  0.00  0.00    +0.000 A 
ATOM      9  C   UNL     1      -1.318  13.072  21.134  0.00  0.00    +0.000 A 
ENDROOT
BRANCH   1  15
ATOM     10  C   UNL     1       1.016  11.589  18.953  0.00  0.00    +0.000 A 
ATOM     11  C   UNL     1       1.550  10.441  18.346  0.00  0.00    +0.000 A 
ATOM     12  C   UNL     1       1.608   9.267  19.073  0.00  0.00    +0.000 A 
ATOM     13  C   UNL     1       1.142   9.207  20.383  0.00  0.00    +0.000 A 
ATOM     14  C   UNL     1       0.594  10.319  20.994  0.00  0.00    +0.000 A 
ATOM     15  C   UNL     1       0.554  11.544  20.301  0.00  0.00    +0.000 A 
ATOM     16  C   UNL     1       1.349   7.838  20.945  0.00  0.00    +0.000 C 
ATOM     17  N   UNL     1       1.938   7.101  19.830  0.00  0.00    +0.000 N 
ATOM     18  C   UNL     1       2.244   5.771  19.961  0.00  0.00    +0.000 C 
ATOM     19  C   UNL     1       2.838   5.062  18.770  0.00  0.00    +0.000 C 
ATOM     20  O   UNL     1       2.043   5.159  21.010  0.00  0.00    +0.000 OA
ATOM     21  C   UNL     1       2.132   7.937  18.648  0.00  0.00    +0.000 C 
BRANCH  10  23
ATOM     22  C   UNL     1       2.216  13.481  18.143  0.00  0.00    +0.000 C 
ATOM     23  O   UNL     1       0.974  12.799  18.296  0.00  0.00    +0.000 OA
ENDBRANCH  10  23
ENDBRANCH   1  15
BRANCH   7  24
ATOM     24  C   UNL     1      -5.001  12.530  20.619  0.00  0.00    +0.000 A 
ATOM     25  C   UNL     1      -6.111  12.380  21.454  0.00  0.00    +0.000 A 
ATOM     26  C   UNL     1      -7.261  11.798  20.940  0.00  0.00    +0.000 A 
ATOM     27  N   UNL     1      -7.424  11.350  19.674  0.00  0.00    +0.000 NA
ATOM     28  C   UNL     1      -6.329  11.522  18.910  0.00  0.00    +0.000 A 
ATOM     29  N   UNL     1      -6.245  11.152  17.596  0.00  0.00    +0.000 N 
ATOM     30  C   UNL     1      -5.002  11.461  17.106  0.00  0.00    +0.000 A 
ATOM     31  C   UNL     1      -4.279  12.042  18.129  0.00  0.00    +0.000 A 
ATOM     32  C   UNL     1      -5.112  12.085  19.285  0.00  0.00    +0.000 A 
ATOM     33  H   UNL     1      -7.002  10.719  17.091  0.00  0.00    +0.000 HD
ENDBRANCH   7  24
TORSDOF 3
ENDMDL
MODEL 9
REMARK VINA RESULT:      -7.4      1.981      2.977
REMARK  Name = 
REMARK  5 active torsions:
REMARK  status: ('A' for Active; 'I' for Inactive)
REMARK    1  A    between atoms: C_1  and  O_2
REMARK    2  A    between atoms: O_2  and  C_3
REMARK    3  A    between atoms: C_8  and  C_9
REMARK    4  A    between atoms: C_15  and  C_16
REMARK    5  A    between atoms: C_29  and  C_30
REMARK                            x       y       z     vdW  Elec       q    Type
REMARK                         _______ _______ _______ _____ _____    ______ ____
ROOT
ATOM      1  C   UNL     1       0.416   9.588  21.141  0.00  0.00    +0.000 A 
ATOM      2  C   UNL     1      -0.422   9.142  22.188  0.00  0.00    +0.000 A 
ATOM      3  N   UNL     1      -0.956  10.128  22.903  0.00  0.00    +0.000 NA
ATOM      4  N   UNL     1      -0.482  11.259  22.327  0.00  0.00    +0.000 N 
ATOM      5  C   UNL     1      -0.789  12.567  22.703  0.00  0.00    +0.000 A 
ATOM      6  C   UNL     1      -0.225  13.609  22.068  0.00  0.00    +0.000 A 
ATOM      7  C   UNL     1       0.724  13.358  20.987  0.00  0.00    +0.000 A 
ATOM      8  C   UNL     1       0.975  12.089  20.587  0.00  0.00    +0.000 A 
ATOM      9  C   UNL     1       0.383  10.971  21.264  0.00  0.00    +0.000 A 
ENDROOT
BRANCH   1  15
ATOM     10  C   UNL     1       1.140   9.158  18.760  0.00  0.00    +0.000 A 
ATOM     11  C   UNL     1       1.877   8.404  17.831  0.00  0.00    +0.000 A 
ATOM     12  C   UNL     1       2.598   7.314  18.276  0.00  0.00    +0.000 A 
ATOM     13  C   UNL     1       2.599   6.951  19.621  0.00  0.00    +0.000 A 
ATOM     14  C   UNL     1       1.866   7.665  20.550  0.00  0.00    +0.000 A 
ATOM     15  C   UNL     1       1.149   8.807  20.142  0.00  0.00    +0.000 A 
ATOM     16  C   UNL     1       3.479   5.763  19.837  0.00  0.00    +0.000 C 
ATOM     17  N   UNL     1       3.953   5.446  18.492  0.00  0.00    +0.000 N 
ATOM     18  C   UNL     1       4.778   4.371  18.282  0.00  0.00    +0.000 C 
ATOM     19  C   UNL     1       5.224   4.087  16.870  0.00  0.00    +0.000 C 
ATOM     20  O   UNL     1       5.148   3.647  19.206  0.00  0.00    +0.000 OA
ATOM     21  C   UNL     1       3.450   6.378  17.487  0.00  0.00    +0.000 C 
BRANCH  10  23
ATOM     22  C   UNL     1      -0.831  10.063  17.776  0.00  0.00    +0.000 C 
ATOM     23  O   UNL     1       0.439  10.281  18.384  0.00  0.00    +0.000 OA
ENDBRANCH  10  23
ENDBRANCH   1  15
BRANCH   7  24
ATOM     24  C   UNL     1       1.405  14.450  20.275  0.00  0.00    +0.000 A 
ATOM     25  C   UNL     1       0.755  15.246  19.328  0.00  0.00    +0.000 A 
ATOM     26  C   UNL     1       1.469  16.256  18.700  0.00  0.00    +0.000 A 
ATOM     27  N   UNL     1       2.768  16.562  18.920  0.00  0.00    +0.000 NA
ATOM     28  C   UNL     1       3.347  15.771  19.842  0.00  0.00    +0.000 A 
ATOM     29  N   UNL     1       4.651  15.882  20.239  0.00  0.00    +0.000 N 
ATOM     30  C   UNL     1       4.930  14.931  21.187  0.00  0.00    +0.000 A 
ATOM     31  C   UNL     1       3.778  14.201  21.403  0.00  0.00    +0.000 A 
ATOM     32  C   UNL     1       2.762  14.724  20.550  0.00  0.00    +0.000 A 
ATOM     33  H   UNL     1       5.288  16.570  19.868  0.00  0.00    +0.000 HD
ENDBRANCH   7  24
TORSDOF 3
ENDMDL
