MODEL 1
REMARK VINA RESULT:      -7.9      0.000      0.000
REMARK  Name = 
REMARK  4 active torsions:
REMARK  status: ('A' for Active; 'I' for Inactive)
REMARK    1  A    between atoms: C_1  and  C_2
REMARK    2  A    between atoms: C_8  and  N_9
REMARK    3  A    between atoms: C_10  and  C_12
REMARK    4  A    between atoms: C_13  and  C_14
REMARK                            x       y       z     vdW  Elec       q    Type
REMARK                         _______ _______ _______ _____ _____    ______ ____
ROOT
ATOM      1  C   UNL     1       3.918   6.208  18.302  0.00  0.00    +0.000 A 
ATOM      2  C   UNL     1       5.250   6.186  17.879  0.00  0.00    +0.000 A 
ATOM      3  C   UNL     1       6.154   7.139  17.188  0.00  0.00    +0.000 C 
ATOM      4  O   UNL     1       5.856   5.013  18.213  0.00  0.00    +0.000 OA
ATOM      5  C   UNL     1       4.953   4.248  18.873  0.00  0.00    +0.000 A 
ATOM      6  C   UNL     1       3.743   4.933  18.921  0.00  0.00    +0.000 A 
ATOM      7  C   UNL     1       2.665   4.277  19.588  0.00  0.00    +0.000 C 
ATOM      8  N   UNL     1       1.452   4.721  19.696  0.00  0.00    +0.000 NA
ATOM      9  C   UNL     1       0.799   3.631  20.501  0.00  0.00    +0.000 C 
ATOM     10  C   UNL     1       1.850   2.530  20.772  0.00  0.00    +0.000 C 
ATOM     11  N   UNL     1       3.013   3.079  20.132  0.00  0.00    +0.000 N 
ATOM     12  C   UNL     1       4.250   2.501  20.032  0.00  0.00    +0.000 C 
ATOM     13  N   UNL     1       5.262   3.025  19.402  0.00  0.00    +0.000 NA
ENDROOT
BRANCH   1  15
ATOM     14  N   UNL     1       2.226   7.716  19.228  0.00  0.00    +0.000 N 
ATOM     15  C   UNL     1       3.019   7.359  18.138  0.00  0.00    +0.000 C 
ATOM     16  O   UNL     1       3.010   7.951  17.064  0.00  0.00    +0.000 OA
ATOM     17  H   UNL     1       2.291   7.131  20.061  0.00  0.00    +0.000 HD
BRANCH  14  25
ATOM     18  C   UNL     1       1.314   8.695  21.900  0.00  0.00    +0.000 C 
ATOM     19  C   UNL     1       0.918   9.316  20.585  0.00  0.00    +0.000 A 
ATOM     20  C   UNL     1       0.088  10.455  20.654  0.00  0.00    +0.000 A 
ATOM     21  C   UNL     1      -0.334  11.097  19.499  0.00  0.00    +0.000 A 
ATOM     22  F   UNL     1      -1.123  12.175  19.587  0.00  0.00    +0.000 F 
ATOM     23  C   UNL     1       0.058  10.634  18.259  0.00  0.00    +0.000 A 
ATOM     24  C   UNL     1       0.892   9.514  18.175  0.00  0.00    +0.000 A 
ATOM     25  C   UNL     1       1.347   8.838  19.320  0.00  0.00    +0.000 A 
ENDBRANCH  14  25
ENDBRANCH   1  15
TORSDOF 2
ENDMDL
MODEL 2
REMARK VINA RESULT:      -7.9      1.431      1.444
REMARK  Name = 
REMARK  4 active torsions:
REMARK  status: ('A' for Active; 'I' for Inactive)
REMARK    1  A    between atoms: C_1  and  C_2
REMARK    2  A    between atoms: C_8  and  N_9
REMARK    3  A    between atoms: C_10  and  C_12
REMARK    4  A    between atoms: C_13  and  C_14
REMARK                            x       y       z     vdW  Elec       q    Type
REMARK                         _______ _______ _______ _____ _____    ______ ____
ROOT
ATOM      1  C   UNL     1       3.819   5.518  17.510  0.00  0.00    +0.000 A 
ATOM      2  C   UNL     1       4.664   5.102  16.478  0.00  0.00    +0.000 A 
ATOM      3  C   UNL     1       5.503   5.783  15.460  0.00  0.00    +0.000 C 
ATOM      4  O   UNL     1       4.749   3.744  16.425  0.00  0.00    +0.000 OA
ATOM      5  C   UNL     1       3.983   3.237  17.421  0.00  0.00    +0.000 A 
ATOM      6  C   UNL     1       3.371   4.293  18.091  0.00  0.00    +0.000 A 
ATOM      7  C   UNL     1       2.521   3.948  19.184  0.00  0.00    +0.000 C 
ATOM      8  N   UNL     1       1.824   4.775  19.899  0.00  0.00    +0.000 NA
ATOM      9  C   UNL     1       1.169   3.849  20.884  0.00  0.00    +0.000 C 
ATOM     10  C   UNL     1       1.605   2.401  20.557  0.00  0.00    +0.000 C 
ATOM     11  N   UNL     1       2.484   2.612  19.441  0.00  0.00    +0.000 N 
ATOM     12  C   UNL     1       3.142   1.655  18.716  0.00  0.00    +0.000 C 
ATOM     13  N   UNL     1       3.896   1.897  17.684  0.00  0.00    +0.000 NA
ENDROOT
BRANCH   1  15
ATOM     14  N   UNL     1       2.274   7.277  18.228  0.00  0.00    +0.000 N 
ATOM     15  C   UNL     1       3.571   6.925  17.856  0.00  0.00    +0.000 C 
ATOM     16  O   UNL     1       4.506   7.718  17.809  0.00  0.00    +0.000 OA
ATOM     17  H   UNL     1       1.568   6.541  18.200  0.00  0.00    +0.000 HD
BRANCH  14  25
ATOM     18  C   UNL     1       1.295   7.625  21.030  0.00  0.00    +0.000 C 
ATOM     19  C   UNL     1       1.369   8.732  20.010  0.00  0.00    +0.000 A 
ATOM     20  C   UNL     1       0.977  10.016  20.447  0.00  0.00    +0.000 A 
ATOM     21  C   UNL     1       1.007  11.100  19.582  0.00  0.00    +0.000 A 
ATOM     22  F   UNL     1       0.627  12.308  20.017  0.00  0.00    +0.000 F 
ATOM     23  C   UNL     1       1.428  10.942  18.277  0.00  0.00    +0.000 A 
ATOM     24  C   UNL     1       1.834   9.680  17.833  0.00  0.00    +0.000 A 
ATOM     25  C   UNL     1       1.825   8.556  18.678  0.00  0.00    +0.000 A 
ENDBRANCH  14  25
ENDBRANCH   1  15
TORSDOF 2
ENDMDL
MODEL 3
REMARK VINA RESULT:      -7.6      3.667      7.763
REMARK  Name = 
REMARK  4 active torsions:
REMARK  status: ('A' for Active; 'I' for Inactive)
REMARK    1  A    between atoms: C_1  and  C_2
REMARK    2  A    between atoms: C_8  and  N_9
REMARK    3  A    between atoms: C_10  and  C_12
REMARK    4  A    between atoms: C_13  and  C_14
REMARK                            x       y       z     vdW  Elec       q    Type
REMARK                         _______ _______ _______ _____ _____    ______ ____
ROOT
ATOM      1  C   UNL     1       0.840   9.869  20.064  0.00  0.00    +0.000 A 
ATOM      2  C   UNL     1       0.038   9.526  21.155  0.00  0.00    +0.000 A 
ATOM      3  C   UNL     1      -0.507   8.262  21.709  0.00  0.00    +0.000 C 
ATOM      4  O   UNL     1      -0.292  10.624  21.891  0.00  0.00    +0.000 OA
ATOM      5  C   UNL     1       0.293  11.703  21.318  0.00  0.00    +0.000 A 
ATOM      6  C   UNL     1       0.972  11.286  20.177  0.00  0.00    +0.000 A 
ATOM      7  C   UNL     1       1.659  12.297  19.439  0.00  0.00    +0.000 C 
ATOM      8  N   UNL     1       2.303  12.124  18.327  0.00  0.00    +0.000 NA
ATOM      9  C   UNL     1       2.817  13.510  18.054  0.00  0.00    +0.000 C 
ATOM     10  C   UNL     1       2.317  14.446  19.179  0.00  0.00    +0.000 C 
ATOM     11  N   UNL     1       1.586  13.529  20.011  0.00  0.00    +0.000 N 
ATOM     12  C   UNL     1       0.893  13.825  21.153  0.00  0.00    +0.000 C 
ATOM     13  N   UNL     1       0.211  12.962  21.849  0.00  0.00    +0.000 NA
ENDROOT
BRANCH   1  15
ATOM     14  N   UNL     1       2.155   7.846  19.643  0.00  0.00    +0.000 N 
ATOM     15  C   UNL     1       1.404   8.897  19.117  0.00  0.00    +0.000 C 
ATOM     16  O   UNL     1       1.188   9.048  17.919  0.00  0.00    +0.000 OA
ATOM     17  H   UNL     1       2.297   7.838  20.653  0.00  0.00    +0.000 HD
BRANCH  14  25
ATOM     18  C   UNL     1       1.439   5.036  20.367  0.00  0.00    +0.000 C 
ATOM     19  C   UNL     1       2.382   5.415  19.254  0.00  0.00    +0.000 A 
ATOM     20  C   UNL     1       2.920   4.352  18.497  0.00  0.00    +0.000 A 
ATOM     21  C   UNL     1       3.799   4.597  17.454  0.00  0.00    +0.000 A 
ATOM     22  F   UNL     1       4.300   3.572  16.752  0.00  0.00    +0.000 F 
ATOM     23  C   UNL     1       4.160   5.890  17.132  0.00  0.00    +0.000 A 
ATOM     24  C   UNL     1       3.624   6.955  17.862  0.00  0.00    +0.000 A 
ATOM     25  C   UNL     1       2.724   6.752  18.923  0.00  0.00    +0.000 A 
ENDBRANCH  14  25
ENDBRANCH   1  15
TORSDOF 2
ENDMDL
MODEL 4
REMARK VINA RESULT:      -7.5      2.193      4.004
REMARK  Name = 
REMARK  4 active torsions:
REMARK  status: ('A' for Active; 'I' for Inactive)
REMARK    1  A    between atoms: C_1  and  C_2
REMARK    2  A    between atoms: C_8  and  N_9
REMARK    3  A    between atoms: C_10  and  C_12
REMARK    4  A    between atoms: C_13  and  C_14
REMARK                            x       y       z     vdW  Elec       q    Type
REMARK                         _______ _______ _______ _____ _____    ______ ____
ROOT
ATOM      1  C   UNL     1       2.904   4.623  18.706  0.00  0.00    +0.000 A 
ATOM      2  C   UNL     1       2.252   3.429  18.387  0.00  0.00    +0.000 A 
ATOM      3  C   UNL     1       0.994   2.766  18.813  0.00  0.00    +0.000 C 
ATOM      4  O   UNL     1       2.933   2.733  17.435  0.00  0.00    +0.000 OA
ATOM      5  C   UNL     1       4.030   3.451  17.095  0.00  0.00    +0.000 A 
ATOM      6  C   UNL     1       4.065   4.604  17.874  0.00  0.00    +0.000 A 
ATOM      7  C   UNL     1       5.159   5.492  17.650  0.00  0.00    +0.000 C 
ATOM      8  N   UNL     1       5.399   6.586  18.304  0.00  0.00    +0.000 NA
ATOM      9  C   UNL     1       6.640   7.084  17.617  0.00  0.00    +0.000 C 
ATOM     10  C   UNL     1       7.033   6.067  16.521  0.00  0.00    +0.000 C 
ATOM     11  N   UNL     1       5.986   5.091  16.647  0.00  0.00    +0.000 N 
ATOM     12  C   UNL     1       5.848   3.932  15.932  0.00  0.00    +0.000 C 
ATOM     13  N   UNL     1       4.900   3.058  16.115  0.00  0.00    +0.000 NA
ENDROOT
BRANCH   1  15
ATOM     14  N   UNL     1       2.291   6.938  19.219  0.00  0.00    +0.000 N 
ATOM     15  C   UNL     1       2.387   5.617  19.657  0.00  0.00    +0.000 C 
ATOM     16  O   UNL     1       2.060   5.245  20.779  0.00  0.00    +0.000 OA
ATOM     17  H   UNL     1       2.622   7.139  18.276  0.00  0.00    +0.000 HD
BRANCH  14  25
ATOM     18  C   UNL     1       1.490   9.426  17.769  0.00  0.00    +0.000 C 
ATOM     19  C   UNL     1       1.354   9.226  19.257  0.00  0.00    +0.000 A 
ATOM     20  C   UNL     1       0.774  10.288  19.983  0.00  0.00    +0.000 A 
ATOM     21  C   UNL     1       0.608  10.202  21.357  0.00  0.00    +0.000 A 
ATOM     22  F   UNL     1       0.058  11.223  22.026  0.00  0.00    +0.000 F 
ATOM     23  C   UNL     1       1.003   9.068  22.040  0.00  0.00    +0.000 A 
ATOM     24  C   UNL     1       1.566   8.001  21.333  0.00  0.00    +0.000 A 
ATOM     25  C   UNL     1       1.746   8.045  19.939  0.00  0.00    +0.000 A 
ENDBRANCH  14  25
ENDBRANCH   1  15
TORSDOF 2
ENDMDL
MODEL 5
REMARK VINA RESULT:      -7.4      1.895      3.724
REMARK  Name = 
REMARK  4 active torsions:
REMARK  status: ('A' for Active; 'I' for Inactive)
REMARK    1  A    between atoms: C_1  and  C_2
REMARK    2  A    between atoms: C_8  and  N_9
REMARK    3  A    between atoms: C_10  and  C_12
REMARK    4  A    between atoms: C_13  and  C_14
REMARK                            x       y       z     vdW  Elec       q    Type
REMARK                         _______ _______ _______ _____ _____    ______ ____
ROOT
ATOM      1  C   UNL     1       2.638   4.842  19.855  0.00  0.00    +0.000 A 
ATOM      2  C   UNL     1       2.699   3.560  20.407  0.00  0.00    +0.000 A 
ATOM      3  C   UNL     1       2.013   2.855  21.519  0.00  0.00    +0.000 C 
ATOM      4  O   UNL     1       3.585   2.773  19.736  0.00  0.00    +0.000 OA
ATOM      5  C   UNL     1       4.111   3.505  18.724  0.00  0.00    +0.000 A 
ATOM      6  C   UNL     1       3.578   4.789  18.782  0.00  0.00    +0.000 A 
ATOM      7  C   UNL     1       4.019   5.708  17.783  0.00  0.00    +0.000 C 
ATOM      8  N   UNL     1       3.684   6.957  17.694  0.00  0.00    +0.000 NA
ATOM      9  C   UNL     1       4.427   7.385  16.459  0.00  0.00    +0.000 C 
ATOM     10  C   UNL     1       5.231   6.175  15.930  0.00  0.00    +0.000 C 
ATOM     11  N   UNL     1       4.870   5.155  16.875  0.00  0.00    +0.000 N 
ATOM     12  C   UNL     1       5.323   3.864  16.909  0.00  0.00    +0.000 C 
ATOM     13  N   UNL     1       4.995   2.989  17.816  0.00  0.00    +0.000 NA
ENDROOT
BRANCH   1  15
ATOM     14  N   UNL     1       2.215   7.209  20.319  0.00  0.00    +0.000 N 
ATOM     15  C   UNL     1       1.733   5.900  20.324  0.00  0.00    +0.000 C 
ATOM     16  O   UNL     1       0.603   5.591  20.690  0.00  0.00    +0.000 OA
ATOM     17  H   UNL     1       3.182   7.346  20.026  0.00  0.00    +0.000 HD
BRANCH  14  25
ATOM     18  C   UNL     1       1.378   9.113  18.174  0.00  0.00    +0.000 C 
ATOM     19  C   UNL     1       1.080   9.297  19.640  0.00  0.00    +0.000 A 
ATOM     20  C   UNL     1       0.323  10.437  19.988  0.00  0.00    +0.000 A 
ATOM     21  C   UNL     1      -0.001  10.696  21.311  0.00  0.00    +0.000 A 
ATOM     22  F   UNL     1      -0.718  11.784  21.619  0.00  0.00    +0.000 F 
ATOM     23  C   UNL     1       0.407   9.838  22.313  0.00  0.00    +0.000 A 
ATOM     24  C   UNL     1       1.145   8.697  21.982  0.00  0.00    +0.000 A 
ATOM     25  C   UNL     1       1.490   8.393  20.653  0.00  0.00    +0.000 A 
ENDBRANCH  14  25
ENDBRANCH   1  15
TORSDOF 2
ENDMDL
MODEL 6
REMARK VINA RESULT:      -7.2      3.955      6.533
REMARK  Name = 
REMARK  4 active torsions:
REMARK  status: ('A' for Active; 'I' for Inactive)
REMARK    1  A    between atoms: C_1  and  C_2
REMARK    2  A    between atoms: C_8  and  N_9
REMARK    3  A    between atoms: C_10  and  C_12
REMARK    4  A    between atoms: C_13  and  C_14
REMARK                            x       y       z     vdW  Elec       q    Type
REMARK                         _______ _______ _______ _____ _____    ______ ____
ROOT
ATOM      1  C   UNL     1       3.494   6.285  18.099  0.00  0.00    +0.000 A 
ATOM      2  C   UNL     1       2.682   7.383  18.395  0.00  0.00    +0.000 A 
ATOM      3  C   UNL     1       2.409   8.696  17.759  0.00  0.00    +0.000 C 
ATOM      4  O   UNL     1       1.952   7.169  19.524  0.00  0.00    +0.000 OA
ATOM      5  C   UNL     1       2.250   5.931  19.987  0.00  0.00    +0.000 A 
ATOM      6  C   UNL     1       3.215   5.367  19.157  0.00  0.00    +0.000 A 
ATOM      7  C   UNL     1       3.652   4.050  19.491  0.00  0.00    +0.000 C 
ATOM      8  N   UNL     1       4.574   3.375  18.879  0.00  0.00    +0.000 NA
ATOM      9  C   UNL     1       4.572   2.086  19.652  0.00  0.00    +0.000 C 
ATOM     10  C   UNL     1       3.527   2.200  20.787  0.00  0.00    +0.000 C 
ATOM     11  N   UNL     1       3.002   3.518  20.562  0.00  0.00    +0.000 N 
ATOM     12  C   UNL     1       2.051   4.165  21.304  0.00  0.00    +0.000 C 
ATOM     13  N   UNL     1       1.639   5.380  21.081  0.00  0.00    +0.000 NA
ENDROOT
BRANCH   1  15
ATOM     14  N   UNL     1       4.577   4.922  16.377  0.00  0.00    +0.000 N 
ATOM     15  C   UNL     1       4.354   6.190  16.912  0.00  0.00    +0.000 C 
ATOM     16  O   UNL     1       4.830   7.220  16.445  0.00  0.00    +0.000 OA
ATOM     17  H   UNL     1       4.158   4.132  16.867  0.00  0.00    +0.000 HD
BRANCH  14  25
ATOM     18  C   UNL     1       7.550   5.222  16.316  0.00  0.00    +0.000 C 
ATOM     19  C   UNL     1       6.719   4.735  15.157  0.00  0.00    +0.000 A 
ATOM     20  C   UNL     1       7.423   4.370  13.989  0.00  0.00    +0.000 A 
ATOM     21  C   UNL     1       6.749   3.913  12.867  0.00  0.00    +0.000 A 
ATOM     22  F   UNL     1       7.437   3.575  11.769  0.00  0.00    +0.000 F 
ATOM     23  C   UNL     1       5.373   3.800  12.875  0.00  0.00    +0.000 A 
ATOM     24  C   UNL     1       4.662   4.143  14.030  0.00  0.00    +0.000 A 
ATOM     25  C   UNL     1       5.306   4.605  15.190  0.00  0.00    +0.000 A 
ENDBRANCH  14  25
ENDBRANCH   1  15
TORSDOF 2
ENDMDL
MODEL 7
REMARK VINA RESULT:      -7.2      1.357      1.956
REMARK  Name = 
REMARK  4 active torsions:
REMARK  status: ('A' for Active; 'I' for Inactive)
REMARK    1  A    between atoms: C_1  and  C_2
REMARK    2  A    between atoms: C_8  and  N_9
REMARK    3  A    between atoms: C_10  and  C_12
REMARK    4  A    between atoms: C_13  and  C_14
REMARK                            x       y       z     vdW  Elec       q    Type
REMARK                         _______ _______ _______ _____ _____    ______ ____
ROOT
ATOM      1  C   UNL     1       3.535   5.764  17.895  0.00  0.00    +0.000 A 
ATOM      2  C   UNL     1       4.380   5.582  16.797  0.00  0.00    +0.000 A 
ATOM      3  C   UNL     1       5.109   6.479  15.866  0.00  0.00    +0.000 C 
ATOM      4  O   UNL     1       4.597   4.260  16.554  0.00  0.00    +0.000 OA
ATOM      5  C   UNL     1       3.922   3.546  17.486  0.00  0.00    +0.000 A 
ATOM      6  C   UNL     1       3.233   4.432  18.310  0.00  0.00    +0.000 A 
ATOM      7  C   UNL     1       2.461   3.854  19.363  0.00  0.00    +0.000 C 
ATOM      8  N   UNL     1       1.712   4.500  20.201  0.00  0.00    +0.000 NA
ATOM      9  C   UNL     1       1.188   3.385  21.062  0.00  0.00    +0.000 C 
ATOM     10  C   UNL     1       1.754   2.048  20.527  0.00  0.00    +0.000 C 
ATOM     11  N   UNL     1       2.567   2.499  19.432  0.00  0.00    +0.000 N 
ATOM     12  C   UNL     1       3.290   1.723  18.567  0.00  0.00    +0.000 C 
ATOM     13  N   UNL     1       3.979   2.181  17.562  0.00  0.00    +0.000 NA
ENDROOT
BRANCH   1  15
ATOM     14  N   UNL     1       2.044   7.133  19.274  0.00  0.00    +0.000 N 
ATOM     15  C   UNL     1       3.160   7.077  18.439  0.00  0.00    +0.000 C 
ATOM     16  O   UNL     1       3.841   8.054  18.144  0.00  0.00    +0.000 OA
ATOM     17  H   UNL     1       1.534   6.263  19.425  0.00  0.00    +0.000 HD
BRANCH  14  25
ATOM     18  C   UNL     1       0.926   9.453  17.757  0.00  0.00    +0.000 C 
ATOM     19  C   UNL     1       1.008   9.378  19.260  0.00  0.00    +0.000 A 
ATOM     20  C   UNL     1       0.481  10.476  19.973  0.00  0.00    +0.000 A 
ATOM     21  C   UNL     1       0.512  10.503  21.359  0.00  0.00    +0.000 A 
ATOM     22  F   UNL     1       0.009  11.557  22.015  0.00  0.00    +0.000 F 
ATOM     23  C   UNL     1       1.054   9.450  22.068  0.00  0.00    +0.000 A 
ATOM     24  C   UNL     1       1.567   8.347  21.376  0.00  0.00    +0.000 A 
ATOM     25  C   UNL     1       1.550   8.277  19.972  0.00  0.00    +0.000 A 
ENDBRANCH  14  25
ENDBRANCH   1  15
TORSDOF 2
ENDMDL
MODEL 8
REMARK VINA RESULT:      -7.1      3.392      7.127
REMARK  Name = 
REMARK  4 active torsions:
REMARK  status: ('A' for Active; 'I' for Inactive)
REMARK    1  A    between atoms: C_1  and  C_2
REMARK    2  A    between atoms: C_8  and  N_9
REMARK    3  A    between atoms: C_10  and  C_12
REMARK    4  A    between atoms: C_13  and  C_14
REMARK                            x       y       z     vdW  Elec       q    Type
REMARK                         _______ _______ _______ _____ _____    ______ ____
ROOT
ATOM      1  C   UNL     1       1.979   7.527  19.574  0.00  0.00    +0.000 A 
ATOM      2  C   UNL     1       1.600   6.597  20.545  0.00  0.00    +0.000 A 
ATOM      3  C   UNL     1       1.853   5.153  20.780  0.00  0.00    +0.000 C 
ATOM      4  O   UNL     1       0.841   7.177  21.516  0.00  0.00    +0.000 OA
ATOM      5  C   UNL     1       0.716   8.493  21.220  0.00  0.00    +0.000 A 
ATOM      6  C   UNL     1       1.375   8.742  20.019  0.00  0.00    +0.000 A 
ATOM      7  C   UNL     1       1.352  10.089  19.547  0.00  0.00    +0.000 C 
ATOM      8  N   UNL     1       1.859  10.514  18.433  0.00  0.00    +0.000 NA
ATOM      9  C   UNL     1       1.550  11.984  18.499  0.00  0.00    +0.000 C 
ATOM     10  C   UNL     1       0.775  12.261  19.808  0.00  0.00    +0.000 C 
ATOM     11  N   UNL     1       0.723  10.949  20.393  0.00  0.00    +0.000 N 
ATOM     12  C   UNL     1       0.114  10.592  21.566  0.00  0.00    +0.000 C 
ATOM     13  N   UNL     1       0.060   9.378  22.032  0.00  0.00    +0.000 NA
ENDROOT
BRANCH   1  15
ATOM     14  N   UNL     1       3.842   6.258  18.617  0.00  0.00    +0.000 N 
ATOM     15  C   UNL     1       2.848   7.218  18.430  0.00  0.00    +0.000 C 
ATOM     16  O   UNL     1       2.660   7.808  17.370  0.00  0.00    +0.000 OA
ATOM     17  H   UNL     1       3.928   5.856  19.550  0.00  0.00    +0.000 HD
BRANCH  14  25
ATOM     18  C   UNL     1       3.222   3.700  17.202  0.00  0.00    +0.000 C 
ATOM     19  C   UNL     1       4.448   4.539  16.947  0.00  0.00    +0.000 A 
ATOM     20  C   UNL     1       5.326   4.078  15.943  0.00  0.00    +0.000 A 
ATOM     21  C   UNL     1       6.483   4.778  15.636  0.00  0.00    +0.000 A 
ATOM     22  F   UNL     1       7.304   4.321  14.682  0.00  0.00    +0.000 F 
ATOM     23  C   UNL     1       6.794   5.945  16.306  0.00  0.00    +0.000 A 
ATOM     24  C   UNL     1       5.926   6.422  17.293  0.00  0.00    +0.000 A 
ATOM     25  C   UNL     1       4.740   5.747  17.631  0.00  0.00    +0.000 A 
ENDBRANCH  14  25
ENDBRANCH   1  15
TORSDOF 2
ENDMDL
MODEL 9
REMARK VINA RESULT:      -7.1      3.665      6.814
REMARK  Name = 
REMARK  4 active torsions:
REMARK  status: ('A' for Active; 'I' for Inactive)
REMARK    1  A    between atoms: C_1  and  C_2
REMARK    2  A    between atoms: C_8  and  N_9
REMARK    3  A    between atoms: C_10  and  C_12
REMARK    4  A    between atoms: C_13  and  C_14
REMARK                            x       y       z     vdW  Elec       q    Type
REMARK                         _______ _______ _______ _____ _____    ______ ____
ROOT
ATOM      1  C   UNL     1       2.742   5.156  19.079  0.00  0.00    +0.000 A 
ATOM      2  C   UNL     1       2.541   4.351  20.204  0.00  0.00    +0.000 A 
ATOM      3  C   UNL     1       2.857   2.946  20.567  0.00  0.00    +0.000 C 
ATOM      4  O   UNL     1       1.935   5.044  21.206  0.00  0.00    +0.000 OA
ATOM      5  C   UNL     1       1.738   6.314  20.778  0.00  0.00    +0.000 A 
ATOM      6  C   UNL     1       2.193   6.415  19.466  0.00  0.00    +0.000 A 
ATOM      7  C   UNL     1       2.069   7.695  18.845  0.00  0.00    +0.000 C 
ATOM      8  N   UNL     1       2.383   7.981  17.621  0.00  0.00    +0.000 NA
ATOM      9  C   UNL     1       2.060   9.448  17.559  0.00  0.00    +0.000 C 
ATOM     10  C   UNL     1       1.497   9.881  18.933  0.00  0.00    +0.000 C 
ATOM     11  N   UNL     1       1.564   8.651  19.672  0.00  0.00    +0.000 N 
ATOM     12  C   UNL     1       1.157   8.440  20.961  0.00  0.00    +0.000 C 
ATOM     13  N   UNL     1       1.202   7.291  21.572  0.00  0.00    +0.000 NA
ENDROOT
BRANCH   1  15
ATOM     14  N   UNL     1       4.422   5.536  17.338  0.00  0.00    +0.000 N 
ATOM     15  C   UNL     1       3.425   4.710  17.856  0.00  0.00    +0.000 C 
ATOM     16  O   UNL     1       3.095   3.641  17.354  0.00  0.00    +0.000 OA
ATOM     17  H   UNL     1       4.590   6.418  17.820  0.00  0.00    +0.000 HD
BRANCH  14  25
ATOM     18  C   UNL     1       7.284   6.394  17.367  0.00  0.00    +0.000 C 
ATOM     19  C   UNL     1       6.626   5.661  16.226  0.00  0.00    +0.000 A 
ATOM     20  C   UNL     1       7.451   5.342  15.126  0.00  0.00    +0.000 A 
ATOM     21  C   UNL     1       6.939   4.672  14.025  0.00  0.00    +0.000 A 
ATOM     22  F   UNL     1       7.739   4.382  12.991  0.00  0.00    +0.000 F 
ATOM     23  C   UNL     1       5.610   4.298  13.990  0.00  0.00    +0.000 A 
ATOM     24  C   UNL     1       4.784   4.594  15.079  0.00  0.00    +0.000 A 
ATOM     25  C   UNL     1       5.264   5.267  16.216  0.00  0.00    +0.000 A 
ENDBRANCH  14  25
ENDBRANCH   1  15
TORSDOF 2
ENDMDL
