MODEL 1
REMARK VINA RESULT:      -7.2      0.000      0.000
REMARK  Name = 
REMARK  18 active torsions:
REMARK  status: ('A' for Active; 'I' for Inactive)
REMARK    1  A    between atoms: C_1  and  C_2
REMARK    2  A    between atoms: C_2  and  C_3
REMARK    3  A    between atoms: C_2  and  C_4
REMARK    4  A    between atoms: C_4  and  N_5
REMARK    5  A    between atoms: C_4  and  C_30
REMARK    6  A    between atoms: C_6  and  C_8
REMARK    7  A    between atoms: C_8  and  C_9
REMARK    8  A    between atoms: C_8  and  N_16
REMARK    9  A    between atoms: C_9  and  C_10
REMARK   10  A    between atoms: C_17  and  C_19
REMARK   11  A    between atoms: C_19  and  C_20
REMARK   12  A    between atoms: C_19  and  N_25
REMARK   13  A    between atoms: C_20  and  C_21
REMARK   14  A    between atoms: C_21  and  C_22
REMARK   15  A    between atoms: C_22  and  C_23
REMARK   16  A    between atoms: C_23  and  N_24
REMARK   17  A    between atoms: C_26  and  C_28
REMARK   18  A    between atoms: C_28  and  N_29
REMARK                            x       y       z     vdW  Elec       q    Type
REMARK                         _______ _______ _______ _____ _____    ______ ____
ROOT
ATOM      1  C   UNL     1       2.894   6.680  17.890  0.00  0.00    +0.000 C 
ENDROOT
BRANCH   1   3
ATOM      2  N   UNL     1       2.931   4.628  19.253  0.00  0.00    +0.000 N 
ATOM      3  C   UNL     1       2.425   5.223  18.122  0.00  0.00    +0.000 C 
ATOM      4  O   UNL     1       1.614   4.660  17.387  0.00  0.00    +0.000 OA
ATOM      5  H   UNL     1       3.769   4.997  19.692  0.00  0.00    +0.000 HD
BRANCH   2   6
ATOM      6  C   UNL     1       2.422   3.358  19.765  0.00  0.00    +0.000 C 
BRANCH   6   7
ATOM      7  C   UNL     1       2.079   3.530  21.260  0.00  0.00    +0.000 C 
ATOM      8  N   UNL     1       1.566   2.436  21.896  0.00  0.00    +0.000 N 
ATOM      9  O   UNL     1       2.289   4.571  21.885  0.00  0.00    +0.000 OA
ATOM     10  H   UNL     1       1.515   1.522  21.464  0.00  0.00    +0.000 HD
ATOM     11  H   UNL     1       1.418   2.497  22.895  0.00  0.00    +0.000 HD
ENDBRANCH   6   7
BRANCH   6  13
ATOM     12  C   UNL     1       4.886   2.664  19.756  0.00  0.00    +0.000 C 
ATOM     13  C   UNL     1       3.443   2.232  19.504  0.00  0.00    +0.000 C 
ATOM     14  C   UNL     1       3.318   1.656  18.089  0.00  0.00    +0.000 C 
ENDBRANCH   6  13
ENDBRANCH   2   6
ENDBRANCH   1   3
BRANCH   1  15
ATOM     15  N   UNL     1       2.177   7.601  18.767  0.00  0.00    +0.000 N 
ATOM     16  C   UNL     1       1.831   8.885  18.438  0.00  0.00    +0.000 C 
ATOM     17  O   UNL     1       2.029   9.376  17.331  0.00  0.00    +0.000 OA
ATOM     18  H   UNL     1       2.090   7.334  19.738  0.00  0.00    +0.000 HD
BRANCH  16  19
ATOM     19  C   UNL     1       1.121   9.628  19.591  0.00  0.00    +0.000 C 
BRANCH  19  20
ATOM     20  N   UNL     1      -0.173  10.077  19.107  0.00  0.00    +0.000 N 
ATOM     21  C   UNL     1      -0.530  11.401  19.044  0.00  0.00    +0.000 C 
ATOM     22  O   UNL     1       0.178  12.313  19.461  0.00  0.00    +0.000 OA
ATOM     23  H   UNL     1      -0.787   9.408  18.642  0.00  0.00    +0.000 HD
BRANCH  21  24
ATOM     24  C   UNL     1      -1.917  11.647  18.440  0.00  0.00    +0.000 C 
BRANCH  24  25
ATOM     25  N   UNL     1      -1.812  12.135  17.050  0.00  0.00    +0.000 NA
ATOM     26  H   UNL     1      -1.334  11.426  16.493  0.00  0.00    +0.000 HD
ATOM     27  H   UNL     1      -1.194  12.948  17.044  0.00  0.00    +0.000 HD
ENDBRANCH  24  25
ENDBRANCH  21  24
ENDBRANCH  19  20
BRANCH  19  28
ATOM     28  C   UNL     1       0.984   8.737  20.839  0.00  0.00    +0.000 C 
BRANCH  28  29
ATOM     29  C   UNL     1       0.889   9.525  22.153  0.00  0.00    +0.000 C 
BRANCH  29  30
ATOM     30  C   UNL     1      -0.481   9.390  22.816  0.00  0.00    +0.000 C 
BRANCH  30  31
ATOM     31  C   UNL     1      -1.083  10.768  23.097  0.00  0.00    +0.000 C 
BRANCH  31  32
ATOM     32  N   UNL     1      -0.229  11.818  22.554  0.00  0.00    +0.000 NA
ATOM     33  H   UNL     1       0.698  11.753  22.971  0.00  0.00    +0.000 HD
ATOM     34  H   UNL     1      -0.602  12.727  22.826  0.00  0.00    +0.000 HD
ENDBRANCH  31  32
ENDBRANCH  30  31
ENDBRANCH  29  30
ENDBRANCH  28  29
ENDBRANCH  19  28
ENDBRANCH  16  19
ENDBRANCH   1  15
BRANCH   1  35
ATOM     35  C   UNL     1       4.418   6.791  18.100  0.00  0.00    +0.000 C 
BRANCH  35  36
ATOM     36  C   UNL     1       5.329   6.060  17.123  0.00  0.00    +0.000 A 
ATOM     37  C   UNL     1       5.159   6.046  15.729  0.00  0.00    +0.000 A 
ATOM     38  C   UNL     1       5.944   5.253  14.898  0.00  0.00    +0.000 A 
ATOM     39  C   UNL     1       6.963   4.497  15.435  0.00  0.00    +0.000 A 
ATOM     40  C   UNL     1       7.200   4.553  16.805  0.00  0.00    +0.000 A 
ATOM     41  C   UNL     1       6.397   5.315  17.643  0.00  0.00    +0.000 A 
ENDBRANCH  35  36
ENDBRANCH   1  35
TORSDOF 16
ENDMDL
MODEL 2
REMARK VINA RESULT:      -7.2      0.768      1.144
REMARK  Name = 
REMARK  18 active torsions:
REMARK  status: ('A' for Active; 'I' for Inactive)
REMARK    1  A    between atoms: C_1  and  C_2
REMARK    2  A    between atoms: C_2  and  C_3
REMARK    3  A    between atoms: C_2  and  C_4
REMARK    4  A    between atoms: C_4  and  N_5
REMARK    5  A    between atoms: C_4  and  C_30
REMARK    6  A    between atoms: C_6  and  C_8
REMARK    7  A    between atoms: C_8  and  C_9
REMARK    8  A    between atoms: C_8  and  N_16
REMARK    9  A    between atoms: C_9  and  C_10
REMARK   10  A    between atoms: C_17  and  C_19
REMARK   11  A    between atoms: C_19  and  C_20
REMARK   12  A    between atoms: C_19  and  N_25
REMARK   13  A    between atoms: C_20  and  C_21
REMARK   14  A    between atoms: C_21  and  C_22
REMARK   15  A    between atoms: C_22  and  C_23
REMARK   16  A    between atoms: C_23  and  N_24
REMARK   17  A    between atoms: C_26  and  C_28
REMARK   18  A    between atoms: C_28  and  N_29
REMARK                            x       y       z     vdW  Elec       q    Type
REMARK                         _______ _______ _______ _____ _____    ______ ____
ROOT
ATOM      1  C   UNL     1       2.851   6.470  18.079  0.00  0.00    +0.000 C 
ENDROOT
BRANCH   1   3
ATOM      2  N   UNL     1       2.839   4.327  19.294  0.00  0.00    +0.000 N 
ATOM      3  C   UNL     1       2.317   5.025  18.231  0.00  0.00    +0.000 C 
ATOM      4  O   UNL     1       1.446   4.556  17.498  0.00  0.00    +0.000 OA
ATOM      5  H   UNL     1       3.713   4.622  19.719  0.00  0.00    +0.000 HD
BRANCH   2   6
ATOM      6  C   UNL     1       2.287   3.050  19.740  0.00  0.00    +0.000 C 
BRANCH   6   7
ATOM      7  C   UNL     1       2.042   3.124  21.263  0.00  0.00    +0.000 C 
ATOM      8  N   UNL     1       2.371   4.300  21.876  0.00  0.00    +0.000 N 
ATOM      9  O   UNL     1       1.536   2.206  21.910  0.00  0.00    +0.000 OA
ATOM     10  H   UNL     1       2.649   5.128  21.364  0.00  0.00    +0.000 HD
ATOM     11  H   UNL     1       2.136   4.404  22.854  0.00  0.00    +0.000 HD
ENDBRANCH   6   7
BRANCH   6  13
ATOM     12  C   UNL     1       4.605   1.990  19.978  0.00  0.00    +0.000 C 
ATOM     13  C   UNL     1       3.222   1.894  19.333  0.00  0.00    +0.000 C 
ATOM     14  C   UNL     1       3.370   1.779  17.813  0.00  0.00    +0.000 C 
ENDBRANCH   6  13
ENDBRANCH   2   6
ENDBRANCH   1   3
BRANCH   1  15
ATOM     15  N   UNL     1       2.195   7.367  19.024  0.00  0.00    +0.000 N 
ATOM     16  C   UNL     1       1.834   8.661  18.752  0.00  0.00    +0.000 C 
ATOM     17  O   UNL     1       1.964   9.182  17.650  0.00  0.00    +0.000 OA
ATOM     18  H   UNL     1       2.167   7.075  19.991  0.00  0.00    +0.000 HD
BRANCH  16  19
ATOM     19  C   UNL     1       1.201   9.373  19.968  0.00  0.00    +0.000 C 
BRANCH  19  20
ATOM     20  N   UNL     1       0.035  10.105  19.503  0.00  0.00    +0.000 N 
ATOM     21  C   UNL     1      -0.034  11.476  19.493  0.00  0.00    +0.000 C 
ATOM     22  O   UNL     1       0.847  12.201  19.946  0.00  0.00    +0.000 OA
ATOM     23  H   UNL     1      -0.704   9.599  19.013  0.00  0.00    +0.000 HD
BRANCH  21  24
ATOM     24  C   UNL     1      -1.333  12.033  18.900  0.00  0.00    +0.000 C 
BRANCH  24  25
ATOM     25  N   UNL     1      -1.093  12.651  17.581  0.00  0.00    +0.000 NA
ATOM     26  H   UNL     1      -1.938  12.553  17.018  0.00  0.00    +0.000 HD
ATOM     27  H   UNL     1      -0.379  12.102  17.098  0.00  0.00    +0.000 HD
ENDBRANCH  24  25
ENDBRANCH  21  24
ENDBRANCH  19  20
BRANCH  19  28
ATOM     28  C   UNL     1       0.839   8.376  21.084  0.00  0.00    +0.000 C 
BRANCH  28  29
ATOM     29  C   UNL     1      -0.383   8.794  21.913  0.00  0.00    +0.000 C 
BRANCH  29  30
ATOM     30  C   UNL     1      -0.046   9.868  22.948  0.00  0.00    +0.000 C 
BRANCH  30  31
ATOM     31  C   UNL     1      -1.121  10.957  22.965  0.00  0.00    +0.000 C 
BRANCH  31  32
ATOM     32  N   UNL     1      -0.513  12.277  22.848  0.00  0.00    +0.000 NA
ATOM     33  H   UNL     1      -0.362  12.666  23.778  0.00  0.00    +0.000 HD
ATOM     34  H   UNL     1      -1.163  12.905  22.378  0.00  0.00    +0.000 HD
ENDBRANCH  31  32
ENDBRANCH  30  31
ENDBRANCH  29  30
ENDBRANCH  28  29
ENDBRANCH  19  28
ENDBRANCH  16  19
ENDBRANCH   1  15
BRANCH   1  35
ATOM     35  C   UNL     1       4.382   6.496  18.264  0.00  0.00    +0.000 C 
BRANCH  35  36
ATOM     36  C   UNL     1       5.238   5.761  17.243  0.00  0.00    +0.000 A 
ATOM     37  C   UNL     1       6.265   4.858  17.561  0.00  0.00    +0.000 A 
ATOM     38  C   UNL     1       7.101   4.319  16.589  0.00  0.00    +0.000 A 
ATOM     39  C   UNL     1       6.892   4.621  15.261  0.00  0.00    +0.000 A 
ATOM     40  C   UNL     1       5.833   5.453  14.913  0.00  0.00    +0.000 A 
ATOM     41  C   UNL     1       5.019   6.023  15.882  0.00  0.00    +0.000 A 
ENDBRANCH  35  36
ENDBRANCH   1  35
TORSDOF 16
ENDMDL
MODEL 3
REMARK VINA RESULT:      -7.1      1.246      2.008
REMARK  Name = 
REMARK  18 active torsions:
REMARK  status: ('A' for Active; 'I' for Inactive)
REMARK    1  A    between atoms: C_1  and  C_2
REMARK    2  A    between atoms: C_2  and  C_3
REMARK    3  A    between atoms: C_2  and  C_4
REMARK    4  A    between atoms: C_4  and  N_5
REMARK    5  A    between atoms: C_4  and  C_30
REMARK    6  A    between atoms: C_6  and  C_8
REMARK    7  A    between atoms: C_8  and  C_9
REMARK    8  A    between atoms: C_8  and  N_16
REMARK    9  A    between atoms: C_9  and  C_10
REMARK   10  A    between atoms: C_17  and  C_19
REMARK   11  A    between atoms: C_19  and  C_20
REMARK   12  A    between atoms: C_19  and  N_25
REMARK   13  A    between atoms: C_20  and  C_21
REMARK   14  A    between atoms: C_21  and  C_22
REMARK   15  A    between atoms: C_22  and  C_23
REMARK   16  A    between atoms: C_23  and  N_24
REMARK   17  A    between atoms: C_26  and  C_28
REMARK   18  A    between atoms: C_28  and  N_29
REMARK                            x       y       z     vdW  Elec       q    Type
REMARK                         _______ _______ _______ _____ _____    ______ ____
ROOT
ATOM      1  C   UNL     1       3.171   6.605  18.228  0.00  0.00    +0.000 C 
ENDROOT
BRANCH   1   3
ATOM      2  N   UNL     1       2.732   4.235  18.737  0.00  0.00    +0.000 N 
ATOM      3  C   UNL     1       3.447   5.353  19.096  0.00  0.00    +0.000 C 
ATOM      4  O   UNL     1       4.285   5.338  19.998  0.00  0.00    +0.000 OA
ATOM      5  H   UNL     1       1.887   4.325  18.182  0.00  0.00    +0.000 HD
BRANCH   2   6
ATOM      6  C   UNL     1       3.029   2.909  19.275  0.00  0.00    +0.000 C 
BRANCH   6   7
ATOM      7  C   UNL     1       3.141   1.914  18.100  0.00  0.00    +0.000 C 
ATOM      8  N   UNL     1       3.994   0.861  18.275  0.00  0.00    +0.000 N 
ATOM      9  O   UNL     1       2.478   2.012  17.067  0.00  0.00    +0.000 OA
ATOM     10  H   UNL     1       4.445   0.659  19.157  0.00  0.00    +0.000 HD
ATOM     11  H   UNL     1       4.016   0.148  17.557  0.00  0.00    +0.000 HD
ENDBRANCH   6   7
BRANCH   6  13
ATOM     12  C   UNL     1       0.570   3.040  19.976  0.00  0.00    +0.000 C 
ATOM     13  C   UNL     1       1.961   2.504  20.311  0.00  0.00    +0.000 C 
ATOM     14  C   UNL     1       2.346   2.925  21.733  0.00  0.00    +0.000 C 
ENDBRANCH   6  13
ENDBRANCH   2   6
ENDBRANCH   1   3
BRANCH   1  15
ATOM     15  N   UNL     1       2.421   7.603  18.983  0.00  0.00    +0.000 N 
ATOM     16  C   UNL     1       1.881   8.744  18.450  0.00  0.00    +0.000 C 
ATOM     17  O   UNL     1       1.912   9.012  17.254  0.00  0.00    +0.000 OA
ATOM     18  H   UNL     1       2.457   7.537  19.992  0.00  0.00    +0.000 HD
BRANCH  16  19
ATOM     19  C   UNL     1       1.186   9.628  19.509  0.00  0.00    +0.000 C 
BRANCH  19  20
ATOM     20  N   UNL     1       0.001  10.209  18.901  0.00  0.00    +0.000 N 
ATOM     21  C   UNL     1      -0.161  11.560  18.719  0.00  0.00    +0.000 C 
ATOM     22  O   UNL     1       0.641  12.398  19.120  0.00  0.00    +0.000 OA
ATOM     23  H   UNL     1      -0.672   9.594  18.442  0.00  0.00    +0.000 HD
BRANCH  21  24
ATOM     24  C   UNL     1      -1.459  11.943  17.999  0.00  0.00    +0.000 C 
BRANCH  24  25
ATOM     25  N   UNL     1      -2.532  12.248  18.965  0.00  0.00    +0.000 NA
ATOM     26  H   UNL     1      -2.631  13.262  19.032  0.00  0.00    +0.000 HD
ATOM     27  H   UNL     1      -2.223  11.944  19.890  0.00  0.00    +0.000 HD
ENDBRANCH  24  25
ENDBRANCH  21  24
ENDBRANCH  19  20
BRANCH  19  28
ATOM     28  C   UNL     1       0.840   8.827  20.778  0.00  0.00    +0.000 C 
BRANCH  28  29
ATOM     29  C   UNL     1       0.872   9.664  22.064  0.00  0.00    +0.000 C 
BRANCH  29  30
ATOM     30  C   UNL     1      -0.392   9.488  22.905  0.00  0.00    +0.000 C 
BRANCH  30  31
ATOM     31  C   UNL     1      -1.106  10.828  23.092  0.00  0.00    +0.000 C 
BRANCH  31  32
ATOM     32  N   UNL     1      -1.281  11.497  21.808  0.00  0.00    +0.000 NA
ATOM     33  H   UNL     1      -1.578  10.819  21.108  0.00  0.00    +0.000 HD
ATOM     34  H   UNL     1      -0.382  11.858  21.493  0.00  0.00    +0.000 HD
ENDBRANCH  31  32
ENDBRANCH  30  31
ENDBRANCH  29  30
ENDBRANCH  28  29
ENDBRANCH  19  28
ENDBRANCH  16  19
ENDBRANCH   1  15
BRANCH   1  35
ATOM     35  C   UNL     1       4.496   7.192  17.700  0.00  0.00    +0.000 C 
BRANCH  35  36
ATOM     36  C   UNL     1       5.395   6.290  16.866  0.00  0.00    +0.000 A 
ATOM     37  C   UNL     1       5.138   5.913  15.538  0.00  0.00    +0.000 A 
ATOM     38  C   UNL     1       5.926   4.980  14.871  0.00  0.00    +0.000 A 
ATOM     39  C   UNL     1       7.032   4.445  15.495  0.00  0.00    +0.000 A 
ATOM     40  C   UNL     1       7.351   4.860  16.783  0.00  0.00    +0.000 A 
ATOM     41  C   UNL     1       6.547   5.762  17.467  0.00  0.00    +0.000 A 
ENDBRANCH  35  36
ENDBRANCH   1  35
TORSDOF 16
ENDMDL
MODEL 4
REMARK VINA RESULT:      -7.0      2.478      5.167
REMARK  Name = 
REMARK  18 active torsions:
REMARK  status: ('A' for Active; 'I' for Inactive)
REMARK    1  A    between atoms: C_1  and  C_2
REMARK    2  A    between atoms: C_2  and  C_3
REMARK    3  A    between atoms: C_2  and  C_4
REMARK    4  A    between atoms: C_4  and  N_5
REMARK    5  A    between atoms: C_4  and  C_30
REMARK    6  A    between atoms: C_6  and  C_8
REMARK    7  A    between atoms: C_8  and  C_9
REMARK    8  A    between atoms: C_8  and  N_16
REMARK    9  A    between atoms: C_9  and  C_10
REMARK   10  A    between atoms: C_17  and  C_19
REMARK   11  A    between atoms: C_19  and  C_20
REMARK   12  A    between atoms: C_19  and  N_25
REMARK   13  A    between atoms: C_20  and  C_21
REMARK   14  A    between atoms: C_21  and  C_22
REMARK   15  A    between atoms: C_22  and  C_23
REMARK   16  A    between atoms: C_23  and  N_24
REMARK   17  A    between atoms: C_26  and  C_28
REMARK   18  A    between atoms: C_28  and  N_29
REMARK                            x       y       z     vdW  Elec       q    Type
REMARK                         _______ _______ _______ _____ _____    ______ ____
ROOT
ATOM      1  C   UNL     1       2.877   6.912  18.522  0.00  0.00    +0.000 C 
ENDROOT
BRANCH   1   3
ATOM      2  N   UNL     1       5.171   6.316  17.848  0.00  0.00    +0.000 N 
ATOM      3  C   UNL     1       4.056   7.055  17.529  0.00  0.00    +0.000 C 
ATOM      4  O   UNL     1       3.984   7.729  16.501  0.00  0.00    +0.000 OA
ATOM      5  H   UNL     1       5.308   5.983  18.797  0.00  0.00    +0.000 HD
BRANCH   2   6
ATOM      6  C   UNL     1       6.282   6.134  16.918  0.00  0.00    +0.000 C 
BRANCH   6   7
ATOM      7  C   UNL     1       6.307   4.659  16.462  0.00  0.00    +0.000 C 
ATOM      8  N   UNL     1       5.520   3.792  17.166  0.00  0.00    +0.000 N 
ATOM      9  O   UNL     1       6.955   4.263  15.492  0.00  0.00    +0.000 OA
ATOM     10  H   UNL     1       4.862   4.095  17.872  0.00  0.00    +0.000 HD
ATOM     11  H   UNL     1       5.451   2.840  16.831  0.00  0.00    +0.000 HD
ENDBRANCH   6   7
BRANCH   6  13
ATOM     12  C   UNL     1       7.802   6.016  18.975  0.00  0.00    +0.000 C 
ATOM     13  C   UNL     1       7.603   6.587  17.572  0.00  0.00    +0.000 C 
ATOM     14  C   UNL     1       7.733   8.113  17.614  0.00  0.00    +0.000 C 
ENDBRANCH   6  13
ENDBRANCH   2   6
ENDBRANCH   1   3
BRANCH   1  15
ATOM     15  N   UNL     1       2.046   8.111  18.515  0.00  0.00    +0.000 N 
ATOM     16  C   UNL     1       1.459   8.663  19.624  0.00  0.00    +0.000 C 
ATOM     17  O   UNL     1       1.634   8.241  20.762  0.00  0.00    +0.000 OA
ATOM     18  H   UNL     1       1.738   8.450  17.614  0.00  0.00    +0.000 HD
BRANCH  16  19
ATOM     19  C   UNL     1       0.599   9.902  19.291  0.00  0.00    +0.000 C 
BRANCH  19  20
ATOM     20  N   UNL     1       1.458  11.073  19.345  0.00  0.00    +0.000 N 
ATOM     21  C   UNL     1       1.094  12.240  19.969  0.00  0.00    +0.000 C 
ATOM     22  O   UNL     1      -0.013  12.424  20.468  0.00  0.00    +0.000 OA
ATOM     23  H   UNL     1       2.432  10.986  19.053  0.00  0.00    +0.000 HD
BRANCH  21  24
ATOM     24  C   UNL     1       2.181  13.320  19.959  0.00  0.00    +0.000 C 
BRANCH  24  25
ATOM     25  N   UNL     1       2.774  13.491  21.299  0.00  0.00    +0.000 NA
ATOM     26  H   UNL     1       3.017  12.569  21.666  0.00  0.00    +0.000 HD
ATOM     27  H   UNL     1       2.050  13.850  21.924  0.00  0.00    +0.000 HD
ENDBRANCH  24  25
ENDBRANCH  21  24
ENDBRANCH  19  20
BRANCH  19  28
ATOM     28  C   UNL     1      -0.089   9.763  17.921  0.00  0.00    +0.000 C 
BRANCH  28  29
ATOM     29  C   UNL     1      -1.519  10.319  17.889  0.00  0.00    +0.000 C 
BRANCH  29  30
ATOM     30  C   UNL     1      -2.265   9.936  16.611  0.00  0.00    +0.000 C 
BRANCH  30  31
ATOM     31  C   UNL     1      -3.701  10.461  16.647  0.00  0.00    +0.000 C 
BRANCH  31  32
ATOM     32  N   UNL     1      -3.724  11.860  17.058  0.00  0.00    +0.000 NA
ATOM     33  H   UNL     1      -4.593  12.055  17.553  0.00  0.00    +0.000 HD
ATOM     34  H   UNL     1      -3.726  12.453  16.230  0.00  0.00    +0.000 HD
ENDBRANCH  31  32
ENDBRANCH  30  31
ENDBRANCH  29  30
ENDBRANCH  28  29
ENDBRANCH  19  28
ENDBRANCH  16  19
ENDBRANCH   1  15
BRANCH   1  35
ATOM     35  C   UNL     1       2.044   5.659  18.185  0.00  0.00    +0.000 C 
BRANCH  35  36
ATOM     36  C   UNL     1       1.839   4.621  19.280  0.00  0.00    +0.000 A 
ATOM     37  C   UNL     1       2.201   4.796  20.625  0.00  0.00    +0.000 A 
ATOM     38  C   UNL     1       2.112   3.763  21.553  0.00  0.00    +0.000 A 
ATOM     39  C   UNL     1       1.599   2.542  21.173  0.00  0.00    +0.000 A 
ATOM     40  C   UNL     1       1.163   2.368  19.864  0.00  0.00    +0.000 A 
ATOM     41  C   UNL     1       1.284   3.383  18.925  0.00  0.00    +0.000 A 
ENDBRANCH  35  36
ENDBRANCH   1  35
TORSDOF 16
ENDMDL
MODEL 5
REMARK VINA RESULT:      -7.0      2.598      8.364
REMARK  Name = 
REMARK  18 active torsions:
REMARK  status: ('A' for Active; 'I' for Inactive)
REMARK    1  A    between atoms: C_1  and  C_2
REMARK    2  A    between atoms: C_2  and  C_3
REMARK    3  A    between atoms: C_2  and  C_4
REMARK    4  A    between atoms: C_4  and  N_5
REMARK    5  A    between atoms: C_4  and  C_30
REMARK    6  A    between atoms: C_6  and  C_8
REMARK    7  A    between atoms: C_8  and  C_9
REMARK    8  A    between atoms: C_8  and  N_16
REMARK    9  A    between atoms: C_9  and  C_10
REMARK   10  A    between atoms: C_17  and  C_19
REMARK   11  A    between atoms: C_19  and  C_20
REMARK   12  A    between atoms: C_19  and  N_25
REMARK   13  A    between atoms: C_20  and  C_21
REMARK   14  A    between atoms: C_21  and  C_22
REMARK   15  A    between atoms: C_22  and  C_23
REMARK   16  A    between atoms: C_23  and  N_24
REMARK   17  A    between atoms: C_26  and  C_28
REMARK   18  A    between atoms: C_28  and  N_29
REMARK                            x       y       z     vdW  Elec       q    Type
REMARK                         _______ _______ _______ _____ _____    ______ ____
ROOT
ATOM      1  C   UNL     1       2.355   6.998  18.362  0.00  0.00    +0.000 C 
ENDROOT
BRANCH   1   3
ATOM      2  N   UNL     1       1.289   9.010  19.303  0.00  0.00    +0.000 N 
ATOM      3  C   UNL     1       1.997   8.499  18.241  0.00  0.00    +0.000 C 
ATOM      4  O   UNL     1       2.368   9.199  17.298  0.00  0.00    +0.000 OA
ATOM      5  H   UNL     1       0.784   8.388  19.926  0.00  0.00    +0.000 HD
BRANCH   2   6
ATOM      6  C   UNL     1       1.072  10.443  19.483  0.00  0.00    +0.000 C 
BRANCH   6   7
ATOM      7  C   UNL     1       0.857  10.725  20.986  0.00  0.00    +0.000 C 
ATOM      8  N   UNL     1       0.625   9.638  21.781  0.00  0.00    +0.000 N 
ATOM      9  O   UNL     1       0.930  11.852  21.478  0.00  0.00    +0.000 OA
ATOM     10  H   UNL     1       0.703   8.686  21.447  0.00  0.00    +0.000 HD
ATOM     11  H   UNL     1       0.572   9.788  22.780  0.00  0.00    +0.000 HD
ENDBRANCH   6   7
BRANCH   6  13
ATOM     12  C   UNL     1      -0.234  12.439  18.551  0.00  0.00    +0.000 C 
ATOM     13  C   UNL     1      -0.104  10.917  18.605  0.00  0.00    +0.000 C 
ATOM     14  C   UNL     1      -1.437  10.301  19.043  0.00  0.00    +0.000 C 
ENDBRANCH   6  13
ENDBRANCH   2   6
ENDBRANCH   1   3
BRANCH   1  15
ATOM     15  N   UNL     1       3.637   6.719  17.723  0.00  0.00    +0.000 N 
ATOM     16  C   UNL     1       3.988   5.518  17.164  0.00  0.00    +0.000 C 
ATOM     17  O   UNL     1       3.223   4.563  17.079  0.00  0.00    +0.000 OA
ATOM     18  H   UNL     1       4.375   7.396  17.862  0.00  0.00    +0.000 HD
BRANCH  16  19
ATOM     19  C   UNL     1       5.429   5.514  16.609  0.00  0.00    +0.000 C 
BRANCH  19  20
ATOM     20  N   UNL     1       6.338   5.745  17.720  0.00  0.00    +0.000 N 
ATOM     21  C   UNL     1       7.427   6.576  17.635  0.00  0.00    +0.000 C 
ATOM     22  O   UNL     1       7.773   7.135  16.598  0.00  0.00    +0.000 OA
ATOM     23  H   UNL     1       6.079   5.411  18.648  0.00  0.00    +0.000 HD
BRANCH  21  24
ATOM     24  C   UNL     1       8.208   6.721  18.946  0.00  0.00    +0.000 C 
BRANCH  24  25
ATOM     25  N   UNL     1       8.124   5.488  19.753  0.00  0.00    +0.000 NA
ATOM     26  H   UNL     1       8.418   4.700  19.174  0.00  0.00    +0.000 HD
ATOM     27  H   UNL     1       7.140   5.315  19.968  0.00  0.00    +0.000 HD
ENDBRANCH  24  25
ENDBRANCH  21  24
ENDBRANCH  19  20
BRANCH  19  28
ATOM     28  C   UNL     1       5.751   4.201  15.874  0.00  0.00    +0.000 C 
BRANCH  28  29
ATOM     29  C   UNL     1       5.458   4.249  14.368  0.00  0.00    +0.000 C 
BRANCH  29  30
ATOM     30  C   UNL     1       6.719   4.061  13.524  0.00  0.00    +0.000 C 
BRANCH  30  31
ATOM     31  C   UNL     1       6.382   3.375  12.198  0.00  0.00    +0.000 C 
BRANCH  31  32
ATOM     32  N   UNL     1       4.938   3.317  12.005  0.00  0.00    +0.000 NA
ATOM     33  H   UNL     1       4.600   2.385  12.241  0.00  0.00    +0.000 HD
ATOM     34  H   UNL     1       4.726   3.457  11.019  0.00  0.00    +0.000 HD
ENDBRANCH  31  32
ENDBRANCH  30  31
ENDBRANCH  29  30
ENDBRANCH  28  29
ENDBRANCH  19  28
ENDBRANCH  16  19
ENDBRANCH   1  15
BRANCH   1  35
ATOM     35  C   UNL     1       2.369   6.569  19.843  0.00  0.00    +0.000 C 
BRANCH  35  36
ATOM     36  C   UNL     1       2.012   5.127  20.173  0.00  0.00    +0.000 A 
ATOM     37  C   UNL     1       1.157   4.320  19.406  0.00  0.00    +0.000 A 
ATOM     38  C   UNL     1       0.762   3.054  19.828  0.00  0.00    +0.000 A 
ATOM     39  C   UNL     1       1.264   2.535  21.003  0.00  0.00    +0.000 A 
ATOM     40  C   UNL     1       2.173   3.286  21.741  0.00  0.00    +0.000 A 
ATOM     41  C   UNL     1       2.541   4.564  21.344  0.00  0.00    +0.000 A 
ENDBRANCH  35  36
ENDBRANCH   1  35
TORSDOF 16
ENDMDL
MODEL 6
REMARK VINA RESULT:      -6.9      2.581      8.318
REMARK  Name = 
REMARK  18 active torsions:
REMARK  status: ('A' for Active; 'I' for Inactive)
REMARK    1  A    between atoms: C_1  and  C_2
REMARK    2  A    between atoms: C_2  and  C_3
REMARK    3  A    between atoms: C_2  and  C_4
REMARK    4  A    between atoms: C_4  and  N_5
REMARK    5  A    between atoms: C_4  and  C_30
REMARK    6  A    between atoms: C_6  and  C_8
REMARK    7  A    between atoms: C_8  and  C_9
REMARK    8  A    between atoms: C_8  and  N_16
REMARK    9  A    between atoms: C_9  and  C_10
REMARK   10  A    between atoms: C_17  and  C_19
REMARK   11  A    between atoms: C_19  and  C_20
REMARK   12  A    between atoms: C_19  and  N_25
REMARK   13  A    between atoms: C_20  and  C_21
REMARK   14  A    between atoms: C_21  and  C_22
REMARK   15  A    between atoms: C_22  and  C_23
REMARK   16  A    between atoms: C_23  and  N_24
REMARK   17  A    between atoms: C_26  and  C_28
REMARK   18  A    between atoms: C_28  and  N_29
REMARK                            x       y       z     vdW  Elec       q    Type
REMARK                         _______ _______ _______ _____ _____    ______ ____
ROOT
ATOM      1  C   UNL     1       2.396   6.975  18.409  0.00  0.00    +0.000 C 
ENDROOT
BRANCH   1   3
ATOM      2  N   UNL     1       1.000   8.822  19.251  0.00  0.00    +0.000 N 
ATOM      3  C   UNL     1       1.900   8.436  18.286  0.00  0.00    +0.000 C 
ATOM      4  O   UNL     1       2.323   9.214  17.430  0.00  0.00    +0.000 OA
ATOM      5  H   UNL     1       0.481   8.123  19.774  0.00  0.00    +0.000 HD
BRANCH   2   6
ATOM      6  C   UNL     1       0.607  10.216  19.443  0.00  0.00    +0.000 C 
BRANCH   6   7
ATOM      7  C   UNL     1       0.953  10.630  20.890  0.00  0.00    +0.000 C 
ATOM      8  N   UNL     1       0.748   9.688  21.858  0.00  0.00    +0.000 N 
ATOM      9  O   UNL     1       1.432  11.727  21.181  0.00  0.00    +0.000 OA
ATOM     10  H   UNL     1       0.497   8.730  21.649  0.00  0.00    +0.000 HD
ATOM     11  H   UNL     1       1.051   9.905  22.799  0.00  0.00    +0.000 HD
ENDBRANCH   6   7
BRANCH   6  13
ATOM     12  C   UNL     1      -1.213  10.056  17.650  0.00  0.00    +0.000 C 
ATOM     13  C   UNL     1      -0.886  10.400  19.102  0.00  0.00    +0.000 C 
ATOM     14  C   UNL     1      -1.380  11.815  19.420  0.00  0.00    +0.000 C 
ENDBRANCH   6  13
ENDBRANCH   2   6
ENDBRANCH   1   3
BRANCH   1  15
ATOM     15  N   UNL     1       3.665   6.799  17.710  0.00  0.00    +0.000 N 
ATOM     16  C   UNL     1       4.103   5.618  17.169  0.00  0.00    +0.000 C 
ATOM     17  O   UNL     1       3.432   4.592  17.154  0.00  0.00    +0.000 OA
ATOM     18  H   UNL     1       4.339   7.548  17.788  0.00  0.00    +0.000 HD
BRANCH  16  19
ATOM     19  C   UNL     1       5.507   5.735  16.536  0.00  0.00    +0.000 C 
BRANCH  19  20
ATOM     20  N   UNL     1       6.477   5.839  17.613  0.00  0.00    +0.000 N 
ATOM     21  C   UNL     1       7.385   6.864  17.707  0.00  0.00    +0.000 C 
ATOM     22  O   UNL     1       7.509   7.738  16.853  0.00  0.00    +0.000 OA
ATOM     23  H   UNL     1       6.386   5.224  18.422  0.00  0.00    +0.000 HD
BRANCH  21  24
ATOM     24  C   UNL     1       8.267   6.807  18.959  0.00  0.00    +0.000 C 
BRANCH  24  25
ATOM     25  N   UNL     1       8.046   5.555  19.708  0.00  0.00    +0.000 NA
ATOM     26  H   UNL     1       7.854   4.807  19.041  0.00  0.00    +0.000 HD
ATOM     27  H   UNL     1       7.189   5.658  20.254  0.00  0.00    +0.000 HD
ENDBRANCH  24  25
ENDBRANCH  21  24
ENDBRANCH  19  20
BRANCH  19  28
ATOM     28  C   UNL     1       5.812   4.544  15.609  0.00  0.00    +0.000 C 
BRANCH  28  29
ATOM     29  C   UNL     1       6.915   4.830  14.581  0.00  0.00    +0.000 C 
BRANCH  29  30
ATOM     30  C   UNL     1       6.721   4.043  13.285  0.00  0.00    +0.000 C 
BRANCH  30  31
ATOM     31  C   UNL     1       5.236   3.778  13.032  0.00  0.00    +0.000 C 
BRANCH  31  32
ATOM     32  N   UNL     1       5.053   3.040  11.788  0.00  0.00    +0.000 NA
ATOM     33  H   UNL     1       5.944   2.969  11.299  0.00  0.00    +0.000 HD
ATOM     34  H   UNL     1       4.431   3.565  11.175  0.00  0.00    +0.000 HD
ENDBRANCH  31  32
ENDBRANCH  30  31
ENDBRANCH  29  30
ENDBRANCH  28  29
ENDBRANCH  19  28
ENDBRANCH  16  19
ENDBRANCH   1  15
BRANCH   1  35
ATOM     35  C   UNL     1       2.522   6.576  19.893  0.00  0.00    +0.000 C 
BRANCH  35  36
ATOM     36  C   UNL     1       2.081   5.176  20.297  0.00  0.00    +0.000 A 
ATOM     37  C   UNL     1       2.536   4.491  21.434  0.00  0.00    +0.000 A 
ATOM     38  C   UNL     1       2.200   3.163  21.680  0.00  0.00    +0.000 A 
ATOM     39  C   UNL     1       1.346   2.502  20.824  0.00  0.00    +0.000 A 
ATOM     40  C   UNL     1       0.821   3.184  19.731  0.00  0.00    +0.000 A 
ATOM     41  C   UNL     1       1.182   4.497  19.461  0.00  0.00    +0.000 A 
ENDBRANCH  35  36
ENDBRANCH   1  35
TORSDOF 16
ENDMDL
MODEL 7
REMARK VINA RESULT:      -6.9      1.908      3.255
REMARK  Name = 
REMARK  18 active torsions:
REMARK  status: ('A' for Active; 'I' for Inactive)
REMARK    1  A    between atoms: C_1  and  C_2
REMARK    2  A    between atoms: C_2  and  C_3
REMARK    3  A    between atoms: C_2  and  C_4
REMARK    4  A    between atoms: C_4  and  N_5
REMARK    5  A    between atoms: C_4  and  C_30
REMARK    6  A    between atoms: C_6  and  C_8
REMARK    7  A    between atoms: C_8  and  C_9
REMARK    8  A    between atoms: C_8  and  N_16
REMARK    9  A    between atoms: C_9  and  C_10
REMARK   10  A    between atoms: C_17  and  C_19
REMARK   11  A    between atoms: C_19  and  C_20
REMARK   12  A    between atoms: C_19  and  N_25
REMARK   13  A    between atoms: C_20  and  C_21
REMARK   14  A    between atoms: C_21  and  C_22
REMARK   15  A    between atoms: C_22  and  C_23
REMARK   16  A    between atoms: C_23  and  N_24
REMARK   17  A    between atoms: C_26  and  C_28
REMARK   18  A    between atoms: C_28  and  N_29
REMARK                            x       y       z     vdW  Elec       q    Type
REMARK                         _______ _______ _______ _____ _____    ______ ____
ROOT
ATOM      1  C   UNL     1       3.043   6.745  18.114  0.00  0.00    +0.000 C 
ENDROOT
BRANCH   1   3
ATOM      2  N   UNL     1       2.642   4.365  18.610  0.00  0.00    +0.000 N 
ATOM      3  C   UNL     1       3.249   5.521  19.040  0.00  0.00    +0.000 C 
ATOM      4  O   UNL     1       3.952   5.561  20.050  0.00  0.00    +0.000 OA
ATOM      5  H   UNL     1       1.880   4.407  17.941  0.00  0.00    +0.000 HD
BRANCH   2   6
ATOM      6  C   UNL     1       2.919   3.064  19.214  0.00  0.00    +0.000 C 
BRANCH   6   7
ATOM      7  C   UNL     1       3.041   2.014  18.089  0.00  0.00    +0.000 C 
ATOM      8  N   UNL     1       3.868   0.954  18.334  0.00  0.00    +0.000 N 
ATOM      9  O   UNL     1       2.406   2.076  17.036  0.00  0.00    +0.000 OA
ATOM     10  H   UNL     1       4.293   0.785  19.237  0.00  0.00    +0.000 HD
ATOM     11  H   UNL     1       3.895   0.209  17.650  0.00  0.00    +0.000 HD
ENDBRANCH   6   7
BRANCH   6  13
ATOM     12  C   UNL     1       0.585   3.591  20.125  0.00  0.00    +0.000 C 
ATOM     13  C   UNL     1       1.831   2.716  20.251  0.00  0.00    +0.000 C 
ATOM     14  C   UNL     1       2.361   2.778  21.687  0.00  0.00    +0.000 C 
ENDBRANCH   6  13
ENDBRANCH   2   6
ENDBRANCH   1   3
BRANCH   1  15
ATOM     15  N   UNL     1       2.300   7.795  18.801  0.00  0.00    +0.000 N 
ATOM     16  C   UNL     1       1.870   8.959  18.220  0.00  0.00    +0.000 C 
ATOM     17  O   UNL     1       2.007   9.209  17.027  0.00  0.00    +0.000 OA
ATOM     18  H   UNL     1       2.256   7.741  19.810  0.00  0.00    +0.000 HD
BRANCH  16  19
ATOM     19  C   UNL     1       1.153   9.896  19.216  0.00  0.00    +0.000 C 
BRANCH  19  20
ATOM     20  N   UNL     1       1.502  11.265  18.876  0.00  0.00    +0.000 N 
ATOM     21  C   UNL     1       1.681  12.248  19.817  0.00  0.00    +0.000 C 
ATOM     22  O   UNL     1       1.488  12.078  21.018  0.00  0.00    +0.000 OA
ATOM     23  H   UNL     1       1.786  11.481  17.920  0.00  0.00    +0.000 HD
BRANCH  21  24
ATOM     24  C   UNL     1       2.110  13.600  19.238  0.00  0.00    +0.000 C 
BRANCH  24  25
ATOM     25  N   UNL     1       2.908  13.423  18.008  0.00  0.00    +0.000 NA
ATOM     26  H   UNL     1       2.333  13.687  17.207  0.00  0.00    +0.000 HD
ATOM     27  H   UNL     1       3.094  12.425  17.892  0.00  0.00    +0.000 HD
ENDBRANCH  24  25
ENDBRANCH  21  24
ENDBRANCH  19  20
BRANCH  19  28
ATOM     28  C   UNL     1      -0.371   9.678  19.202  0.00  0.00    +0.000 C 
BRANCH  28  29
ATOM     29  C   UNL     1      -1.115  10.584  18.212  0.00  0.00    +0.000 C 
BRANCH  29  30
ATOM     30  C   UNL     1      -2.427   9.964  17.728  0.00  0.00    +0.000 C 
BRANCH  30  31
ATOM     31  C   UNL     1      -2.531  10.043  16.204  0.00  0.00    +0.000 C 
BRANCH  31  32
ATOM     32  N   UNL     1      -2.949  11.377  15.788  0.00  0.00    +0.000 NA
ATOM     33  H   UNL     1      -3.197  11.927  16.609  0.00  0.00    +0.000 HD
ATOM     34  H   UNL     1      -3.795  11.303  15.226  0.00  0.00    +0.000 HD
ENDBRANCH  31  32
ENDBRANCH  30  31
ENDBRANCH  29  30
ENDBRANCH  28  29
ENDBRANCH  19  28
ENDBRANCH  16  19
ENDBRANCH   1  15
BRANCH   1  35
ATOM     35  C   UNL     1       4.403   7.269  17.609  0.00  0.00    +0.000 C 
BRANCH  35  36
ATOM     36  C   UNL     1       5.324   6.292  16.891  0.00  0.00    +0.000 A 
ATOM     37  C   UNL     1       5.118   5.809  15.590  0.00  0.00    +0.000 A 
ATOM     38  C   UNL     1       5.920   4.817  15.035  0.00  0.00    +0.000 A 
ATOM     39  C   UNL     1       6.992   4.323  15.748  0.00  0.00    +0.000 A 
ATOM     40  C   UNL     1       7.262   4.841  17.010  0.00  0.00    +0.000 A 
ATOM     41  C   UNL     1       6.442   5.805  17.583  0.00  0.00    +0.000 A 
ENDBRANCH  35  36
ENDBRANCH   1  35
TORSDOF 16
ENDMDL
MODEL 8
REMARK VINA RESULT:      -6.8      3.830      7.102
REMARK  Name = 
REMARK  18 active torsions:
REMARK  status: ('A' for Active; 'I' for Inactive)
REMARK    1  A    between atoms: C_1  and  C_2
REMARK    2  A    between atoms: C_2  and  C_3
REMARK    3  A    between atoms: C_2  and  C_4
REMARK    4  A    between atoms: C_4  and  N_5
REMARK    5  A    between atoms: C_4  and  C_30
REMARK    6  A    between atoms: C_6  and  C_8
REMARK    7  A    between atoms: C_8  and  C_9
REMARK    8  A    between atoms: C_8  and  N_16
REMARK    9  A    between atoms: C_9  and  C_10
REMARK   10  A    between atoms: C_17  and  C_19
REMARK   11  A    between atoms: C_19  and  C_20
REMARK   12  A    between atoms: C_19  and  N_25
REMARK   13  A    between atoms: C_20  and  C_21
REMARK   14  A    between atoms: C_21  and  C_22
REMARK   15  A    between atoms: C_22  and  C_23
REMARK   16  A    between atoms: C_23  and  N_24
REMARK   17  A    between atoms: C_26  and  C_28
REMARK   18  A    between atoms: C_28  and  N_29
REMARK                            x       y       z     vdW  Elec       q    Type
REMARK                         _______ _______ _______ _____ _____    ______ ____
ROOT
ATOM      1  C   UNL     1       4.346   5.920  18.993  0.00  0.00    +0.000 C 
ENDROOT
BRANCH   1   3
ATOM      2  N   UNL     1       3.124   3.895  19.682  0.00  0.00    +0.000 N 
ATOM      3  C   UNL     1       4.340   4.400  19.287  0.00  0.00    +0.000 C 
ATOM      4  O   UNL     1       5.329   3.685  19.122  0.00  0.00    +0.000 OA
ATOM      5  H   UNL     1       2.410   4.514  20.052  0.00  0.00    +0.000 HD
BRANCH   2   6
ATOM      6  C   UNL     1       2.863   2.460  19.770  0.00  0.00    +0.000 C 
BRANCH   6   7
ATOM      7  C   UNL     1       3.032   1.841  18.366  0.00  0.00    +0.000 C 
ATOM      8  N   UNL     1       3.965   0.849  18.247  0.00  0.00    +0.000 N 
ATOM      9  O   UNL     1       2.347   2.169  17.396  0.00  0.00    +0.000 OA
ATOM     10  H   UNL     1       4.443   0.447  19.042  0.00  0.00    +0.000 HD
ATOM     11  H   UNL     1       4.030   0.367  17.360  0.00  0.00    +0.000 HD
ENDBRANCH   6   7
BRANCH   6  13
ATOM     12  C   UNL     1       0.380   3.086  19.757  0.00  0.00    +0.000 C 
ATOM     13  C   UNL     1       1.467   2.210  20.377  0.00  0.00    +0.000 C 
ATOM     14  C   UNL     1       1.461   2.382  21.900  0.00  0.00    +0.000 C 
ENDBRANCH   6  13
ENDBRANCH   2   6
ENDBRANCH   1   3
BRANCH   1  15
ATOM     15  N   UNL     1       5.511   6.287  18.195  0.00  0.00    +0.000 N 
ATOM     16  C   UNL     1       6.799   6.324  18.660  0.00  0.00    +0.000 C 
ATOM     17  O   UNL     1       7.118   5.979  19.793  0.00  0.00    +0.000 OA
ATOM     18  H   UNL     1       5.334   6.713  17.295  0.00  0.00    +0.000 HD
BRANCH  16  19
ATOM     19  C   UNL     1       7.808   6.798  17.592  0.00  0.00    +0.000 C 
BRANCH  19  20
ATOM     20  N   UNL     1       7.364   6.298  16.302  0.00  0.00    +0.000 N 
ATOM     21  C   UNL     1       7.459   4.978  15.936  0.00  0.00    +0.000 C 
ATOM     22  O   UNL     1       7.997   4.122  16.632  0.00  0.00    +0.000 OA
ATOM     23  H   UNL     1       6.811   6.908  15.698  0.00  0.00    +0.000 HD
BRANCH  21  24
ATOM     24  C   UNL     1       6.869   4.666  14.557  0.00  0.00    +0.000 C 
BRANCH  24  25
ATOM     25  N   UNL     1       5.408   4.870  14.546  0.00  0.00    +0.000 NA
ATOM     26  H   UNL     1       4.959   3.990  14.287  0.00  0.00    +0.000 HD
ATOM     27  H   UNL     1       5.183   5.521  13.791  0.00  0.00    +0.000 HD
ENDBRANCH  24  25
ENDBRANCH  21  24
ENDBRANCH  19  20
BRANCH  19  28
ATOM     28  C   UNL     1       7.954   8.331  17.589  0.00  0.00    +0.000 C 
BRANCH  28  29
ATOM     29  C   UNL     1       8.780   8.875  18.762  0.00  0.00    +0.000 C 
BRANCH  29  30
ATOM     30  C   UNL     1       9.139  10.351  18.587  0.00  0.00    +0.000 C 
BRANCH  30  31
ATOM     31  C   UNL     1       8.160  11.033  17.630  0.00  0.00    +0.000 C 
BRANCH  31  32
ATOM     32  N   UNL     1       8.449  12.459  17.533  0.00  0.00    +0.000 NA
ATOM     33  H   UNL     1       8.450  12.740  16.554  0.00  0.00    +0.000 HD
ATOM     34  H   UNL     1       9.391  12.634  17.881  0.00  0.00    +0.000 HD
ENDBRANCH  31  32
ENDBRANCH  30  31
ENDBRANCH  29  30
ENDBRANCH  28  29
ENDBRANCH  19  28
ENDBRANCH  16  19
ENDBRANCH   1  15
BRANCH   1  35
ATOM     35  C   UNL     1       3.039   6.333  18.288  0.00  0.00    +0.000 C 
BRANCH  35  36
ATOM     36  C   UNL     1       2.316   7.574  18.793  0.00  0.00    +0.000 A 
ATOM     37  C   UNL     1       1.891   7.769  20.117  0.00  0.00    +0.000 A 
ATOM     38  C   UNL     1       1.119   8.864  20.490  0.00  0.00    +0.000 A 
ATOM     39  C   UNL     1       0.802   9.829  19.559  0.00  0.00    +0.000 A 
ATOM     40  C   UNL     1       1.276   9.697  18.258  0.00  0.00    +0.000 A 
ATOM     41  C   UNL     1       2.016   8.588  17.871  0.00  0.00    +0.000 A 
ENDBRANCH  35  36
ENDBRANCH   1  35
TORSDOF 16
ENDMDL
MODEL 9
REMARK VINA RESULT:      -6.8      3.043      7.944
REMARK  Name = 
REMARK  18 active torsions:
REMARK  status: ('A' for Active; 'I' for Inactive)
REMARK    1  A    between atoms: C_1  and  C_2
REMARK    2  A    between atoms: C_2  and  C_3
REMARK    3  A    between atoms: C_2  and  C_4
REMARK    4  A    between atoms: C_4  and  N_5
REMARK    5  A    between atoms: C_4  and  C_30
REMARK    6  A    between atoms: C_6  and  C_8
REMARK    7  A    between atoms: C_8  and  C_9
REMARK    8  A    between atoms: C_8  and  N_16
REMARK    9  A    between atoms: C_9  and  C_10
REMARK   10  A    between atoms: C_17  and  C_19
REMARK   11  A    between atoms: C_19  and  C_20
REMARK   12  A    between atoms: C_19  and  N_25
REMARK   13  A    between atoms: C_20  and  C_21
REMARK   14  A    between atoms: C_21  and  C_22
REMARK   15  A    between atoms: C_22  and  C_23
REMARK   16  A    between atoms: C_23  and  N_24
REMARK   17  A    between atoms: C_26  and  C_28
REMARK   18  A    between atoms: C_28  and  N_29
REMARK                            x       y       z     vdW  Elec       q    Type
REMARK                         _______ _______ _______ _____ _____    ______ ____
ROOT
ATOM      1  C   UNL     1       2.464   7.237  18.420  0.00  0.00    +0.000 C 
ENDROOT
BRANCH   1   3
ATOM      2  N   UNL     1       0.994   9.049  19.209  0.00  0.00    +0.000 N 
ATOM      3  C   UNL     1       1.872   8.654  18.228  0.00  0.00    +0.000 C 
ATOM      4  O   UNL     1       2.206   9.397  17.305  0.00  0.00    +0.000 OA
ATOM      5  H   UNL     1       0.544   8.357  19.801  0.00  0.00    +0.000 HD
BRANCH   2   6
ATOM      6  C   UNL     1       0.524  10.427  19.332  0.00  0.00    +0.000 C 
BRANCH   6   7
ATOM      7  C   UNL     1       1.005  10.994  20.685  0.00  0.00    +0.000 C 
ATOM      8  N   UNL     1       1.606  12.221  20.651  0.00  0.00    +0.000 N 
ATOM      9  O   UNL     1       0.831  10.417  21.759  0.00  0.00    +0.000 OA
ATOM     10  H   UNL     1       1.638  12.794  19.818  0.00  0.00    +0.000 HD
ATOM     11  H   UNL     1       1.848  12.652  21.534  0.00  0.00    +0.000 HD
ENDBRANCH   6   7
BRANCH   6  13
ATOM     12  C   UNL     1      -1.466  10.140  17.746  0.00  0.00    +0.000 C 
ATOM     13  C   UNL     1      -1.008  10.484  19.163  0.00  0.00    +0.000 C 
ATOM     14  C   UNL     1      -1.585  11.842  19.575  0.00  0.00    +0.000 C 
ENDBRANCH   6  13
ENDBRANCH   2   6
ENDBRANCH   1   3
BRANCH   1  15
ATOM     15  N   UNL     1       3.864   7.201  18.012  0.00  0.00    +0.000 N 
ATOM     16  C   UNL     1       4.482   6.127  17.425  0.00  0.00    +0.000 C 
ATOM     17  O   UNL     1       3.894   5.097  17.114  0.00  0.00    +0.000 OA
ATOM     18  H   UNL     1       4.458   7.948  18.347  0.00  0.00    +0.000 HD
BRANCH  16  19
ATOM     19  C   UNL     1       5.982   6.374  17.154  0.00  0.00    +0.000 C 
BRANCH  19  20
ATOM     20  N   UNL     1       6.249   6.033  15.767  0.00  0.00    +0.000 N 
ATOM     21  C   UNL     1       7.124   5.043  15.395  0.00  0.00    +0.000 C 
ATOM     22  O   UNL     1       7.813   4.414  16.193  0.00  0.00    +0.000 OA
ATOM     23  H   UNL     1       5.653   6.424  15.037  0.00  0.00    +0.000 HD
BRANCH  21  24
ATOM     24  C   UNL     1       7.202   4.812  13.882  0.00  0.00    +0.000 C 
BRANCH  24  25
ATOM     25  N   UNL     1       8.223   5.679  13.263  0.00  0.00    +0.000 NA
ATOM     26  H   UNL     1       8.675   5.160  12.509  0.00  0.00    +0.000 HD
ATOM     27  H   UNL     1       8.957   5.849  13.954  0.00  0.00    +0.000 HD
ENDBRANCH  24  25
ENDBRANCH  21  24
ENDBRANCH  19  20
BRANCH  19  28
ATOM     28  C   UNL     1       6.384   7.827  17.471  0.00  0.00    +0.000 C 
BRANCH  28  29
ATOM     29  C   UNL     1       7.898   8.073  17.421  0.00  0.00    +0.000 C 
BRANCH  29  30
ATOM     30  C   UNL     1       8.482   8.391  18.797  0.00  0.00    +0.000 C 
BRANCH  30  31
ATOM     31  C   UNL     1       9.106   9.788  18.808  0.00  0.00    +0.000 C 
BRANCH  31  32
ATOM     32  N   UNL     1       8.432  10.657  17.851  0.00  0.00    +0.000 NA
ATOM     33  H   UNL     1       7.428  10.641  18.025  0.00  0.00    +0.000 HD
ATOM     34  H   UNL     1       8.565  10.288  16.911  0.00  0.00    +0.000 HD
ENDBRANCH  31  32
ENDBRANCH  30  31
ENDBRANCH  29  30
ENDBRANCH  28  29
ENDBRANCH  19  28
ENDBRANCH  16  19
ENDBRANCH   1  15
BRANCH   1  35
ATOM     35  C   UNL     1       2.302   6.783  19.884  0.00  0.00    +0.000 C 
BRANCH  35  36
ATOM     36  C   UNL     1       1.990   5.316  20.148  0.00  0.00    +0.000 A 
ATOM     37  C   UNL     1       2.299   4.634  21.335  0.00  0.00    +0.000 A 
ATOM     38  C   UNL     1       2.110   3.262  21.468  0.00  0.00    +0.000 A 
ATOM     39  C   UNL     1       1.547   2.544  20.435  0.00  0.00    +0.000 A 
ATOM     40  C   UNL     1       1.162   3.211  19.277  0.00  0.00    +0.000 A 
ATOM     41  C   UNL     1       1.382   4.573  19.125  0.00  0.00    +0.000 A 
ENDBRANCH  35  36
ENDBRANCH   1  35
TORSDOF 16
ENDMDL
