MODEL 1
REMARK VINA RESULT:      -7.4      0.000      0.000
REMARK  Name = 
REMARK  15 active torsions:
REMARK  status: ('A' for Active; 'I' for Inactive)
REMARK    1  A    between atoms: N_1  and  C_2
REMARK    2  A    between atoms: C_2  and  C_3
REMARK    3  A    between atoms: C_5  and  O_6
REMARK    4  A    between atoms: O_6  and  C_7
REMARK    5  A    between atoms: C_7  and  C_8
REMARK    6  A    between atoms: C_7  and  C_18
REMARK    7  A    between atoms: C_8  and  N_9
REMARK    8  A    between atoms: N_9  and  C_10
REMARK    9  A    between atoms: C_10  and  C_11
REMARK   10  A    between atoms: C_11  and  C_12
REMARK   11  A    between atoms: C_12  and  N_13
REMARK   12  A    between atoms: C_20  and  O_21
REMARK   13  A    between atoms: C_22  and  N_23
REMARK   14  A    between atoms: C_32  and  O_33
REMARK   15  A    between atoms: C_34  and  O_35
REMARK                            x       y       z     vdW  Elec       q    Type
REMARK                         _______ _______ _______ _____ _____    ______ ____
ROOT
ATOM      1  C   UNL     1       3.791   5.971  18.212  0.00  0.00    +0.000 C 
ENDROOT
BRANCH   1   2
ATOM      2  C   UNL     1       5.314   6.062  18.470  0.00  0.00    +0.000 C 
ATOM      3  C   UNL     1       6.011   7.090  17.580  0.00  0.00    +0.000 C 
ATOM      4  C   UNL     1       7.377   6.474  17.374  0.00  0.00    +0.000 C 
ATOM      5  C   UNL     1       7.026   4.976  17.247  0.00  0.00    +0.000 C 
ATOM      6  O   UNL     1       5.963   4.790  18.216  0.00  0.00    +0.000 OA
BRANCH   5   7
ATOM      7  N   UNL     1       6.577   4.549  15.910  0.00  0.00    +0.000 N 
ATOM      8  C   UNL     1       5.577   3.605  15.744  0.00  0.00    +0.000 A 
ATOM      9  C   UNL     1       5.150   3.212  14.544  0.00  0.00    +0.000 A 
ATOM     10  C   UNL     1       5.788   3.762  13.346  0.00  0.00    +0.000 A 
ATOM     11  O   UNL     1       5.434   3.423  12.225  0.00  0.00    +0.000 OA
ATOM     12  N   UNL     1       6.807   4.639  13.584  0.00  0.00    +0.000 N 
ATOM     13  C   UNL     1       7.260   5.052  14.806  0.00  0.00    +0.000 A 
ATOM     14  O   UNL     1       8.228   5.806  14.883  0.00  0.00    +0.000 OA
ATOM     15  H   UNL     1       7.290   5.003  12.776  0.00  0.00    +0.000 HD
ENDBRANCH   5   7
BRANCH   4  16
ATOM     16  O   UNL     1       8.188   6.742  18.527  0.00  0.00    +0.000 OA
ATOM     17  H   UNL     1       7.668   6.566  19.330  0.00  0.00    +0.000 HD
ENDBRANCH   4  16
ENDBRANCH   1   2
BRANCH   1  18
ATOM     18  O   UNL     1       3.359   4.786  17.516  0.00  0.00    +0.000 OA
BRANCH  18  21
ATOM     19  C   UNL     1       1.221   3.627  20.114  0.00  0.00    +0.000 C 
ATOM     20  O   UNL     1       1.773   4.671  19.280  0.00  0.00    +0.000 OA
ATOM     21  C   UNL     1       2.242   4.091  18.061  0.00  0.00    +0.000 C 
ATOM     22  C   UNL     1       2.606   2.645  18.420  0.00  0.00    +0.000 C 
ATOM     23  C   UNL     1       1.495   2.299  19.404  0.00  0.00    +0.000 C 
BRANCH  22  24
ATOM     24  O   UNL     1       2.593   1.782  17.280  0.00  0.00    +0.000 OA
ATOM     25  H   UNL     1       2.488   2.365  16.501  0.00  0.00    +0.000 HD
ENDBRANCH  22  24
BRANCH  23  26
ATOM     26  O   UNL     1       0.343   1.878  18.636  0.00  0.00    +0.000 OA
ATOM     27  H   UNL     1       0.641   1.334  17.885  0.00  0.00    +0.000 HD
ENDBRANCH  23  26
BRANCH  19  28
ATOM     28  C   UNL     1       1.790   3.768  21.536  0.00  0.00    +0.000 C 
BRANCH  28  29
ATOM     29  N   UNL     1       2.633   2.644  21.948  0.00  0.00    +0.000 NA
ATOM     30  H   UNL     1       2.079   2.028  22.546  0.00  0.00    +0.000 HD
ATOM     31  H   UNL     1       3.373   3.001  22.557  0.00  0.00    +0.000 HD
ENDBRANCH  28  29
ENDBRANCH  19  28
ENDBRANCH  18  21
ENDBRANCH   1  18
BRANCH   1  32
ATOM     32  C   UNL     1       3.206   7.275  17.605  0.00  0.00    +0.000 C 
BRANCH  32  33
ATOM     33  N   UNL     1       2.020   7.777  18.324  0.00  0.00    +0.000 NA
ATOM     34  H   UNL     1       2.140   7.526  19.308  0.00  0.00    +0.000 HD
BRANCH  33  35
ATOM     35  C   UNL     1       1.853   9.225  18.208  0.00  0.00    +0.000 C 
BRANCH  35  36
ATOM     36  C   UNL     1       0.575   9.637  18.921  0.00  0.00    +0.000 C 
BRANCH  36  37
ATOM     37  C   UNL     1       0.812  10.807  19.872  0.00  0.00    +0.000 C 
BRANCH  37  38
ATOM     38  N   UNL     1       0.416  10.484  21.227  0.00  0.00    +0.000 N 
ATOM     39  C   UNL     1       0.691   9.324  21.894  0.00  0.00    +0.000 A 
ATOM     40  C   UNL     1       0.098   9.477  23.125  0.00  0.00    +0.000 A 
ATOM     41  N   UNL     1      -0.521  10.697  23.218  0.00  0.00    +0.000 NA
ATOM     42  C   UNL     1      -0.312  11.282  22.060  0.00  0.00    +0.000 A 
ENDBRANCH  37  38
ENDBRANCH  36  37
ENDBRANCH  35  36
ENDBRANCH  33  35
ENDBRANCH  32  33
ENDBRANCH   1  32
TORSDOF 15
ENDMDL
MODEL 2
REMARK VINA RESULT:      -7.4      1.004      1.300
REMARK  Name = 
REMARK  15 active torsions:
REMARK  status: ('A' for Active; 'I' for Inactive)
REMARK    1  A    between atoms: N_1  and  C_2
REMARK    2  A    between atoms: C_2  and  C_3
REMARK    3  A    between atoms: C_5  and  O_6
REMARK    4  A    between atoms: O_6  and  C_7
REMARK    5  A    between atoms: C_7  and  C_8
REMARK    6  A    between atoms: C_7  and  C_18
REMARK    7  A    between atoms: C_8  and  N_9
REMARK    8  A    between atoms: N_9  and  C_10
REMARK    9  A    between atoms: C_10  and  C_11
REMARK   10  A    between atoms: C_11  and  C_12
REMARK   11  A    between atoms: C_12  and  N_13
REMARK   12  A    between atoms: C_20  and  O_21
REMARK   13  A    between atoms: C_22  and  N_23
REMARK   14  A    between atoms: C_32  and  O_33
REMARK   15  A    between atoms: C_34  and  O_35
REMARK                            x       y       z     vdW  Elec       q    Type
REMARK                         _______ _______ _______ _____ _____    ______ ____
ROOT
ATOM      1  C   UNL     1       3.835   6.057  18.194  0.00  0.00    +0.000 C 
ENDROOT
BRANCH   1   2
ATOM      2  C   UNL     1       5.290   5.905  18.700  0.00  0.00    +0.000 C 
ATOM      3  C   UNL     1       6.258   6.885  18.039  0.00  0.00    +0.000 C 
ATOM      4  C   UNL     1       7.546   6.094  17.994  0.00  0.00    +0.000 C 
ATOM      5  C   UNL     1       7.030   4.678  17.664  0.00  0.00    +0.000 C 
ATOM      6  O   UNL     1       5.800   4.576  18.428  0.00  0.00    +0.000 OA
BRANCH   5   7
ATOM      7  N   UNL     1       6.764   4.423  16.237  0.00  0.00    +0.000 N 
ATOM      8  C   UNL     1       7.320   5.208  15.241  0.00  0.00    +0.000 A 
ATOM      9  C   UNL     1       7.101   4.989  13.944  0.00  0.00    +0.000 A 
ATOM     10  C   UNL     1       6.200   3.904  13.549  0.00  0.00    +0.000 A 
ATOM     11  O   UNL     1       5.964   3.672  12.371  0.00  0.00    +0.000 OA
ATOM     12  N   UNL     1       5.640   3.210  14.583  0.00  0.00    +0.000 N 
ATOM     13  C   UNL     1       5.851   3.422  15.917  0.00  0.00    +0.000 A 
ATOM     14  O   UNL     1       5.237   2.761  16.752  0.00  0.00    +0.000 OA
ATOM     15  H   UNL     1       4.986   2.482  14.339  0.00  0.00    +0.000 HD
ENDBRANCH   5   7
BRANCH   4  16
ATOM     16  O   UNL     1       8.175   6.152  19.283  0.00  0.00    +0.000 OA
ATOM     17  H   UNL     1       7.496   6.054  19.972  0.00  0.00    +0.000 HD
ENDBRANCH   4  16
ENDBRANCH   1   2
BRANCH   1  18
ATOM     18  O   UNL     1       3.303   4.907  17.510  0.00  0.00    +0.000 OA
BRANCH  18  21
ATOM     19  C   UNL     1       1.294   3.770  20.217  0.00  0.00    +0.000 C 
ATOM     20  O   UNL     1       1.849   4.813  19.385  0.00  0.00    +0.000 OA
ATOM     21  C   UNL     1       2.186   4.259  18.111  0.00  0.00    +0.000 C 
ATOM     22  C   UNL     1       2.481   2.779  18.384  0.00  0.00    +0.000 C 
ATOM     23  C   UNL     1       1.427   2.460  19.437  0.00  0.00    +0.000 C 
BRANCH  22  24
ATOM     24  O   UNL     1       2.328   1.969  17.216  0.00  0.00    +0.000 OA
ATOM     25  H   UNL     1       1.981   2.564  16.520  0.00  0.00    +0.000 HD
ENDBRANCH  22  24
BRANCH  23  26
ATOM     26  O   UNL     1       0.195   2.145  18.745  0.00  0.00    +0.000 OA
ATOM     27  H   UNL     1       0.344   2.209  17.784  0.00  0.00    +0.000 HD
ENDBRANCH  23  26
BRANCH  19  28
ATOM     28  C   UNL     1       1.975   3.812  21.595  0.00  0.00    +0.000 C 
BRANCH  28  29
ATOM     29  N   UNL     1       2.599   2.547  21.984  0.00  0.00    +0.000 NA
ATOM     30  H   UNL     1       2.071   1.782  21.560  0.00  0.00    +0.000 HD
ATOM     31  H   UNL     1       2.474   2.420  22.991  0.00  0.00    +0.000 HD
ENDBRANCH  28  29
ENDBRANCH  19  28
ENDBRANCH  18  21
ENDBRANCH   1  18
BRANCH   1  32
ATOM     32  C   UNL     1       3.605   7.383  17.418  0.00  0.00    +0.000 C 
BRANCH  32  33
ATOM     33  N   UNL     1       2.246   7.931  17.582  0.00  0.00    +0.000 NA
ATOM     34  H   UNL     1       1.782   7.367  18.298  0.00  0.00    +0.000 HD
BRANCH  33  35
ATOM     35  C   UNL     1       2.243   9.335  17.989  0.00  0.00    +0.000 C 
BRANCH  35  36
ATOM     36  C   UNL     1       1.012   9.604  18.841  0.00  0.00    +0.000 C 
BRANCH  36  37
ATOM     37  C   UNL     1       1.132   8.966  20.223  0.00  0.00    +0.000 C 
BRANCH  37  38
ATOM     38  N   UNL     1       0.340   9.673  21.208  0.00  0.00    +0.000 N 
ATOM     39  C   UNL     1       0.128   9.289  22.501  0.00  0.00    +0.000 A 
ATOM     40  C   UNL     1      -0.693  10.259  23.027  0.00  0.00    +0.000 A 
ATOM     41  N   UNL     1      -0.977  11.217  22.087  0.00  0.00    +0.000 NA
ATOM     42  C   UNL     1      -0.340  10.838  21.002  0.00  0.00    +0.000 A 
ENDBRANCH  37  38
ENDBRANCH  36  37
ENDBRANCH  35  36
ENDBRANCH  33  35
ENDBRANCH  32  33
ENDBRANCH   1  32
TORSDOF 15
ENDMDL
MODEL 3
REMARK VINA RESULT:      -7.1      2.972      7.859
REMARK  Name = 
REMARK  15 active torsions:
REMARK  status: ('A' for Active; 'I' for Inactive)
REMARK    1  A    between atoms: N_1  and  C_2
REMARK    2  A    between atoms: C_2  and  C_3
REMARK    3  A    between atoms: C_5  and  O_6
REMARK    4  A    between atoms: O_6  and  C_7
REMARK    5  A    between atoms: C_7  and  C_8
REMARK    6  A    between atoms: C_7  and  C_18
REMARK    7  A    between atoms: C_8  and  N_9
REMARK    8  A    between atoms: N_9  and  C_10
REMARK    9  A    between atoms: C_10  and  C_11
REMARK   10  A    between atoms: C_11  and  C_12
REMARK   11  A    between atoms: C_12  and  N_13
REMARK   12  A    between atoms: C_20  and  O_21
REMARK   13  A    between atoms: C_22  and  N_23
REMARK   14  A    between atoms: C_32  and  O_33
REMARK   15  A    between atoms: C_34  and  O_35
REMARK                            x       y       z     vdW  Elec       q    Type
REMARK                         _______ _______ _______ _____ _____    ______ ____
ROOT
ATOM      1  C   UNL     1       1.571   7.478  19.999  0.00  0.00    +0.000 C 
ENDROOT
BRANCH   1   2
ATOM      2  C   UNL     1       1.327   8.435  21.191  0.00  0.00    +0.000 C 
ATOM      3  C   UNL     1      -0.111   8.390  21.708  0.00  0.00    +0.000 C 
ATOM      4  C   UNL     1      -0.335   9.812  22.175  0.00  0.00    +0.000 C 
ATOM      5  C   UNL     1       0.412  10.617  21.091  0.00  0.00    +0.000 C 
ATOM      6  O   UNL     1       1.587   9.811  20.816  0.00  0.00    +0.000 OA
BRANCH   5   7
ATOM      7  N   UNL     1      -0.346  10.852  19.850  0.00  0.00    +0.000 N 
ATOM      8  C   UNL     1      -1.300   9.957  19.397  0.00  0.00    +0.000 A 
ATOM      9  C   UNL     1      -2.003  10.155  18.282  0.00  0.00    +0.000 A 
ATOM     10  C   UNL     1      -1.731  11.345  17.473  0.00  0.00    +0.000 A 
ATOM     11  O   UNL     1      -2.346  11.563  16.438  0.00  0.00    +0.000 OA
ATOM     12  N   UNL     1      -0.737  12.153  17.945  0.00  0.00    +0.000 N 
ATOM     13  C   UNL     1      -0.004  11.963  19.084  0.00  0.00    +0.000 A 
ATOM     14  O   UNL     1       0.907  12.739  19.368  0.00  0.00    +0.000 OA
ATOM     15  H   UNL     1      -0.503  12.958  17.385  0.00  0.00    +0.000 HD
ENDBRANCH   5   7
BRANCH   4  16
ATOM     16  O   UNL     1       0.256   9.975  23.473  0.00  0.00    +0.000 OA
ATOM     17  H   UNL     1      -0.267   9.478  24.125  0.00  0.00    +0.000 HD
ENDBRANCH   4  16
ENDBRANCH   1   2
BRANCH   1  18
ATOM     18  O   UNL     1       2.304   6.280  20.317  0.00  0.00    +0.000 OA
BRANCH  18  21
ATOM     19  C   UNL     1       1.722   2.866  21.132  0.00  0.00    +0.000 C 
ATOM     20  O   UNL     1       1.869   4.259  21.486  0.00  0.00    +0.000 OA
ATOM     21  C   UNL     1       1.566   5.062  20.343  0.00  0.00    +0.000 C 
ATOM     22  C   UNL     1       1.902   4.180  19.134  0.00  0.00    +0.000 C 
ATOM     23  C   UNL     1       1.438   2.816  19.628  0.00  0.00    +0.000 C 
BRANCH  22  24
ATOM     24  O   UNL     1       1.203   4.584  17.954  0.00  0.00    +0.000 OA
ATOM     25  H   UNL     1       1.296   3.844  17.320  0.00  0.00    +0.000 HD
ENDBRANCH  22  24
BRANCH  23  26
ATOM     26  O   UNL     1       0.017   2.717  19.376  0.00  0.00    +0.000 OA
ATOM     27  H   UNL     1      -0.460   3.295  20.000  0.00  0.00    +0.000 HD
ENDBRANCH  23  26
BRANCH  19  28
ATOM     28  C   UNL     1       2.961   2.092  21.615  0.00  0.00    +0.000 C 
BRANCH  28  29
ATOM     29  N   UNL     1       4.201   2.484  20.943  0.00  0.00    +0.000 NA
ATOM     30  H   UNL     1       4.889   2.733  21.656  0.00  0.00    +0.000 HD
ATOM     31  H   UNL     1       4.032   3.353  20.431  0.00  0.00    +0.000 HD
ENDBRANCH  28  29
ENDBRANCH  19  28
ENDBRANCH  18  21
ENDBRANCH   1  18
BRANCH   1  32
ATOM     32  C   UNL     1       2.124   8.210  18.745  0.00  0.00    +0.000 C 
BRANCH  32  33
ATOM     33  N   UNL     1       2.591   7.295  17.688  0.00  0.00    +0.000 NA
ATOM     34  H   UNL     1       2.067   7.527  16.841  0.00  0.00    +0.000 HD
BRANCH  33  35
ATOM     35  C   UNL     1       4.023   7.414  17.423  0.00  0.00    +0.000 C 
BRANCH  35  36
ATOM     36  C   UNL     1       4.721   6.140  17.872  0.00  0.00    +0.000 C 
BRANCH  36  37
ATOM     37  C   UNL     1       4.550   5.015  16.856  0.00  0.00    +0.000 C 
BRANCH  37  38
ATOM     38  N   UNL     1       5.628   5.000  15.888  0.00  0.00    +0.000 N 
ATOM     39  C   UNL     1       5.561   4.525  14.610  0.00  0.00    +0.000 A 
ATOM     40  C   UNL     1       6.824   4.708  14.098  0.00  0.00    +0.000 A 
ATOM     41  N   UNL     1       7.647   5.284  15.032  0.00  0.00    +0.000 NA
ATOM     42  C   UNL     1       6.899   5.449  16.100  0.00  0.00    +0.000 A 
ENDBRANCH  37  38
ENDBRANCH  36  37
ENDBRANCH  35  36
ENDBRANCH  33  35
ENDBRANCH  32  33
ENDBRANCH   1  32
TORSDOF 15
ENDMDL
MODEL 4
REMARK VINA RESULT:      -7.0      1.260      1.631
REMARK  Name = 
REMARK  15 active torsions:
REMARK  status: ('A' for Active; 'I' for Inactive)
REMARK    1  A    between atoms: N_1  and  C_2
REMARK    2  A    between atoms: C_2  and  C_3
REMARK    3  A    between atoms: C_5  and  O_6
REMARK    4  A    between atoms: O_6  and  C_7
REMARK    5  A    between atoms: C_7  and  C_8
REMARK    6  A    between atoms: C_7  and  C_18
REMARK    7  A    between atoms: C_8  and  N_9
REMARK    8  A    between atoms: N_9  and  C_10
REMARK    9  A    between atoms: C_10  and  C_11
REMARK   10  A    between atoms: C_11  and  C_12
REMARK   11  A    between atoms: C_12  and  N_13
REMARK   12  A    between atoms: C_20  and  O_21
REMARK   13  A    between atoms: C_22  and  N_23
REMARK   14  A    between atoms: C_32  and  O_33
REMARK   15  A    between atoms: C_34  and  O_35
REMARK                            x       y       z     vdW  Elec       q    Type
REMARK                         _______ _______ _______ _____ _____    ______ ____
ROOT
ATOM      1  C   UNL     1       4.188   5.558  18.526  0.00  0.00    +0.000 C 
ENDROOT
BRANCH   1   2
ATOM      2  C   UNL     1       5.668   6.011  18.504  0.00  0.00    +0.000 C 
ATOM      3  C   UNL     1       5.927   7.157  17.527  0.00  0.00    +0.000 C 
ATOM      4  C   UNL     1       7.339   6.876  17.060  0.00  0.00    +0.000 C 
ATOM      5  C   UNL     1       7.334   5.336  16.963  0.00  0.00    +0.000 C 
ATOM      6  O   UNL     1       6.540   4.923  18.105  0.00  0.00    +0.000 OA
BRANCH   5   7
ATOM      7  N   UNL     1       6.760   4.788  15.720  0.00  0.00    +0.000 N 
ATOM      8  C   UNL     1       5.687   3.913  15.736  0.00  0.00    +0.000 A 
ATOM      9  C   UNL     1       5.149   3.413  14.624  0.00  0.00    +0.000 A 
ATOM     10  C   UNL     1       5.737   3.763  13.330  0.00  0.00    +0.000 A 
ATOM     11  O   UNL     1       5.281   3.322  12.284  0.00  0.00    +0.000 OA
ATOM     12  N   UNL     1       6.829   4.581  13.391  0.00  0.00    +0.000 N 
ATOM     13  C   UNL     1       7.397   5.100  14.522  0.00  0.00    +0.000 A 
ATOM     14  O   UNL     1       8.418   5.780  14.444  0.00  0.00    +0.000 OA
ATOM     15  H   UNL     1       7.277   4.806  12.516  0.00  0.00    +0.000 HD
ENDBRANCH   5   7
BRANCH   4  16
ATOM     16  O   UNL     1       8.261   7.351  18.052  0.00  0.00    +0.000 OA
ATOM     17  H   UNL     1       7.780   7.512  18.882  0.00  0.00    +0.000 HD
ENDBRANCH   4  16
ENDBRANCH   1   2
BRANCH   1  18
ATOM     18  O   UNL     1       3.984   4.134  18.453  0.00  0.00    +0.000 OA
BRANCH  18  21
ATOM     19  C   UNL     1       1.068   3.163  20.246  0.00  0.00    +0.000 C 
ATOM     20  O   UNL     1       2.017   4.150  19.784  0.00  0.00    +0.000 OA
ATOM     21  C   UNL     1       2.646   3.667  18.595  0.00  0.00    +0.000 C 
ATOM     22  C   UNL     1       2.598   2.139  18.709  0.00  0.00    +0.000 C 
ATOM     23  C   UNL     1       1.229   1.936  19.345  0.00  0.00    +0.000 C 
BRANCH  22  24
ATOM     24  O   UNL     1       2.693   1.494  17.437  0.00  0.00    +0.000 OA
ATOM     25  H   UNL     1       2.122   0.701  17.493  0.00  0.00    +0.000 HD
ENDBRANCH  22  24
BRANCH  23  26
ATOM     26  O   UNL     1       0.245   1.943  18.284  0.00  0.00    +0.000 OA
ATOM     27  H   UNL     1       0.616   1.499  17.500  0.00  0.00    +0.000 HD
ENDBRANCH  23  26
BRANCH  19  28
ATOM     28  C   UNL     1       1.277   2.933  21.752  0.00  0.00    +0.000 C 
BRANCH  28  29
ATOM     29  N   UNL     1       2.645   2.550  22.107  0.00  0.00    +0.000 NA
ATOM     30  H   UNL     1       2.702   1.530  22.118  0.00  0.00    +0.000 HD
ATOM     31  H   UNL     1       2.819   2.830  23.075  0.00  0.00    +0.000 HD
ENDBRANCH  28  29
ENDBRANCH  19  28
ENDBRANCH  18  21
ENDBRANCH   1  18
BRANCH   1  32
ATOM     32  C   UNL     1       3.303   6.347  17.523  0.00  0.00    +0.000 C 
BRANCH  32  33
ATOM     33  N   UNL     1       2.238   7.134  18.172  0.00  0.00    +0.000 NA
ATOM     34  H   UNL     1       2.168   6.801  19.136  0.00  0.00    +0.000 HD
BRANCH  33  35
ATOM     35  C   UNL     1       2.509   8.570  18.171  0.00  0.00    +0.000 C 
BRANCH  35  36
ATOM     36  C   UNL     1       1.206   9.323  17.950  0.00  0.00    +0.000 C 
BRANCH  36  37
ATOM     37  C   UNL     1       0.648   9.880  19.258  0.00  0.00    +0.000 C 
BRANCH  37  38
ATOM     38  N   UNL     1       1.150  11.212  19.528  0.00  0.00    +0.000 N 
ATOM     39  C   UNL     1       1.111  11.861  20.728  0.00  0.00    +0.000 A 
ATOM     40  C   UNL     1       1.682  13.089  20.483  0.00  0.00    +0.000 A 
ATOM     41  N   UNL     1       2.067  13.192  19.171  0.00  0.00    +0.000 NA
ATOM     42  C   UNL     1       1.734  12.046  18.620  0.00  0.00    +0.000 A 
ENDBRANCH  37  38
ENDBRANCH  36  37
ENDBRANCH  35  36
ENDBRANCH  33  35
ENDBRANCH  32  33
ENDBRANCH   1  32
TORSDOF 15
ENDMDL
MODEL 5
REMARK VINA RESULT:      -6.9      1.663      2.004
REMARK  Name = 
REMARK  15 active torsions:
REMARK  status: ('A' for Active; 'I' for Inactive)
REMARK    1  A    between atoms: N_1  and  C_2
REMARK    2  A    between atoms: C_2  and  C_3
REMARK    3  A    between atoms: C_5  and  O_6
REMARK    4  A    between atoms: O_6  and  C_7
REMARK    5  A    between atoms: C_7  and  C_8
REMARK    6  A    between atoms: C_7  and  C_18
REMARK    7  A    between atoms: C_8  and  N_9
REMARK    8  A    between atoms: N_9  and  C_10
REMARK    9  A    between atoms: C_10  and  C_11
REMARK   10  A    between atoms: C_11  and  C_12
REMARK   11  A    between atoms: C_12  and  N_13
REMARK   12  A    between atoms: C_20  and  O_21
REMARK   13  A    between atoms: C_22  and  N_23
REMARK   14  A    between atoms: C_32  and  O_33
REMARK   15  A    between atoms: C_34  and  O_35
REMARK                            x       y       z     vdW  Elec       q    Type
REMARK                         _______ _______ _______ _____ _____    ______ ____
ROOT
ATOM      1  C   UNL     1       3.860   5.920  18.077  0.00  0.00    +0.000 C 
ENDROOT
BRANCH   1   2
ATOM      2  C   UNL     1       5.301   5.756  18.616  0.00  0.00    +0.000 C 
ATOM      3  C   UNL     1       6.281   6.766  18.021  0.00  0.00    +0.000 C 
ATOM      4  C   UNL     1       7.575   5.983  17.980  0.00  0.00    +0.000 C 
ATOM      5  C   UNL     1       7.076   4.579  17.580  0.00  0.00    +0.000 C 
ATOM      6  O   UNL     1       5.827   4.441  18.305  0.00  0.00    +0.000 OA
BRANCH   5   7
ATOM      7  N   UNL     1       6.851   4.380  16.137  0.00  0.00    +0.000 N 
ATOM      8  C   UNL     1       7.416   5.216  15.189  0.00  0.00    +0.000 A 
ATOM      9  C   UNL     1       7.233   5.048  13.880  0.00  0.00    +0.000 A 
ATOM     10  C   UNL     1       6.364   3.964  13.417  0.00  0.00    +0.000 A 
ATOM     11  O   UNL     1       6.161   3.778  12.225  0.00  0.00    +0.000 OA
ATOM     12  N   UNL     1       5.792   3.217  14.406  0.00  0.00    +0.000 N 
ATOM     13  C   UNL     1       5.966   3.377  15.753  0.00  0.00    +0.000 A 
ATOM     14  O   UNL     1       5.344   2.669  16.544  0.00  0.00    +0.000 OA
ATOM     15  H   UNL     1       5.158   2.488  14.115  0.00  0.00    +0.000 HD
ENDBRANCH   5   7
BRANCH   4  16
ATOM     16  O   UNL     1       8.168   5.994  19.287  0.00  0.00    +0.000 OA
ATOM     17  H   UNL     1       7.465   5.925  19.956  0.00  0.00    +0.000 HD
ENDBRANCH   4  16
ENDBRANCH   1   2
BRANCH   1  18
ATOM     18  O   UNL     1       3.335   4.776  17.377  0.00  0.00    +0.000 OA
BRANCH  18  21
ATOM     19  C   UNL     1       1.296   3.691  20.084  0.00  0.00    +0.000 C 
ATOM     20  O   UNL     1       1.820   4.711  19.205  0.00  0.00    +0.000 OA
ATOM     21  C   UNL     1       2.237   4.101  17.982  0.00  0.00    +0.000 C 
ATOM     22  C   UNL     1       2.607   2.661  18.360  0.00  0.00    +0.000 C 
ATOM     23  C   UNL     1       1.535   2.345  19.395  0.00  0.00    +0.000 C 
BRANCH  22  24
ATOM     24  O   UNL     1       2.545   1.772  17.242  0.00  0.00    +0.000 OA
ATOM     25  H   UNL     1       2.761   2.313  16.455  0.00  0.00    +0.000 HD
ENDBRANCH  22  24
BRANCH  23  26
ATOM     26  O   UNL     1       0.351   1.913  18.684  0.00  0.00    +0.000 OA
ATOM     27  H   UNL     1       0.519   1.041  18.282  0.00  0.00    +0.000 HD
ENDBRANCH  23  26
BRANCH  19  28
ATOM     28  C   UNL     1       1.922   3.860  21.478  0.00  0.00    +0.000 C 
BRANCH  28  29
ATOM     29  N   UNL     1       2.579   2.653  21.982  0.00  0.00    +0.000 NA
ATOM     30  H   UNL     1       2.166   2.413  22.885  0.00  0.00    +0.000 HD
ATOM     31  H   UNL     1       3.553   2.879  22.194  0.00  0.00    +0.000 HD
ENDBRANCH  28  29
ENDBRANCH  19  28
ENDBRANCH  18  21
ENDBRANCH   1  18
BRANCH   1  32
ATOM     32  C   UNL     1       3.658   7.250  17.298  0.00  0.00    +0.000 C 
BRANCH  32  33
ATOM     33  N   UNL     1       3.050   8.320  18.110  0.00  0.00    +0.000 NA
ATOM     34  H   UNL     1       3.591   9.170  17.934  0.00  0.00    +0.000 HD
BRANCH  33  35
ATOM     35  C   UNL     1       1.647   8.559  17.779  0.00  0.00    +0.000 C 
BRANCH  35  36
ATOM     36  C   UNL     1       1.288   9.993  18.136  0.00  0.00    +0.000 C 
BRANCH  36  37
ATOM     37  C   UNL     1      -0.214  10.164  18.345  0.00  0.00    +0.000 C 
BRANCH  37  38
ATOM     38  N   UNL     1      -0.534  11.472  18.878  0.00  0.00    +0.000 N 
ATOM     39  C   UNL     1       0.100  12.644  18.577  0.00  0.00    +0.000 A 
ATOM     40  C   UNL     1      -0.541  13.596  19.335  0.00  0.00    +0.000 A 
ATOM     41  N   UNL     1      -1.544  13.030  20.079  0.00  0.00    +0.000 NA
ATOM     42  C   UNL     1      -1.517  11.750  19.782  0.00  0.00    +0.000 A 
ENDBRANCH  37  38
ENDBRANCH  36  37
ENDBRANCH  35  36
ENDBRANCH  33  35
ENDBRANCH  32  33
ENDBRANCH   1  32
TORSDOF 15
ENDMDL
MODEL 6
REMARK VINA RESULT:      -6.9      1.536      2.003
REMARK  Name = 
REMARK  15 active torsions:
REMARK  status: ('A' for Active; 'I' for Inactive)
REMARK    1  A    between atoms: N_1  and  C_2
REMARK    2  A    between atoms: C_2  and  C_3
REMARK    3  A    between atoms: C_5  and  O_6
REMARK    4  A    between atoms: O_6  and  C_7
REMARK    5  A    between atoms: C_7  and  C_8
REMARK    6  A    between atoms: C_7  and  C_18
REMARK    7  A    between atoms: C_8  and  N_9
REMARK    8  A    between atoms: N_9  and  C_10
REMARK    9  A    between atoms: C_10  and  C_11
REMARK   10  A    between atoms: C_11  and  C_12
REMARK   11  A    between atoms: C_12  and  N_13
REMARK   12  A    between atoms: C_20  and  O_21
REMARK   13  A    between atoms: C_22  and  N_23
REMARK   14  A    between atoms: C_32  and  O_33
REMARK   15  A    between atoms: C_34  and  O_35
REMARK                            x       y       z     vdW  Elec       q    Type
REMARK                         _______ _______ _______ _____ _____    ______ ____
ROOT
ATOM      1  C   UNL     1       3.750   5.933  18.181  0.00  0.00    +0.000 C 
ENDROOT
BRANCH   1   2
ATOM      2  C   UNL     1       5.271   5.984  18.467  0.00  0.00    +0.000 C 
ATOM      3  C   UNL     1       6.008   7.001  17.598  0.00  0.00    +0.000 C 
ATOM      4  C   UNL     1       7.362   6.353  17.410  0.00  0.00    +0.000 C 
ATOM      5  C   UNL     1       6.977   4.865  17.265  0.00  0.00    +0.000 C 
ATOM      6  O   UNL     1       5.892   4.698  18.213  0.00  0.00    +0.000 OA
BRANCH   5   7
ATOM      7  N   UNL     1       6.540   4.460  15.916  0.00  0.00    +0.000 N 
ATOM      8  C   UNL     1       5.570   3.490  15.725  0.00  0.00    +0.000 A 
ATOM      9  C   UNL     1       5.155   3.116  14.515  0.00  0.00    +0.000 A 
ATOM     10  C   UNL     1       5.776   3.717  13.333  0.00  0.00    +0.000 A 
ATOM     11  O   UNL     1       5.432   3.398  12.203  0.00  0.00    +0.000 OA
ATOM     12  N   UNL     1       6.766   4.620  13.594  0.00  0.00    +0.000 N 
ATOM     13  C   UNL     1       7.207   5.013  14.827  0.00  0.00    +0.000 A 
ATOM     14  O   UNL     1       8.151   5.796  14.925  0.00  0.00    +0.000 OA
ATOM     15  H   UNL     1       7.238   5.020  12.797  0.00  0.00    +0.000 HD
ENDBRANCH   5   7
BRANCH   4  16
ATOM     16  O   UNL     1       8.159   6.591  18.580  0.00  0.00    +0.000 OA
ATOM     17  H   UNL     1       7.607   7.012  19.261  0.00  0.00    +0.000 HD
ENDBRANCH   4  16
ENDBRANCH   1   2
BRANCH   1  18
ATOM     18  O   UNL     1       3.316   4.817  17.382  0.00  0.00    +0.000 OA
BRANCH  18  21
ATOM     19  C   UNL     1       1.075   3.579  19.852  0.00  0.00    +0.000 C 
ATOM     20  O   UNL     1       1.632   4.641  19.047  0.00  0.00    +0.000 OA
ATOM     21  C   UNL     1       2.198   4.077  17.862  0.00  0.00    +0.000 C 
ATOM     22  C   UNL     1       2.600   2.649  18.252  0.00  0.00    +0.000 C 
ATOM     23  C   UNL     1       1.447   2.260  19.169  0.00  0.00    +0.000 C 
BRANCH  22  24
ATOM     24  O   UNL     1       2.694   1.781  17.120  0.00  0.00    +0.000 OA
ATOM     25  H   UNL     1       2.101   2.161  16.440  0.00  0.00    +0.000 HD
ENDBRANCH  22  24
BRANCH  23  26
ATOM     26  O   UNL     1       0.362   1.787  18.336  0.00  0.00    +0.000 OA
ATOM     27  H   UNL     1       0.176   0.856  18.553  0.00  0.00    +0.000 HD
ENDBRANCH  23  26
BRANCH  19  28
ATOM     28  C   UNL     1       1.549   3.749  21.305  0.00  0.00    +0.000 C 
BRANCH  28  29
ATOM     29  N   UNL     1       2.519   4.831  21.487  0.00  0.00    +0.000 NA
ATOM     30  H   UNL     1       2.636   5.312  20.593  0.00  0.00    +0.000 HD
ATOM     31  H   UNL     1       3.433   4.418  21.680  0.00  0.00    +0.000 HD
ENDBRANCH  28  29
ENDBRANCH  19  28
ENDBRANCH  18  21
ENDBRANCH   1  18
BRANCH   1  32
ATOM     32  C   UNL     1       3.188   7.291  17.680  0.00  0.00    +0.000 C 
BRANCH  32  33
ATOM     33  N   UNL     1       2.182   7.880  18.583  0.00  0.00    +0.000 NA
ATOM     34  H   UNL     1       2.635   8.003  19.492  0.00  0.00    +0.000 HD
BRANCH  33  35
ATOM     35  C   UNL     1       1.678   9.169  18.112  0.00  0.00    +0.000 C 
BRANCH  35  36
ATOM     36  C   UNL     1       0.629   9.680  19.087  0.00  0.00    +0.000 C 
BRANCH  36  37
ATOM     37  C   UNL     1       0.048  11.018  18.641  0.00  0.00    +0.000 C 
BRANCH  37  38
ATOM     38  N   UNL     1      -1.356  10.906  18.302  0.00  0.00    +0.000 N 
ATOM     39  C   UNL     1      -1.898  10.058  17.378  0.00  0.00    +0.000 A 
ATOM     40  C   UNL     1      -3.247  10.330  17.400  0.00  0.00    +0.000 A 
ATOM     41  N   UNL     1      -3.529  11.313  18.314  0.00  0.00    +0.000 NA
ATOM     42  C   UNL     1      -2.371  11.639  18.842  0.00  0.00    +0.000 A 
ENDBRANCH  37  38
ENDBRANCH  36  37
ENDBRANCH  35  36
ENDBRANCH  33  35
ENDBRANCH  32  33
ENDBRANCH   1  32
TORSDOF 15
ENDMDL
MODEL 7
REMARK VINA RESULT:      -6.9      3.117      7.641
REMARK  Name = 
REMARK  15 active torsions:
REMARK  status: ('A' for Active; 'I' for Inactive)
REMARK    1  A    between atoms: N_1  and  C_2
REMARK    2  A    between atoms: C_2  and  C_3
REMARK    3  A    between atoms: C_5  and  O_6
REMARK    4  A    between atoms: O_6  and  C_7
REMARK    5  A    between atoms: C_7  and  C_8
REMARK    6  A    between atoms: C_7  and  C_18
REMARK    7  A    between atoms: C_8  and  N_9
REMARK    8  A    between atoms: N_9  and  C_10
REMARK    9  A    between atoms: C_10  and  C_11
REMARK   10  A    between atoms: C_11  and  C_12
REMARK   11  A    between atoms: C_12  and  N_13
REMARK   12  A    between atoms: C_20  and  O_21
REMARK   13  A    between atoms: C_22  and  N_23
REMARK   14  A    between atoms: C_32  and  O_33
REMARK   15  A    between atoms: C_34  and  O_35
REMARK                            x       y       z     vdW  Elec       q    Type
REMARK                         _______ _______ _______ _____ _____    ______ ____
ROOT
ATOM      1  C   UNL     1       1.590   7.507  19.934  0.00  0.00    +0.000 C 
ENDROOT
BRANCH   1   2
ATOM      2  C   UNL     1       1.347   8.472  21.119  0.00  0.00    +0.000 C 
ATOM      3  C   UNL     1      -0.040   8.318  21.740  0.00  0.00    +0.000 C 
ATOM      4  C   UNL     1      -0.356   9.727  22.191  0.00  0.00    +0.000 C 
ATOM      5  C   UNL     1       0.240  10.563  21.039  0.00  0.00    +0.000 C 
ATOM      6  O   UNL     1       1.459   9.854  20.696  0.00  0.00    +0.000 OA
BRANCH   5   7
ATOM      7  N   UNL     1      -0.622  10.697  19.850  0.00  0.00    +0.000 N 
ATOM      8  C   UNL     1      -0.312  10.079  18.651  0.00  0.00    +0.000 A 
ATOM      9  C   UNL     1      -1.082  10.181  17.568  0.00  0.00    +0.000 A 
ATOM     10  C   UNL     1      -2.285  11.014  17.627  0.00  0.00    +0.000 A 
ATOM     11  O   UNL     1      -3.017  11.142  16.655  0.00  0.00    +0.000 OA
ATOM     12  N   UNL     1      -2.497  11.642  18.820  0.00  0.00    +0.000 N 
ATOM     13  C   UNL     1      -1.717  11.553  19.939  0.00  0.00    +0.000 A 
ATOM     14  O   UNL     1      -1.989  12.218  20.937  0.00  0.00    +0.000 OA
ATOM     15  H   UNL     1      -3.298  12.253  18.875  0.00  0.00    +0.000 HD
ENDBRANCH   5   7
BRANCH   4  16
ATOM     16  O   UNL     1       0.309   9.977  23.439  0.00  0.00    +0.000 OA
ATOM     17  H   UNL     1      -0.297  10.454  24.032  0.00  0.00    +0.000 HD
ENDBRANCH   4  16
ENDBRANCH   1   2
BRANCH   1  18
ATOM     18  O   UNL     1       2.319   6.309  20.260  0.00  0.00    +0.000 OA
BRANCH  18  21
ATOM     19  C   UNL     1       1.724   2.895  21.067  0.00  0.00    +0.000 C 
ATOM     20  O   UNL     1       1.861   4.288  21.422  0.00  0.00    +0.000 OA
ATOM     21  C   UNL     1       1.583   5.090  20.271  0.00  0.00    +0.000 C 
ATOM     22  C   UNL     1       1.948   4.207  19.072  0.00  0.00    +0.000 C 
ATOM     23  C   UNL     1       1.475   2.843  19.557  0.00  0.00    +0.000 C 
BRANCH  22  24
ATOM     24  O   UNL     1       1.275   4.608  17.876  0.00  0.00    +0.000 OA
ATOM     25  H   UNL     1       0.322   4.634  18.099  0.00  0.00    +0.000 HD
ENDBRANCH  22  24
BRANCH  23  26
ATOM     26  O   UNL     1       0.059   2.741  19.273  0.00  0.00    +0.000 OA
ATOM     27  H   UNL     1      -0.102   1.946  18.733  0.00  0.00    +0.000 HD
ENDBRANCH  23  26
BRANCH  19  28
ATOM     28  C   UNL     1       2.952   2.124  21.579  0.00  0.00    +0.000 C 
BRANCH  28  29
ATOM     29  N   UNL     1       4.118   2.218  20.699  0.00  0.00    +0.000 NA
ATOM     30  H   UNL     1       4.250   1.314  20.241  0.00  0.00    +0.000 HD
ATOM     31  H   UNL     1       4.952   2.339  21.278  0.00  0.00    +0.000 HD
ENDBRANCH  28  29
ENDBRANCH  19  28
ENDBRANCH  18  21
ENDBRANCH   1  18
BRANCH   1  32
ATOM     32  C   UNL     1       2.146   8.229  18.676  0.00  0.00    +0.000 C 
BRANCH  32  33
ATOM     33  N   UNL     1       2.838   7.326  17.737  0.00  0.00    +0.000 NA
ATOM     34  H   UNL     1       2.151   7.050  17.031  0.00  0.00    +0.000 HD
BRANCH  33  35
ATOM     35  C   UNL     1       3.984   7.954  17.082  0.00  0.00    +0.000 C 
BRANCH  35  36
ATOM     36  C   UNL     1       4.760   6.895  16.315  0.00  0.00    +0.000 C 
BRANCH  36  37
ATOM     37  C   UNL     1       4.850   5.586  17.095  0.00  0.00    +0.000 C 
BRANCH  37  38
ATOM     38  N   UNL     1       5.943   5.603  18.044  0.00  0.00    +0.000 N 
ATOM     39  C   UNL     1       7.215   6.042  17.805  0.00  0.00    +0.000 A 
ATOM     40  C   UNL     1       7.885   5.844  18.990  0.00  0.00    +0.000 A 
ATOM     41  N   UNL     1       7.051   5.303  19.935  0.00  0.00    +0.000 NA
ATOM     42  C   UNL     1       5.888   5.170  19.337  0.00  0.00    +0.000 A 
ENDBRANCH  37  38
ENDBRANCH  36  37
ENDBRANCH  35  36
ENDBRANCH  33  35
ENDBRANCH  32  33
ENDBRANCH   1  32
TORSDOF 15
ENDMDL
MODEL 8
REMARK VINA RESULT:      -6.9      3.293      7.706
REMARK  Name = 
REMARK  15 active torsions:
REMARK  status: ('A' for Active; 'I' for Inactive)
REMARK    1  A    between atoms: N_1  and  C_2
REMARK    2  A    between atoms: C_2  and  C_3
REMARK    3  A    between atoms: C_5  and  O_6
REMARK    4  A    between atoms: O_6  and  C_7
REMARK    5  A    between atoms: C_7  and  C_8
REMARK    6  A    between atoms: C_7  and  C_18
REMARK    7  A    between atoms: C_8  and  N_9
REMARK    8  A    between atoms: N_9  and  C_10
REMARK    9  A    between atoms: C_10  and  C_11
REMARK   10  A    between atoms: C_11  and  C_12
REMARK   11  A    between atoms: C_12  and  N_13
REMARK   12  A    between atoms: C_20  and  O_21
REMARK   13  A    between atoms: C_22  and  N_23
REMARK   14  A    between atoms: C_32  and  O_33
REMARK   15  A    between atoms: C_34  and  O_35
REMARK                            x       y       z     vdW  Elec       q    Type
REMARK                         _______ _______ _______ _____ _____    ______ ____
ROOT
ATOM      1  C   UNL     1       4.594   5.182  17.601  0.00  0.00    +0.000 C 
ENDROOT
BRANCH   1   2
ATOM      2  C   UNL     1       3.691   4.648  18.739  0.00  0.00    +0.000 C 
ATOM      3  C   UNL     1       2.232   4.480  18.315  0.00  0.00    +0.000 C 
ATOM      4  C   UNL     1       1.482   4.783  19.594  0.00  0.00    +0.000 C 
ATOM      5  C   UNL     1       2.324   5.934  20.183  0.00  0.00    +0.000 C 
ATOM      6  O   UNL     1       3.689   5.555  19.871  0.00  0.00    +0.000 OA
BRANCH   5   7
ATOM      7  N   UNL     1       2.030   7.271  19.636  0.00  0.00    +0.000 N 
ATOM      8  C   UNL     1       2.421   7.638  18.359  0.00  0.00    +0.000 A 
ATOM      9  C   UNL     1       2.156   8.838  17.843  0.00  0.00    +0.000 A 
ATOM     10  C   UNL     1       1.463   9.830  18.667  0.00  0.00    +0.000 A 
ATOM     11  O   UNL     1       1.207  10.946  18.236  0.00  0.00    +0.000 OA
ATOM     12  N   UNL     1       1.161   9.422  19.934  0.00  0.00    +0.000 N 
ATOM     13  C   UNL     1       1.428   8.198  20.482  0.00  0.00    +0.000 A 
ATOM     14  O   UNL     1       1.154   7.976  21.660  0.00  0.00    +0.000 OA
ATOM     15  H   UNL     1       0.719  10.100  20.536  0.00  0.00    +0.000 HD
ENDBRANCH   5   7
BRANCH   4  16
ATOM     16  O   UNL     1       1.500   3.617  20.432  0.00  0.00    +0.000 OA
ATOM     17  H   UNL     1       1.344   3.886  21.353  0.00  0.00    +0.000 HD
ENDBRANCH   4  16
ENDBRANCH   1   2
BRANCH   1  18
ATOM     18  O   UNL     1       4.833   4.255  16.525  0.00  0.00    +0.000 OA
BRANCH  18  21
ATOM     19  C   UNL     1       5.920   4.337  13.138  0.00  0.00    +0.000 C 
ATOM     20  O   UNL     1       4.928   4.538  14.169  0.00  0.00    +0.000 OA
ATOM     21  C   UNL     1       5.592   4.735  15.419  0.00  0.00    +0.000 C 
ATOM     22  C   UNL     1       6.922   3.984  15.288  0.00  0.00    +0.000 C 
ATOM     23  C   UNL     1       7.281   4.275  13.836  0.00  0.00    +0.000 C 
BRANCH  22  24
ATOM     24  O   UNL     1       7.917   4.476  16.190  0.00  0.00    +0.000 OA
ATOM     25  H   UNL     1       8.695   4.696  15.638  0.00  0.00    +0.000 HD
ENDBRANCH  22  24
BRANCH  23  26
ATOM     26  O   UNL     1       7.940   5.563  13.795  0.00  0.00    +0.000 OA
ATOM     27  H   UNL     1       7.500   6.166  14.421  0.00  0.00    +0.000 HD
ENDBRANCH  23  26
BRANCH  19  28
ATOM     28  C   UNL     1       5.530   3.108  12.300  0.00  0.00    +0.000 C 
BRANCH  28  29
ATOM     29  N   UNL     1       4.305   3.290  11.519  0.00  0.00    +0.000 NA
ATOM     30  H   UNL     1       4.561   3.384  10.534  0.00  0.00    +0.000 HD
ATOM     31  H   UNL     1       3.894   4.193  11.767  0.00  0.00    +0.000 HD
ENDBRANCH  28  29
ENDBRANCH  19  28
ENDBRANCH  18  21
ENDBRANCH   1  18
BRANCH   1  32
ATOM     32  C   UNL     1       5.897   5.843  18.129  0.00  0.00    +0.000 C 
BRANCH  32  33
ATOM     33  N   UNL     1       6.108   7.212  17.623  0.00  0.00    +0.000 NA
ATOM     34  H   UNL     1       5.875   7.851  18.387  0.00  0.00    +0.000 HD
BRANCH  33  35
ATOM     35  C   UNL     1       7.483   7.454  17.189  0.00  0.00    +0.000 C 
BRANCH  35  36
ATOM     36  C   UNL     1       8.192   8.304  18.231  0.00  0.00    +0.000 C 
BRANCH  36  37
ATOM     37  C   UNL     1       8.141   9.788  17.877  0.00  0.00    +0.000 C 
BRANCH  37  38
ATOM     38  N   UNL     1       9.198  10.530  18.533  0.00  0.00    +0.000 N 
ATOM     39  C   UNL     1      10.206  11.217  17.917  0.00  0.00    +0.000 A 
ATOM     40  C   UNL     1      10.960  11.733  18.946  0.00  0.00    +0.000 A 
ATOM     41  N   UNL     1      10.430  11.380  20.161  0.00  0.00    +0.000 NA
ATOM     42  C   UNL     1       9.369  10.657  19.881  0.00  0.00    +0.000 A 
ENDBRANCH  37  38
ENDBRANCH  36  37
ENDBRANCH  35  36
ENDBRANCH  33  35
ENDBRANCH  32  33
ENDBRANCH   1  32
TORSDOF 15
ENDMDL
MODEL 9
REMARK VINA RESULT:      -6.8      1.038      1.392
REMARK  Name = 
REMARK  15 active torsions:
REMARK  status: ('A' for Active; 'I' for Inactive)
REMARK    1  A    between atoms: N_1  and  C_2
REMARK    2  A    between atoms: C_2  and  C_3
REMARK    3  A    between atoms: C_5  and  O_6
REMARK    4  A    between atoms: O_6  and  C_7
REMARK    5  A    between atoms: C_7  and  C_8
REMARK    6  A    between atoms: C_7  and  C_18
REMARK    7  A    between atoms: C_8  and  N_9
REMARK    8  A    between atoms: N_9  and  C_10
REMARK    9  A    between atoms: C_10  and  C_11
REMARK   10  A    between atoms: C_11  and  C_12
REMARK   11  A    between atoms: C_12  and  N_13
REMARK   12  A    between atoms: C_20  and  O_21
REMARK   13  A    between atoms: C_22  and  N_23
REMARK   14  A    between atoms: C_32  and  O_33
REMARK   15  A    between atoms: C_34  and  O_35
REMARK                            x       y       z     vdW  Elec       q    Type
REMARK                         _______ _______ _______ _____ _____    ______ ____
ROOT
ATOM      1  C   UNL     1       4.140   5.568  18.585  0.00  0.00    +0.000 C 
ENDROOT
BRANCH   1   2
ATOM      2  C   UNL     1       5.619   6.025  18.562  0.00  0.00    +0.000 C 
ATOM      3  C   UNL     1       5.876   7.166  17.579  0.00  0.00    +0.000 C 
ATOM      4  C   UNL     1       7.289   6.887  17.114  0.00  0.00    +0.000 C 
ATOM      5  C   UNL     1       7.288   5.346  17.026  0.00  0.00    +0.000 C 
ATOM      6  O   UNL     1       6.494   4.938  18.170  0.00  0.00    +0.000 OA
BRANCH   5   7
ATOM      7  N   UNL     1       6.717   4.789  15.786  0.00  0.00    +0.000 N 
ATOM      8  C   UNL     1       5.648   3.910  15.806  0.00  0.00    +0.000 A 
ATOM      9  C   UNL     1       5.112   3.403  14.696  0.00  0.00    +0.000 A 
ATOM     10  C   UNL     1       5.699   3.749  13.400  0.00  0.00    +0.000 A 
ATOM     11  O   UNL     1       5.245   3.301  12.356  0.00  0.00    +0.000 OA
ATOM     12  N   UNL     1       6.787   4.571  13.458  0.00  0.00    +0.000 N 
ATOM     13  C   UNL     1       7.353   5.098  14.586  0.00  0.00    +0.000 A 
ATOM     14  O   UNL     1       8.372   5.782  14.505  0.00  0.00    +0.000 OA
ATOM     15  H   UNL     1       7.235   4.794  12.582  0.00  0.00    +0.000 HD
ENDBRANCH   5   7
BRANCH   4  16
ATOM     16  O   UNL     1       8.209   7.370  18.105  0.00  0.00    +0.000 OA
ATOM     17  H   UNL     1       7.824   7.236  18.988  0.00  0.00    +0.000 HD
ENDBRANCH   4  16
ENDBRANCH   1   2
BRANCH   1  18
ATOM     18  O   UNL     1       3.939   4.147  18.474  0.00  0.00    +0.000 OA
BRANCH  18  21
ATOM     19  C   UNL     1       1.068   3.089  20.291  0.00  0.00    +0.000 C 
ATOM     20  O   UNL     1       2.005   4.097  19.852  0.00  0.00    +0.000 OA
ATOM     21  C   UNL     1       2.604   3.672  18.627  0.00  0.00    +0.000 C 
ATOM     22  C   UNL     1       2.560   2.139  18.671  0.00  0.00    +0.000 C 
ATOM     23  C   UNL     1       1.207   1.905  19.331  0.00  0.00    +0.000 C 
BRANCH  22  24
ATOM     24  O   UNL     1       2.623   1.555  17.368  0.00  0.00    +0.000 OA
ATOM     25  H   UNL     1       3.470   1.856  16.979  0.00  0.00    +0.000 HD
ENDBRANCH  22  24
BRANCH  23  26
ATOM     26  O   UNL     1       0.197   1.961  18.295  0.00  0.00    +0.000 OA
ATOM     27  H   UNL     1       0.021   1.059  17.971  0.00  0.00    +0.000 HD
ENDBRANCH  23  26
BRANCH  19  28
ATOM     28  C   UNL     1       1.314   2.789  21.779  0.00  0.00    +0.000 C 
BRANCH  28  29
ATOM     29  N   UNL     1       2.702   2.439  22.089  0.00  0.00    +0.000 NA
ATOM     30  H   UNL     1       2.786   2.321  23.101  0.00  0.00    +0.000 HD
ATOM     31  H   UNL     1       3.295   3.242  21.871  0.00  0.00    +0.000 HD
ENDBRANCH  28  29
ENDBRANCH  19  28
ENDBRANCH  18  21
ENDBRANCH   1  18
BRANCH   1  32
ATOM     32  C   UNL     1       3.244   6.384  17.613  0.00  0.00    +0.000 C 
BRANCH  32  33
ATOM     33  N   UNL     1       2.552   7.514  18.260  0.00  0.00    +0.000 NA
ATOM     34  H   UNL     1       1.659   7.631  17.776  0.00  0.00    +0.000 HD
BRANCH  33  35
ATOM     35  C   UNL     1       2.309   7.294  19.684  0.00  0.00    +0.000 C 
BRANCH  35  36
ATOM     36  C   UNL     1       1.500   8.457  20.237  0.00  0.00    +0.000 C 
BRANCH  36  37
ATOM     37  C   UNL     1       1.120   9.450  19.142  0.00  0.00    +0.000 C 
BRANCH  37  38
ATOM     38  N   UNL     1       0.063  10.341  19.573  0.00  0.00    +0.000 N 
ATOM     39  C   UNL     1      -0.844  10.968  18.767  0.00  0.00    +0.000 A 
ATOM     40  C   UNL     1      -1.623  11.712  19.623  0.00  0.00    +0.000 A 
ATOM     41  N   UNL     1      -1.212  11.545  20.921  0.00  0.00    +0.000 NA
ATOM     42  C   UNL     1      -0.196  10.713  20.860  0.00  0.00    +0.000 A 
ENDBRANCH  37  38
ENDBRANCH  36  37
ENDBRANCH  35  36
ENDBRANCH  33  35
ENDBRANCH  32  33
ENDBRANCH   1  32
TORSDOF 15
ENDMDL
