MODEL 1
REMARK VINA RESULT:      -7.5      0.000      0.000
REMARK  Name = 
REMARK  8 active torsions:
REMARK  status: ('A' for Active; 'I' for Inactive)
REMARK    1  A    between atoms: C_1  and  N_2
REMARK    2  A    between atoms: C_4  and  S_5
REMARK    3  A    between atoms: S_5  and  N_8
REMARK    4  A    between atoms: C_11  and  C_12
REMARK    5  A    between atoms: C_12  and  C_13
REMARK    6  A    between atoms: C_13  and  C_14
REMARK    7  A    between atoms: N_16  and  C_17
REMARK    8  A    between atoms: C_17  and  C_18
REMARK                            x       y       z     vdW  Elec       q    Type
REMARK                         _______ _______ _______ _____ _____    ______ ____
ROOT
ATOM      1  N   UNL     1       4.705   5.000  17.945  0.00  0.00    +0.000 NA
ATOM      2  C   UNL     1       4.802   5.791  16.695  0.00  0.00    +0.000 C 
ATOM      3  C   UNL     1       6.186   5.640  16.068  0.00  0.00    +0.000 C 
ATOM      4  C   UNL     1       7.310   6.025  17.047  0.00  0.00    +0.000 C 
ATOM      5  C   UNL     1       7.172   5.130  18.284  0.00  0.00    +0.000 C 
ATOM      6  C   UNL     1       5.791   5.231  18.934  0.00  0.00    +0.000 C 
ENDROOT
BRANCH   1   7
ATOM      7  S   UNL     1       3.129   4.908  18.608  0.00  0.00    +0.000 S 
ATOM      8  O   UNL     1       3.222   4.336  19.934  0.00  0.00    +0.000 OA
ATOM      9  O   UNL     1       2.236   4.367  17.606  0.00  0.00    +0.000 OA
BRANCH   7  13
ATOM     10  C   UNL     1       1.658   9.912  18.209  0.00  0.00    +0.000 C 
ATOM     11  N   UNL     1       1.915   8.581  18.704  0.00  0.00    +0.000 N 
ATOM     12  C   UNL     1       2.379   7.523  17.979  0.00  0.00    +0.000 A 
ATOM     13  C   UNL     1       2.541   6.497  18.883  0.00  0.00    +0.000 A 
ATOM     14  C   UNL     1       2.119   7.020  20.113  0.00  0.00    +0.000 A 
ATOM     15  N   UNL     1       1.744   8.301  20.013  0.00  0.00    +0.000 NA
ENDBRANCH   7  13
ENDBRANCH   1   7
BRANCH   4  16
ATOM     16  C   UNL     1       7.292   7.524  17.409  0.00  0.00    +0.000 C 
BRANCH  16  17
ATOM     17  C   UNL     1       8.356   7.919  18.438  0.00  0.00    +0.000 C 
BRANCH  17  18
ATOM     18  C   UNL     1       8.548   9.422  18.467  0.00  0.00    +0.000 C 
ATOM     19  O   UNL     1       8.041  10.174  17.657  0.00  0.00    +0.000 OA
ATOM     20  N   UNL     1       9.316   9.833  19.537  0.00  0.00    +0.000 N 
ATOM     21  H   UNL     1       9.959   9.164  19.934  0.00  0.00    +0.000 HD
BRANCH  20  22
ATOM     22  C   UNL     1       9.599  11.241  19.753  0.00  0.00    +0.000 C 
BRANCH  22  23
ATOM     23  C   UNL     1      11.060  11.646  19.491  0.00  0.00    +0.000 C 
ATOM     24  C   UNL     1      11.451  11.678  18.018  0.00  0.00    +0.000 C 
ATOM     25  C   UNL     1      11.342  13.135  17.645  0.00  0.00    +0.000 C 
ATOM     26  C   UNL     1      11.654  13.842  18.944  0.00  0.00    +0.000 C 
ATOM     27  O   UNL     1      11.261  12.974  20.009  0.00  0.00    +0.000 OA
ENDBRANCH  22  23
ENDBRANCH  20  22
ENDBRANCH  17  18
ENDBRANCH  16  17
ENDBRANCH   4  16
TORSDOF 7
ENDMDL
MODEL 2
REMARK VINA RESULT:      -7.4      1.528      1.749
REMARK  Name = 
REMARK  8 active torsions:
REMARK  status: ('A' for Active; 'I' for Inactive)
REMARK    1  A    between atoms: C_1  and  N_2
REMARK    2  A    between atoms: C_4  and  S_5
REMARK    3  A    between atoms: S_5  and  N_8
REMARK    4  A    between atoms: C_11  and  C_12
REMARK    5  A    between atoms: C_12  and  C_13
REMARK    6  A    between atoms: C_13  and  C_14
REMARK    7  A    between atoms: N_16  and  C_17
REMARK    8  A    between atoms: C_17  and  C_18
REMARK                            x       y       z     vdW  Elec       q    Type
REMARK                         _______ _______ _______ _____ _____    ______ ____
ROOT
ATOM      1  N   UNL     1       5.121   4.121  17.625  0.00  0.00    +0.000 NA
ATOM      2  C   UNL     1       4.462   5.293  16.999  0.00  0.00    +0.000 C 
ATOM      3  C   UNL     1       5.335   5.872  15.890  0.00  0.00    +0.000 C 
ATOM      4  C   UNL     1       6.742   6.243  16.394  0.00  0.00    +0.000 C 
ATOM      5  C   UNL     1       7.373   4.973  16.976  0.00  0.00    +0.000 C 
ATOM      6  C   UNL     1       6.521   4.342  18.078  0.00  0.00    +0.000 C 
ENDROOT
BRANCH   1   7
ATOM      7  S   UNL     1       4.135   3.251  18.721  0.00  0.00    +0.000 S 
ATOM      8  O   UNL     1       4.955   2.818  19.831  0.00  0.00    +0.000 OA
ATOM      9  O   UNL     1       3.315   2.324  17.970  0.00  0.00    +0.000 OA
BRANCH   7  13
ATOM     10  C   UNL     1       1.673   7.362  20.820  0.00  0.00    +0.000 C 
ATOM     11  N   UNL     1       1.980   6.052  20.297  0.00  0.00    +0.000 N 
ATOM     12  C   UNL     1       3.141   5.674  19.692  0.00  0.00    +0.000 A 
ATOM     13  C   UNL     1       3.005   4.327  19.437  0.00  0.00    +0.000 A 
ATOM     14  C   UNL     1       1.721   3.995  19.892  0.00  0.00    +0.000 A 
ATOM     15  N   UNL     1       1.091   5.046  20.430  0.00  0.00    +0.000 NA
ENDBRANCH   7  13
ENDBRANCH   1   7
BRANCH   4  16
ATOM     16  C   UNL     1       6.720   7.400  17.412  0.00  0.00    +0.000 C 
BRANCH  16  17
ATOM     17  C   UNL     1       8.080   7.670  18.064  0.00  0.00    +0.000 C 
BRANCH  17  18
ATOM     18  C   UNL     1       8.311   9.158  18.237  0.00  0.00    +0.000 C 
ATOM     19  O   UNL     1       7.785   9.999  17.534  0.00  0.00    +0.000 OA
ATOM     20  N   UNL     1       9.140   9.440  19.303  0.00  0.00    +0.000 N 
ATOM     21  H   UNL     1       9.784   8.721  19.597  0.00  0.00    +0.000 HD
BRANCH  20  22
ATOM     22  C   UNL     1       9.468  10.813  19.648  0.00  0.00    +0.000 C 
BRANCH  22  23
ATOM     23  C   UNL     1      10.852  11.278  19.163  0.00  0.00    +0.000 C 
ATOM     24  C   UNL     1      10.877  11.795  17.730  0.00  0.00    +0.000 C 
ATOM     25  C   UNL     1      10.807  13.293  17.882  0.00  0.00    +0.000 C 
ATOM     26  C   UNL     1      11.483  13.531  19.213  0.00  0.00    +0.000 C 
ATOM     27  O   UNL     1      11.286  12.361  20.008  0.00  0.00    +0.000 OA
ENDBRANCH  22  23
ENDBRANCH  20  22
ENDBRANCH  17  18
ENDBRANCH  16  17
ENDBRANCH   4  16
TORSDOF 7
ENDMDL
MODEL 3
REMARK VINA RESULT:      -7.1      1.311      1.489
REMARK  Name = 
REMARK  8 active torsions:
REMARK  status: ('A' for Active; 'I' for Inactive)
REMARK    1  A    between atoms: C_1  and  N_2
REMARK    2  A    between atoms: C_4  and  S_5
REMARK    3  A    between atoms: S_5  and  N_8
REMARK    4  A    between atoms: C_11  and  C_12
REMARK    5  A    between atoms: C_12  and  C_13
REMARK    6  A    between atoms: C_13  and  C_14
REMARK    7  A    between atoms: N_16  and  C_17
REMARK    8  A    between atoms: C_17  and  C_18
REMARK                            x       y       z     vdW  Elec       q    Type
REMARK                         _______ _______ _______ _____ _____    ______ ____
ROOT
ATOM      1  N   UNL     1       4.991   4.088  17.424  0.00  0.00    +0.000 NA
ATOM      2  C   UNL     1       4.929   5.078  16.321  0.00  0.00    +0.000 C 
ATOM      3  C   UNL     1       6.318   5.316  15.734  0.00  0.00    +0.000 C 
ATOM      4  C   UNL     1       7.333   5.754  16.805  0.00  0.00    +0.000 C 
ATOM      5  C   UNL     1       7.376   4.658  17.876  0.00  0.00    +0.000 C 
ATOM      6  C   UNL     1       6.001   4.368  18.479  0.00  0.00    +0.000 C 
ENDROOT
BRANCH   1   7
ATOM      7  S   UNL     1       3.465   3.570  18.001  0.00  0.00    +0.000 S 
ATOM      8  O   UNL     1       3.668   2.451  18.894  0.00  0.00    +0.000 OA
ATOM      9  O   UNL     1       2.547   3.497  16.884  0.00  0.00    +0.000 OA
BRANCH   7  13
ATOM     10  C   UNL     1       1.780   8.056  20.100  0.00  0.00    +0.000 C 
ATOM     11  N   UNL     1       2.087   6.664  19.873  0.00  0.00    +0.000 N 
ATOM     12  C   UNL     1       2.610   6.125  18.735  0.00  0.00    +0.000 A 
ATOM     13  C   UNL     1       2.802   4.790  19.011  0.00  0.00    +0.000 A 
ATOM     14  C   UNL     1       2.336   4.614  20.321  0.00  0.00    +0.000 A 
ATOM     15  N   UNL     1       1.906   5.762  20.860  0.00  0.00    +0.000 NA
ENDBRANCH   7  13
ENDBRANCH   1   7
BRANCH   4  16
ATOM     16  C   UNL     1       7.004   7.137  17.402  0.00  0.00    +0.000 C 
BRANCH  16  17
ATOM     17  C   UNL     1       8.165   7.759  18.184  0.00  0.00    +0.000 C 
BRANCH  17  18
ATOM     18  C   UNL     1       8.179   9.266  18.023  0.00  0.00    +0.000 C 
ATOM     19  O   UNL     1       7.384   9.869  17.328  0.00  0.00    +0.000 OA
ATOM     20  N   UNL     1       9.157   9.867  18.788  0.00  0.00    +0.000 N 
ATOM     21  H   UNL     1       9.960   9.309  19.043  0.00  0.00    +0.000 HD
BRANCH  20  22
ATOM     22  C   UNL     1       9.320  11.311  18.789  0.00  0.00    +0.000 C 
BRANCH  22  23
ATOM     23  C   UNL     1      10.107  11.863  19.991  0.00  0.00    +0.000 C 
ATOM     24  C   UNL     1      11.608  11.611  19.930  0.00  0.00    +0.000 C 
ATOM     25  C   UNL     1      12.173  12.906  19.404  0.00  0.00    +0.000 C 
ATOM     26  C   UNL     1      11.189  13.936  19.909  0.00  0.00    +0.000 C 
ATOM     27  O   UNL     1       9.921  13.290  20.034  0.00  0.00    +0.000 OA
ENDBRANCH  22  23
ENDBRANCH  20  22
ENDBRANCH  17  18
ENDBRANCH  16  17
ENDBRANCH   4  16
TORSDOF 7
ENDMDL
MODEL 4
REMARK VINA RESULT:      -7.0      5.237      8.105
REMARK  Name = 
REMARK  8 active torsions:
REMARK  status: ('A' for Active; 'I' for Inactive)
REMARK    1  A    between atoms: C_1  and  N_2
REMARK    2  A    between atoms: C_4  and  S_5
REMARK    3  A    between atoms: S_5  and  N_8
REMARK    4  A    between atoms: C_11  and  C_12
REMARK    5  A    between atoms: C_12  and  C_13
REMARK    6  A    between atoms: C_13  and  C_14
REMARK    7  A    between atoms: N_16  and  C_17
REMARK    8  A    between atoms: C_17  and  C_18
REMARK                            x       y       z     vdW  Elec       q    Type
REMARK                         _______ _______ _______ _____ _____    ______ ____
ROOT
ATOM      1  N   UNL     1       5.413   4.625  17.169  0.00  0.00    +0.000 NA
ATOM      2  C   UNL     1       5.301   5.127  18.560  0.00  0.00    +0.000 C 
ATOM      3  C   UNL     1       4.758   4.038  19.482  0.00  0.00    +0.000 C 
ATOM      4  C   UNL     1       3.409   3.482  18.991  0.00  0.00    +0.000 C 
ATOM      5  C   UNL     1       3.622   2.938  17.574  0.00  0.00    +0.000 C 
ATOM      6  C   UNL     1       4.187   3.989  16.617  0.00  0.00    +0.000 C 
ENDROOT
BRANCH   1   7
ATOM      7  S   UNL     1       6.227   5.681  16.096  0.00  0.00    +0.000 S 
ATOM      8  O   UNL     1       7.586   5.850  16.562  0.00  0.00    +0.000 OA
ATOM      9  O   UNL     1       5.369   6.814  15.821  0.00  0.00    +0.000 OA
BRANCH   7  13
ATOM     10  C   UNL     1       5.742   2.661  11.852  0.00  0.00    +0.000 C 
ATOM     11  N   UNL     1       6.186   3.656  12.799  0.00  0.00    +0.000 N 
ATOM     12  C   UNL     1       5.588   3.971  13.982  0.00  0.00    +0.000 A 
ATOM     13  C   UNL     1       6.405   4.910  14.573  0.00  0.00    +0.000 A 
ATOM     14  C   UNL     1       7.446   5.118  13.658  0.00  0.00    +0.000 A 
ATOM     15  N   UNL     1       7.324   4.345  12.572  0.00  0.00    +0.000 NA
ENDBRANCH   7  13
ENDBRANCH   1   7
BRANCH   4  16
ATOM     16  C   UNL     1       2.281   4.532  19.047  0.00  0.00    +0.000 C 
BRANCH  16  17
ATOM     17  C   UNL     1       2.167   5.239  20.402  0.00  0.00    +0.000 C 
BRANCH  17  18
ATOM     18  C   UNL     1       2.004   6.734  20.219  0.00  0.00    +0.000 C 
ATOM     19  O   UNL     1       2.162   7.296  19.153  0.00  0.00    +0.000 OA
ATOM     20  N   UNL     1       1.613   7.365  21.382  0.00  0.00    +0.000 N 
ATOM     21  H   UNL     1       1.839   6.915  22.257  0.00  0.00    +0.000 HD
BRANCH  20  22
ATOM     22  C   UNL     1       1.383   8.800  21.409  0.00  0.00    +0.000 C 
BRANCH  22  23
ATOM     23  C   UNL     1      -0.099   9.209  21.370  0.00  0.00    +0.000 C 
ATOM     24  C   UNL     1      -0.769   9.282  22.737  0.00  0.00    +0.000 C 
ATOM     25  C   UNL     1      -0.730  10.749  23.083  0.00  0.00    +0.000 C 
ATOM     26  C   UNL     1      -0.780  11.418  21.729  0.00  0.00    +0.000 C 
ATOM     27  O   UNL     1      -0.190  10.522  20.786  0.00  0.00    +0.000 OA
ENDBRANCH  22  23
ENDBRANCH  20  22
ENDBRANCH  17  18
ENDBRANCH  16  17
ENDBRANCH   4  16
TORSDOF 7
ENDMDL
MODEL 5
REMARK VINA RESULT:      -7.0      3.635      7.563
REMARK  Name = 
REMARK  8 active torsions:
REMARK  status: ('A' for Active; 'I' for Inactive)
REMARK    1  A    between atoms: C_1  and  N_2
REMARK    2  A    between atoms: C_4  and  S_5
REMARK    3  A    between atoms: S_5  and  N_8
REMARK    4  A    between atoms: C_11  and  C_12
REMARK    5  A    between atoms: C_12  and  C_13
REMARK    6  A    between atoms: C_13  and  C_14
REMARK    7  A    between atoms: N_16  and  C_17
REMARK    8  A    between atoms: C_17  and  C_18
REMARK                            x       y       z     vdW  Elec       q    Type
REMARK                         _______ _______ _______ _____ _____    ______ ____
ROOT
ATOM      1  N   UNL     1       4.593   3.653  17.510  0.00  0.00    +0.000 NA
ATOM      2  C   UNL     1       4.726   4.100  18.918  0.00  0.00    +0.000 C 
ATOM      3  C   UNL     1       3.999   3.142  19.858  0.00  0.00    +0.000 C 
ATOM      4  C   UNL     1       2.517   2.970  19.477  0.00  0.00    +0.000 C 
ATOM      5  C   UNL     1       2.468   2.457  18.033  0.00  0.00    +0.000 C 
ATOM      6  C   UNL     1       3.204   3.375  17.056  0.00  0.00    +0.000 C 
ENDROOT
BRANCH   1   7
ATOM      7  S   UNL     1       5.560   4.519  16.395  0.00  0.00    +0.000 S 
ATOM      8  O   UNL     1       4.700   5.382  15.615  0.00  0.00    +0.000 OA
ATOM      9  O   UNL     1       6.484   3.597  15.769  0.00  0.00    +0.000 OA
BRANCH   7  13
ATOM     10  C   UNL     1       8.210   8.680  18.135  0.00  0.00    +0.000 C 
ATOM     11  N   UNL     1       7.661   7.354  17.983  0.00  0.00    +0.000 N 
ATOM     12  C   UNL     1       6.721   6.966  17.076  0.00  0.00    +0.000 A 
ATOM     13  C   UNL     1       6.571   5.608  17.254  0.00  0.00    +0.000 A 
ATOM     14  C   UNL     1       7.434   5.278  18.308  0.00  0.00    +0.000 A 
ATOM     15  N   UNL     1       8.114   6.342  18.753  0.00  0.00    +0.000 NA
ENDBRANCH   7  13
ENDBRANCH   1   7
BRANCH   4  16
ATOM     16  C   UNL     1       1.704   4.267  19.661  0.00  0.00    +0.000 C 
BRANCH  16  17
ATOM     17  C   UNL     1       2.418   5.322  20.512  0.00  0.00    +0.000 C 
BRANCH  17  18
ATOM     18  C   UNL     1       2.184   6.713  19.957  0.00  0.00    +0.000 C 
ATOM     19  O   UNL     1       2.447   7.026  18.812  0.00  0.00    +0.000 OA
ATOM     20  N   UNL     1       1.599   7.555  20.880  0.00  0.00    +0.000 N 
ATOM     21  H   UNL     1       1.734   7.342  21.858  0.00  0.00    +0.000 HD
BRANCH  20  22
ATOM     22  C   UNL     1       1.275   8.929  20.534  0.00  0.00    +0.000 C 
BRANCH  22  23
ATOM     23  C   UNL     1      -0.146   9.367  20.929  0.00  0.00    +0.000 C 
ATOM     24  C   UNL     1      -0.641   8.787  22.248  0.00  0.00    +0.000 C 
ATOM     25  C   UNL     1      -0.395   9.890  23.246  0.00  0.00    +0.000 C 
ATOM     26  C   UNL     1      -0.524  11.141  22.407  0.00  0.00    +0.000 C 
ATOM     27  O   UNL     1      -0.153  10.800  21.070  0.00  0.00    +0.000 OA
ENDBRANCH  22  23
ENDBRANCH  20  22
ENDBRANCH  17  18
ENDBRANCH  16  17
ENDBRANCH   4  16
TORSDOF 7
ENDMDL
MODEL 6
REMARK VINA RESULT:      -7.0      4.694      8.782
REMARK  Name = 
REMARK  8 active torsions:
REMARK  status: ('A' for Active; 'I' for Inactive)
REMARK    1  A    between atoms: C_1  and  N_2
REMARK    2  A    between atoms: C_4  and  S_5
REMARK    3  A    between atoms: S_5  and  N_8
REMARK    4  A    between atoms: C_11  and  C_12
REMARK    5  A    between atoms: C_12  and  C_13
REMARK    6  A    between atoms: C_13  and  C_14
REMARK    7  A    between atoms: N_16  and  C_17
REMARK    8  A    between atoms: C_17  and  C_18
REMARK                            x       y       z     vdW  Elec       q    Type
REMARK                         _______ _______ _______ _____ _____    ______ ____
ROOT
ATOM      1  N   UNL     1       3.865   5.069  18.984  0.00  0.00    +0.000 NA
ATOM      2  C   UNL     1       3.241   4.991  20.327  0.00  0.00    +0.000 C 
ATOM      3  C   UNL     1       1.737   5.237  20.236  0.00  0.00    +0.000 C 
ATOM      4  C   UNL     1       1.409   6.580  19.559  0.00  0.00    +0.000 C 
ATOM      5  C   UNL     1       2.042   6.560  18.163  0.00  0.00    +0.000 C 
ATOM      6  C   UNL     1       3.548   6.293  18.202  0.00  0.00    +0.000 C 
ENDROOT
BRANCH   1   7
ATOM      7  S   UNL     1       5.505   4.581  18.933  0.00  0.00    +0.000 S 
ATOM      8  O   UNL     1       5.568   3.159  19.194  0.00  0.00    +0.000 OA
ATOM      9  O   UNL     1       6.294   5.531  19.687  0.00  0.00    +0.000 OA
BRANCH   7  13
ATOM     10  C   UNL     1       6.481   4.054  13.821  0.00  0.00    +0.000 C 
ATOM     11  N   UNL     1       6.477   4.516  15.188  0.00  0.00    +0.000 N 
ATOM     12  C   UNL     1       5.682   4.057  16.196  0.00  0.00    +0.000 A 
ATOM     13  C   UNL     1       6.087   4.732  17.325  0.00  0.00    +0.000 A 
ATOM     14  C   UNL     1       7.103   5.596  16.893  0.00  0.00    +0.000 A 
ATOM     15  N   UNL     1       7.355   5.462  15.585  0.00  0.00    +0.000 NA
ENDBRANCH   7  13
ENDBRANCH   1   7
BRANCH   4  16
ATOM     16  C   UNL     1       1.876   7.792  20.391  0.00  0.00    +0.000 C 
BRANCH  16  17
ATOM     17  C   UNL     1       1.667   9.136  19.686  0.00  0.00    +0.000 C 
BRANCH  17  18
ATOM     18  C   UNL     1       0.232   9.602  19.825  0.00  0.00    +0.000 C 
ATOM     19  O   UNL     1      -0.406   9.496  20.854  0.00  0.00    +0.000 OA
ATOM     20  N   UNL     1      -0.241  10.197  18.673  0.00  0.00    +0.000 N 
ATOM     21  H   UNL     1       0.198   9.941  17.801  0.00  0.00    +0.000 HD
BRANCH  20  22
ATOM     22  C   UNL     1      -1.591  10.730  18.611  0.00  0.00    +0.000 C 
BRANCH  22  23
ATOM     23  C   UNL     1      -2.557   9.916  17.732  0.00  0.00    +0.000 C 
ATOM     24  C   UNL     1      -3.985  10.448  17.708  0.00  0.00    +0.000 C 
ATOM     25  C   UNL     1      -4.052  11.252  16.434  0.00  0.00    +0.000 C 
ATOM     26  C   UNL     1      -3.060  10.549  15.537  0.00  0.00    +0.000 C 
ATOM     27  O   UNL     1      -2.072   9.949  16.377  0.00  0.00    +0.000 OA
ENDBRANCH  22  23
ENDBRANCH  20  22
ENDBRANCH  17  18
ENDBRANCH  16  17
ENDBRANCH   4  16
TORSDOF 7
ENDMDL
MODEL 7
REMARK VINA RESULT:      -6.9      5.156      8.073
REMARK  Name = 
REMARK  8 active torsions:
REMARK  status: ('A' for Active; 'I' for Inactive)
REMARK    1  A    between atoms: C_1  and  N_2
REMARK    2  A    between atoms: C_4  and  S_5
REMARK    3  A    between atoms: S_5  and  N_8
REMARK    4  A    between atoms: C_11  and  C_12
REMARK    5  A    between atoms: C_12  and  C_13
REMARK    6  A    between atoms: C_13  and  C_14
REMARK    7  A    between atoms: N_16  and  C_17
REMARK    8  A    between atoms: C_17  and  C_18
REMARK                            x       y       z     vdW  Elec       q    Type
REMARK                         _______ _______ _______ _____ _____    ______ ____
ROOT
ATOM      1  N   UNL     1       5.511   4.641  17.411  0.00  0.00    +0.000 NA
ATOM      2  C   UNL     1       5.444   5.016  18.844  0.00  0.00    +0.000 C 
ATOM      3  C   UNL     1       4.244   4.357  19.517  0.00  0.00    +0.000 C 
ATOM      4  C   UNL     1       2.922   4.693  18.803  0.00  0.00    +0.000 C 
ATOM      5  C   UNL     1       3.053   4.227  17.348  0.00  0.00    +0.000 C 
ATOM      6  C   UNL     1       4.258   4.846  16.637  0.00  0.00    +0.000 C 
ENDROOT
BRANCH   1   7
ATOM      7  S   UNL     1       6.944   5.133  16.613  0.00  0.00    +0.000 S 
ATOM      8  O   UNL     1       8.043   4.334  17.111  0.00  0.00    +0.000 OA
ATOM      9  O   UNL     1       6.995   6.579  16.604  0.00  0.00    +0.000 OA
BRANCH   7  13
ATOM     10  C   UNL     1       5.859   2.896  12.010  0.00  0.00    +0.000 C 
ATOM     11  N   UNL     1       6.369   3.775  13.036  0.00  0.00    +0.000 N 
ATOM     12  C   UNL     1       6.058   3.737  14.362  0.00  0.00    +0.000 A 
ATOM     13  C   UNL     1       6.840   4.704  14.954  0.00  0.00    +0.000 A 
ATOM     14  C   UNL     1       7.559   5.290  13.903  0.00  0.00    +0.000 A 
ATOM     15  N   UNL     1       7.283   4.718  12.725  0.00  0.00    +0.000 NA
ENDBRANCH   7  13
ENDBRANCH   1   7
BRANCH   4  16
ATOM     16  C   UNL     1       2.557   6.187  18.905  0.00  0.00    +0.000 C 
BRANCH  16  17
ATOM     17  C   UNL     1       2.230   6.642  20.331  0.00  0.00    +0.000 C 
BRANCH  17  18
ATOM     18  C   UNL     1       1.668   8.049  20.333  0.00  0.00    +0.000 C 
ATOM     19  O   UNL     1       1.371   8.646  21.350  0.00  0.00    +0.000 OA
ATOM     20  N   UNL     1       1.580   8.582  19.064  0.00  0.00    +0.000 N 
ATOM     21  H   UNL     1       1.509   7.937  18.290  0.00  0.00    +0.000 HD
BRANCH  20  22
ATOM     22  C   UNL     1       1.082   9.931  18.855  0.00  0.00    +0.000 C 
BRANCH  22  23
ATOM     23  C   UNL     1      -0.435  10.090  19.056  0.00  0.00    +0.000 C 
ATOM     24  C   UNL     1      -0.831  11.230  19.985  0.00  0.00    +0.000 C 
ATOM     25  C   UNL     1      -1.186  12.357  19.048  0.00  0.00    +0.000 C 
ATOM     26  C   UNL     1      -1.688  11.632  17.821  0.00  0.00    +0.000 C 
ATOM     27  O   UNL     1      -1.034  10.363  17.775  0.00  0.00    +0.000 OA
ENDBRANCH  22  23
ENDBRANCH  20  22
ENDBRANCH  17  18
ENDBRANCH  16  17
ENDBRANCH   4  16
TORSDOF 7
ENDMDL
MODEL 8
REMARK VINA RESULT:      -6.9      2.127      2.752
REMARK  Name = 
REMARK  8 active torsions:
REMARK  status: ('A' for Active; 'I' for Inactive)
REMARK    1  A    between atoms: C_1  and  N_2
REMARK    2  A    between atoms: C_4  and  S_5
REMARK    3  A    between atoms: S_5  and  N_8
REMARK    4  A    between atoms: C_11  and  C_12
REMARK    5  A    between atoms: C_12  and  C_13
REMARK    6  A    between atoms: C_13  and  C_14
REMARK    7  A    between atoms: N_16  and  C_17
REMARK    8  A    between atoms: C_17  and  C_18
REMARK                            x       y       z     vdW  Elec       q    Type
REMARK                         _______ _______ _______ _____ _____    ______ ____
ROOT
ATOM      1  N   UNL     1       4.627   4.582  17.522  0.00  0.00    +0.000 NA
ATOM      2  C   UNL     1       5.155   5.054  16.219  0.00  0.00    +0.000 C 
ATOM      3  C   UNL     1       6.645   4.745  16.098  0.00  0.00    +0.000 C 
ATOM      4  C   UNL     1       7.457   5.339  17.264  0.00  0.00    +0.000 C 
ATOM      5  C   UNL     1       6.885   4.762  18.565  0.00  0.00    +0.000 C 
ATOM      6  C   UNL     1       5.387   5.028  18.720  0.00  0.00    +0.000 C 
ENDROOT
BRANCH   1   7
ATOM      7  S   UNL     1       2.924   4.666  17.672  0.00  0.00    +0.000 S 
ATOM      8  O   UNL     1       2.342   3.601  16.883  0.00  0.00    +0.000 OA
ATOM      9  O   UNL     1       2.513   6.044  17.514  0.00  0.00    +0.000 OA
BRANCH   7  13
ATOM     10  C   UNL     1       1.505   2.284  22.108  0.00  0.00    +0.000 C 
ATOM     11  N   UNL     1       1.904   3.272  21.134  0.00  0.00    +0.000 N 
ATOM     12  C   UNL     1       2.263   3.036  19.841  0.00  0.00    +0.000 A 
ATOM     13  C   UNL     1       2.481   4.276  19.283  0.00  0.00    +0.000 A 
ATOM     14  C   UNL     1       2.262   5.190  20.324  0.00  0.00    +0.000 A 
ATOM     15  N   UNL     1       1.898   4.582  21.460  0.00  0.00    +0.000 NA
ENDBRANCH   7  13
ENDBRANCH   1   7
BRANCH   4  16
ATOM     16  C   UNL     1       7.456   6.880  17.262  0.00  0.00    +0.000 C 
BRANCH  16  17
ATOM     17  C   UNL     1       8.257   7.496  18.413  0.00  0.00    +0.000 C 
BRANCH  17  18
ATOM     18  C   UNL     1       8.336   9.003  18.272  0.00  0.00    +0.000 C 
ATOM     19  O   UNL     1       7.717   9.626  17.431  0.00  0.00    +0.000 OA
ATOM     20  N   UNL     1       9.145   9.578  19.230  0.00  0.00    +0.000 N 
ATOM     21  H   UNL     1       9.865   9.002  19.642  0.00  0.00    +0.000 HD
BRANCH  20  22
ATOM     22  C   UNL     1       9.335  11.018  19.277  0.00  0.00    +0.000 C 
BRANCH  22  23
ATOM     23  C   UNL     1      10.196  11.510  20.454  0.00  0.00    +0.000 C 
ATOM     24  C   UNL     1      11.591  11.981  20.060  0.00  0.00    +0.000 C 
ATOM     25  C   UNL     1      11.459  13.480  19.979  0.00  0.00    +0.000 C 
ATOM     26  C   UNL     1      10.374  13.781  20.988  0.00  0.00    +0.000 C 
ATOM     27  O   UNL     1       9.529  12.631  21.063  0.00  0.00    +0.000 OA
ENDBRANCH  22  23
ENDBRANCH  20  22
ENDBRANCH  17  18
ENDBRANCH  16  17
ENDBRANCH   4  16
TORSDOF 7
ENDMDL
MODEL 9
REMARK VINA RESULT:      -6.9      4.924      8.263
REMARK  Name = 
REMARK  8 active torsions:
REMARK  status: ('A' for Active; 'I' for Inactive)
REMARK    1  A    between atoms: C_1  and  N_2
REMARK    2  A    between atoms: C_4  and  S_5
REMARK    3  A    between atoms: S_5  and  N_8
REMARK    4  A    between atoms: C_11  and  C_12
REMARK    5  A    between atoms: C_12  and  C_13
REMARK    6  A    between atoms: C_13  and  C_14
REMARK    7  A    between atoms: N_16  and  C_17
REMARK    8  A    between atoms: C_17  and  C_18
REMARK                            x       y       z     vdW  Elec       q    Type
REMARK                         _______ _______ _______ _____ _____    ______ ____
ROOT
ATOM      1  N   UNL     1       4.701   5.190  18.229  0.00  0.00    +0.000 NA
ATOM      2  C   UNL     1       4.495   5.104  19.696  0.00  0.00    +0.000 C 
ATOM      3  C   UNL     1       3.043   4.759  20.016  0.00  0.00    +0.000 C 
ATOM      4  C   UNL     1       2.057   5.757  19.384  0.00  0.00    +0.000 C 
ATOM      5  C   UNL     1       2.297   5.748  17.870  0.00  0.00    +0.000 C 
ATOM      6  C   UNL     1       3.746   6.067  17.500  0.00  0.00    +0.000 C 
ENDROOT
BRANCH   1   7
ATOM      7  S   UNL     1       6.337   5.342  17.748  0.00  0.00    +0.000 S 
ATOM      8  O   UNL     1       7.099   4.284  18.375  0.00  0.00    +0.000 OA
ATOM      9  O   UNL     1       6.726   6.732  17.862  0.00  0.00    +0.000 OA
BRANCH   7  13
ATOM     10  C   UNL     1       5.870   3.393  12.916  0.00  0.00    +0.000 C 
ATOM     11  N   UNL     1       6.251   4.197  14.053  0.00  0.00    +0.000 N 
ATOM     12  C   UNL     1       5.748   4.102  15.317  0.00  0.00    +0.000 A 
ATOM     13  C   UNL     1       6.463   5.006  16.070  0.00  0.00    +0.000 A 
ATOM     14  C   UNL     1       7.346   5.618  15.169  0.00  0.00    +0.000 A 
ATOM     15  N   UNL     1       7.228   5.119  13.932  0.00  0.00    +0.000 NA
ENDBRANCH   7  13
ENDBRANCH   1   7
BRANCH   4  16
ATOM     16  C   UNL     1       2.182   7.172  19.983  0.00  0.00    +0.000 C 
BRANCH  16  17
ATOM     17  C   UNL     1       1.333   7.382  21.241  0.00  0.00    +0.000 C 
BRANCH  17  18
ATOM     18  C   UNL     1       0.993   8.848  21.425  0.00  0.00    +0.000 C 
ATOM     19  O   UNL     1       1.577   9.574  22.206  0.00  0.00    +0.000 OA
ATOM     20  N   UNL     1      -0.014   9.264  20.578  0.00  0.00    +0.000 N 
ATOM     21  H   UNL     1      -0.656   8.564  20.236  0.00  0.00    +0.000 HD
BRANCH  20  22
ATOM     22  C   UNL     1      -0.471  10.643  20.586  0.00  0.00    +0.000 C 
BRANCH  22  23
ATOM     23  C   UNL     1      -0.674  11.255  19.189  0.00  0.00    +0.000 C 
ATOM     24  C   UNL     1      -0.833  10.234  18.070  0.00  0.00    +0.000 C 
ATOM     25  C   UNL     1      -2.324  10.143  17.869  0.00  0.00    +0.000 C 
ATOM     26  C   UNL     1      -2.803  11.523  18.257  0.00  0.00    +0.000 C 
ATOM     27  O   UNL     1      -1.879  12.044  19.213  0.00  0.00    +0.000 OA
ENDBRANCH  22  23
ENDBRANCH  20  22
ENDBRANCH  17  18
ENDBRANCH  16  17
ENDBRANCH   4  16
TORSDOF 7
ENDMDL
