MODEL 1
REMARK VINA RESULT:      -7.3      0.000      0.000
REMARK  Name = 
REMARK  8 active torsions:
REMARK  status: ('A' for Active; 'I' for Inactive)
REMARK    1  A    between atoms: C_1  and  O_2
REMARK    2  A    between atoms: O_2  and  C_3
REMARK    3  A    between atoms: C_5  and  C_6
REMARK    4  A    between atoms: C_7  and  C_8
REMARK    5  A    between atoms: C_16  and  O_17
REMARK    6  A    between atoms: O_17  and  C_18
REMARK    7  A    between atoms: C_19  and  O_20
REMARK    8  A    between atoms: O_20  and  C_21
REMARK                            x       y       z     vdW  Elec       q    Type
REMARK                         _______ _______ _______ _____ _____    ______ ____
ROOT
ATOM      1  C   UNL     1       2.523   4.151  18.316  0.00  0.00    +0.000 A 
ATOM      2  C   UNL     1       2.216   5.502  18.110  0.00  0.00    +0.000 A 
ATOM      3  C   UNL     1       3.229   6.456  18.097  0.00  0.00    +0.000 A 
ATOM      4  C   UNL     1       4.526   6.071  18.431  0.00  0.00    +0.000 A 
ATOM      5  C   UNL     1       4.854   4.726  18.677  0.00  0.00    +0.000 A 
ATOM      6  C   UNL     1       3.854   3.746  18.572  0.00  0.00    +0.000 A 
ENDROOT
BRANCH   1   8
ATOM      7  C   UNL     1       0.814   3.076  19.546  0.00  0.00    +0.000 C 
ATOM      8  O   UNL     1       1.532   3.202  18.318  0.00  0.00    +0.000 OA
ENDBRANCH   1   8
BRANCH   3   9
ATOM      9  C   UNL     1       2.989   7.773  17.508  0.00  0.00    +0.000 C 
ATOM     10  C   UNL     1       2.203   8.777  17.916  0.00  0.00    +0.000 C 
BRANCH  10  11
ATOM     11  C   UNL     1       1.414   8.882  19.138  0.00  0.00    +0.000 A 
ATOM     12  C   UNL     1       1.802   8.169  20.277  0.00  0.00    +0.000 A 
ATOM     13  C   UNL     1       1.187   8.413  21.507  0.00  0.00    +0.000 A 
ATOM     14  C   UNL     1       0.174   9.369  21.591  0.00  0.00    +0.000 A 
ATOM     15 CL   UNL     1      -0.531   9.729  23.118  0.00  0.00    +0.000 Cl
ATOM     16  C   UNL     1      -0.250  10.054  20.453  0.00  0.00    +0.000 A 
ATOM     17  C   UNL     1       0.371   9.812  19.224  0.00  0.00    +0.000 A 
ENDBRANCH  10  11
ENDBRANCH   3   9
BRANCH   5  18
ATOM     18  O   UNL     1       6.189   4.591  18.956  0.00  0.00    +0.000 OA
ATOM     19  C   UNL     1       7.149   4.737  17.924  0.00  0.00    +0.000 C 
ENDBRANCH   5  18
BRANCH   6  20
ATOM     20  O   UNL     1       4.160   2.423  18.789  0.00  0.00    +0.000 OA
ATOM     21  C   UNL     1       4.366   2.099  20.169  0.00  0.00    +0.000 C 
ENDBRANCH   6  20
TORSDOF 5
ENDMDL
MODEL 2
REMARK VINA RESULT:      -7.0      4.262      7.268
REMARK  Name = 
REMARK  8 active torsions:
REMARK  status: ('A' for Active; 'I' for Inactive)
REMARK    1  A    between atoms: C_1  and  O_2
REMARK    2  A    between atoms: O_2  and  C_3
REMARK    3  A    between atoms: C_5  and  C_6
REMARK    4  A    between atoms: C_7  and  C_8
REMARK    5  A    between atoms: C_16  and  O_17
REMARK    6  A    between atoms: O_17  and  C_18
REMARK    7  A    between atoms: C_19  and  O_20
REMARK    8  A    between atoms: O_20  and  C_21
REMARK                            x       y       z     vdW  Elec       q    Type
REMARK                         _______ _______ _______ _____ _____    ______ ____
ROOT
ATOM      1  C   UNL     1       0.216  10.440  20.655  0.00  0.00    +0.000 A 
ATOM      2  C   UNL     1       1.163   9.595  20.062  0.00  0.00    +0.000 A 
ATOM      3  C   UNL     1       1.103   9.325  18.699  0.00  0.00    +0.000 A 
ATOM      4  C   UNL     1       0.013   9.789  17.963  0.00  0.00    +0.000 A 
ATOM      5  C   UNL     1      -0.969  10.610  18.543  0.00  0.00    +0.000 A 
ATOM      6  C   UNL     1      -0.845  10.981  19.891  0.00  0.00    +0.000 A 
ENDROOT
BRANCH   1   8
ATOM      7  C   UNL     1      -0.234   9.700  22.855  0.00  0.00    +0.000 C 
ATOM      8  O   UNL     1       0.275  10.722  21.997  0.00  0.00    +0.000 OA
ENDBRANCH   1   8
BRANCH   3   9
ATOM      9  C   UNL     1       2.273   8.784  18.006  0.00  0.00    +0.000 C 
ATOM     10  C   UNL     1       2.799   7.554  18.021  0.00  0.00    +0.000 C 
BRANCH  10  11
ATOM     11  C   UNL     1       2.295   6.351  18.674  0.00  0.00    +0.000 A 
ATOM     12  C   UNL     1       1.976   5.227  17.905  0.00  0.00    +0.000 A 
ATOM     13  C   UNL     1       1.691   4.007  18.521  0.00  0.00    +0.000 A 
ATOM     14  C   UNL     1       1.718   3.918  19.914  0.00  0.00    +0.000 A 
ATOM     15 CL   UNL     1       1.445   2.400  20.675  0.00  0.00    +0.000 Cl
ATOM     16  C   UNL     1       1.992   5.043  20.690  0.00  0.00    +0.000 A 
ATOM     17  C   UNL     1       2.282   6.262  20.070  0.00  0.00    +0.000 A 
ENDBRANCH  10  11
ENDBRANCH   3   9
BRANCH   5  18
ATOM     18  O   UNL     1      -1.921  10.960  17.621  0.00  0.00    +0.000 OA
ATOM     19  C   UNL     1      -2.726   9.963  17.018  0.00  0.00    +0.000 C 
ENDBRANCH   5  18
BRANCH   6  20
ATOM     20  O   UNL     1      -1.786  11.800  20.470  0.00  0.00    +0.000 OA
ATOM     21  C   UNL     1      -1.534  13.196  20.273  0.00  0.00    +0.000 C 
ENDBRANCH   6  20
TORSDOF 5
ENDMDL
MODEL 3
REMARK VINA RESULT:      -7.0      2.586      4.540
REMARK  Name = 
REMARK  8 active torsions:
REMARK  status: ('A' for Active; 'I' for Inactive)
REMARK    1  A    between atoms: C_1  and  O_2
REMARK    2  A    between atoms: O_2  and  C_3
REMARK    3  A    between atoms: C_5  and  C_6
REMARK    4  A    between atoms: C_7  and  C_8
REMARK    5  A    between atoms: C_16  and  O_17
REMARK    6  A    between atoms: O_17  and  C_18
REMARK    7  A    between atoms: C_19  and  O_20
REMARK    8  A    between atoms: O_20  and  C_21
REMARK                            x       y       z     vdW  Elec       q    Type
REMARK                         _______ _______ _______ _____ _____    ______ ____
ROOT
ATOM      1  C   UNL     1       6.236   5.189  15.793  0.00  0.00    +0.000 A 
ATOM      2  C   UNL     1       5.256   4.198  15.923  0.00  0.00    +0.000 A 
ATOM      3  C   UNL     1       4.799   3.827  17.184  0.00  0.00    +0.000 A 
ATOM      4  C   UNL     1       5.428   4.349  18.313  0.00  0.00    +0.000 A 
ATOM      5  C   UNL     1       6.438   5.320  18.209  0.00  0.00    +0.000 A 
ATOM      6  C   UNL     1       6.816   5.784  16.939  0.00  0.00    +0.000 A 
ENDROOT
BRANCH   1   8
ATOM      7  C   UNL     1       6.829   4.511  13.608  0.00  0.00    +0.000 C 
ATOM      8  O   UNL     1       6.683   5.571  14.553  0.00  0.00    +0.000 OA
ENDBRANCH   1   8
BRANCH   3   9
ATOM      9  C   UNL     1       3.535   3.102  17.323  0.00  0.00    +0.000 C 
ATOM     10  C   UNL     1       2.410   3.434  17.967  0.00  0.00    +0.000 C 
BRANCH  10  11
ATOM     11  C   UNL     1       2.082   4.679  18.653  0.00  0.00    +0.000 A 
ATOM     12  C   UNL     1       1.711   4.650  20.001  0.00  0.00    +0.000 A 
ATOM     13  C   UNL     1       1.594   5.837  20.728  0.00  0.00    +0.000 A 
ATOM     14  C   UNL     1       1.843   7.056  20.096  0.00  0.00    +0.000 A 
ATOM     15 CL   UNL     1       1.777   8.514  21.006  0.00  0.00    +0.000 Cl
ATOM     16  C   UNL     1       2.171   7.098  18.742  0.00  0.00    +0.000 A 
ATOM     17  C   UNL     1       2.293   5.908  18.018  0.00  0.00    +0.000 A 
ENDBRANCH  10  11
ENDBRANCH   3   9
BRANCH   5  18
ATOM     18  O   UNL     1       6.882   5.700  19.449  0.00  0.00    +0.000 OA
ATOM     19  C   UNL     1       8.171   5.312  19.891  0.00  0.00    +0.000 C 
ENDBRANCH   5  18
BRANCH   6  20
ATOM     20  O   UNL     1       7.790   6.748  16.818  0.00  0.00    +0.000 OA
ATOM     21  C   UNL     1       7.434   8.002  17.410  0.00  0.00    +0.000 C 
ENDBRANCH   6  20
TORSDOF 5
ENDMDL
MODEL 4
REMARK VINA RESULT:      -7.0      0.266      1.084
REMARK  Name = 
REMARK  8 active torsions:
REMARK  status: ('A' for Active; 'I' for Inactive)
REMARK    1  A    between atoms: C_1  and  O_2
REMARK    2  A    between atoms: O_2  and  C_3
REMARK    3  A    between atoms: C_5  and  C_6
REMARK    4  A    between atoms: C_7  and  C_8
REMARK    5  A    between atoms: C_16  and  O_17
REMARK    6  A    between atoms: O_17  and  C_18
REMARK    7  A    between atoms: C_19  and  O_20
REMARK    8  A    between atoms: O_20  and  C_21
REMARK                            x       y       z     vdW  Elec       q    Type
REMARK                         _______ _______ _______ _____ _____    ______ ____
ROOT
ATOM      1  C   UNL     1       2.517   4.007  18.500  0.00  0.00    +0.000 A 
ATOM      2  C   UNL     1       2.184   5.331  18.185  0.00  0.00    +0.000 A 
ATOM      3  C   UNL     1       3.185   6.283  18.020  0.00  0.00    +0.000 A 
ATOM      4  C   UNL     1       4.504   5.938  18.311  0.00  0.00    +0.000 A 
ATOM      5  C   UNL     1       4.859   4.624  18.663  0.00  0.00    +0.000 A 
ATOM      6  C   UNL     1       3.865   3.634  18.712  0.00  0.00    +0.000 A 
ENDROOT
BRANCH   1   8
ATOM      7  C   UNL     1       0.837   3.102  19.896  0.00  0.00    +0.000 C 
ATOM      8  O   UNL     1       1.536   3.058  18.652  0.00  0.00    +0.000 OA
ENDBRANCH   1   8
BRANCH   3   9
ATOM      9  C   UNL     1       2.897   7.537  17.324  0.00  0.00    +0.000 C 
ATOM     10  C   UNL     1       2.220   8.619  17.728  0.00  0.00    +0.000 C 
BRANCH  10  11
ATOM     11  C   UNL     1       1.641   8.900  19.037  0.00  0.00    +0.000 A 
ATOM     12  C   UNL     1       0.700   9.926  19.173  0.00  0.00    +0.000 A 
ATOM     13  C   UNL     1      -0.015  10.076  20.363  0.00  0.00    +0.000 A 
ATOM     14  C   UNL     1       0.222   9.199  21.422  0.00  0.00    +0.000 A 
ATOM     15 CL   UNL     1      -0.711   9.330  22.860  0.00  0.00    +0.000 Cl
ATOM     16  C   UNL     1       1.188   8.200  21.312  0.00  0.00    +0.000 A 
ATOM     17  C   UNL     1       1.899   8.048  20.117  0.00  0.00    +0.000 A 
ENDBRANCH  10  11
ENDBRANCH   3   9
BRANCH   5  18
ATOM     18  O   UNL     1       6.210   4.522  18.873  0.00  0.00    +0.000 OA
ATOM     19  C   UNL     1       7.112   4.731  17.801  0.00  0.00    +0.000 C 
ENDBRANCH   5  18
BRANCH   6  20
ATOM     20  O   UNL     1       4.196   2.339  19.036  0.00  0.00    +0.000 OA
ATOM     21  C   UNL     1       4.412   2.133  20.437  0.00  0.00    +0.000 C 
ENDBRANCH   6  20
TORSDOF 5
ENDMDL
MODEL 5
REMARK VINA RESULT:      -6.7      2.358      4.154
REMARK  Name = 
REMARK  8 active torsions:
REMARK  status: ('A' for Active; 'I' for Inactive)
REMARK    1  A    between atoms: C_1  and  O_2
REMARK    2  A    between atoms: O_2  and  C_3
REMARK    3  A    between atoms: C_5  and  C_6
REMARK    4  A    between atoms: C_7  and  C_8
REMARK    5  A    between atoms: C_16  and  O_17
REMARK    6  A    between atoms: O_17  and  C_18
REMARK    7  A    between atoms: C_19  and  O_20
REMARK    8  A    between atoms: O_20  and  C_21
REMARK                            x       y       z     vdW  Elec       q    Type
REMARK                         _______ _______ _______ _____ _____    ______ ____
ROOT
ATOM      1  C   UNL     1       5.929   5.553  16.280  0.00  0.00    +0.000 A 
ATOM      2  C   UNL     1       4.837   4.737  16.600  0.00  0.00    +0.000 A 
ATOM      3  C   UNL     1       4.552   4.439  17.929  0.00  0.00    +0.000 A 
ATOM      4  C   UNL     1       5.444   4.844  18.921  0.00  0.00    +0.000 A 
ATOM      5  C   UNL     1       6.567   5.635  18.621  0.00  0.00    +0.000 A 
ATOM      6  C   UNL     1       6.789   6.036  17.294  0.00  0.00    +0.000 A 
ENDROOT
BRANCH   1   8
ATOM      7  C   UNL     1       6.832   4.819  14.222  0.00  0.00    +0.000 C 
ATOM      8  O   UNL     1       6.211   5.862  14.972  0.00  0.00    +0.000 OA
ENDBRANCH   1   8
BRANCH   3   9
ATOM      9  C   UNL     1       3.230   3.934  18.300  0.00  0.00    +0.000 C 
ATOM     10  C   UNL     1       2.209   4.542  18.916  0.00  0.00    +0.000 C 
BRANCH  10  11
ATOM     11  C   UNL     1       2.085   5.938  19.321  0.00  0.00    +0.000 A 
ATOM     12  C   UNL     1       2.300   6.953  18.384  0.00  0.00    +0.000 A 
ATOM     13  C   UNL     1       1.988   8.278  18.693  0.00  0.00    +0.000 A 
ATOM     14  C   UNL     1       1.466   8.585  19.950  0.00  0.00    +0.000 A 
ATOM     15 CL   UNL     1       1.006  10.203  20.308  0.00  0.00    +0.000 Cl
ATOM     16  C   UNL     1       1.288   7.586  20.907  0.00  0.00    +0.000 A 
ATOM     17  C   UNL     1       1.596   6.260  20.592  0.00  0.00    +0.000 A 
ENDBRANCH  10  11
ENDBRANCH   3   9
BRANCH   5  18
ATOM     18  O   UNL     1       7.275   5.928  19.757  0.00  0.00    +0.000 OA
ATOM     19  C   UNL     1       8.471   5.226  20.049  0.00  0.00    +0.000 C 
ENDBRANCH   5  18
BRANCH   6  20
ATOM     20  O   UNL     1       7.872   6.826  16.985  0.00  0.00    +0.000 OA
ATOM     21  C   UNL     1       7.786   8.153  17.517  0.00  0.00    +0.000 C 
ENDBRANCH   6  20
TORSDOF 5
ENDMDL
MODEL 6
REMARK VINA RESULT:      -6.7      4.130      7.162
REMARK  Name = 
REMARK  8 active torsions:
REMARK  status: ('A' for Active; 'I' for Inactive)
REMARK    1  A    between atoms: C_1  and  O_2
REMARK    2  A    between atoms: O_2  and  C_3
REMARK    3  A    between atoms: C_5  and  C_6
REMARK    4  A    between atoms: C_7  and  C_8
REMARK    5  A    between atoms: C_16  and  O_17
REMARK    6  A    between atoms: O_17  and  C_18
REMARK    7  A    between atoms: C_19  and  O_20
REMARK    8  A    between atoms: O_20  and  C_21
REMARK                            x       y       z     vdW  Elec       q    Type
REMARK                         _______ _______ _______ _____ _____    ______ ____
ROOT
ATOM      1  C   UNL     1       0.437  10.312  20.812  0.00  0.00    +0.000 A 
ATOM      2  C   UNL     1       1.342   9.554  20.060  0.00  0.00    +0.000 A 
ATOM      3  C   UNL     1       1.090   9.295  18.716  0.00  0.00    +0.000 A 
ATOM      4  C   UNL     1      -0.135   9.676  18.171  0.00  0.00    +0.000 A 
ATOM      5  C   UNL     1      -1.075  10.408  18.916  0.00  0.00    +0.000 A 
ATOM      6  C   UNL     1      -0.770  10.773  20.237  0.00  0.00    +0.000 A 
ENDROOT
BRANCH   1   8
ATOM      7  C   UNL     1       0.192   9.609  23.057  0.00  0.00    +0.000 C 
ATOM      8  O   UNL     1       0.684  10.583  22.136  0.00  0.00    +0.000 OA
ENDBRANCH   1   8
BRANCH   3   9
ATOM      9  C   UNL     1       2.175   8.858  17.837  0.00  0.00    +0.000 C 
ATOM     10  C   UNL     1       2.810   7.683  17.758  0.00  0.00    +0.000 C 
BRANCH  10  11
ATOM     11  C   UNL     1       2.535   6.445  18.479  0.00  0.00    +0.000 A 
ATOM     12  C   UNL     1       2.593   6.429  19.876  0.00  0.00    +0.000 A 
ATOM     13  C   UNL     1       2.136   5.319  20.590  0.00  0.00    +0.000 A 
ATOM     14  C   UNL     1       1.628   4.219  19.898  0.00  0.00    +0.000 A 
ATOM     15 CL   UNL     1       0.992   2.883  20.774  0.00  0.00    +0.000 Cl
ATOM     16  C   UNL     1       1.607   4.207  18.504  0.00  0.00    +0.000 A 
ATOM     17  C   UNL     1       2.059   5.322  17.792  0.00  0.00    +0.000 A 
ENDBRANCH  10  11
ENDBRANCH   3   9
BRANCH   5  18
ATOM     18  O   UNL     1      -2.185  10.690  18.162  0.00  0.00    +0.000 OA
ATOM     19  C   UNL     1      -2.088  11.576  17.061  0.00  0.00    +0.000 C 
ENDBRANCH   5  18
BRANCH   6  20
ATOM     20  O   UNL     1      -1.670  11.506  20.975  0.00  0.00    +0.000 OA
ATOM     21  C   UNL     1      -1.567  12.920  20.769  0.00  0.00    +0.000 C 
ENDBRANCH   6  20
TORSDOF 5
ENDMDL
MODEL 7
REMARK VINA RESULT:      -6.7      0.608      2.837
REMARK  Name = 
REMARK  8 active torsions:
REMARK  status: ('A' for Active; 'I' for Inactive)
REMARK    1  A    between atoms: C_1  and  O_2
REMARK    2  A    between atoms: O_2  and  C_3
REMARK    3  A    between atoms: C_5  and  C_6
REMARK    4  A    between atoms: C_7  and  C_8
REMARK    5  A    between atoms: C_16  and  O_17
REMARK    6  A    between atoms: O_17  and  C_18
REMARK    7  A    between atoms: C_19  and  O_20
REMARK    8  A    between atoms: O_20  and  C_21
REMARK                            x       y       z     vdW  Elec       q    Type
REMARK                         _______ _______ _______ _____ _____    ______ ____
ROOT
ATOM      1  C   UNL     1       4.828   5.131  18.943  0.00  0.00    +0.000 A 
ATOM      2  C   UNL     1       4.593   6.265  18.157  0.00  0.00    +0.000 A 
ATOM      3  C   UNL     1       3.294   6.603  17.787  0.00  0.00    +0.000 A 
ATOM      4  C   UNL     1       2.254   5.725  18.087  0.00  0.00    +0.000 A 
ATOM      5  C   UNL     1       2.470   4.561  18.846  0.00  0.00    +0.000 A 
ATOM      6  C   UNL     1       3.761   4.282  19.322  0.00  0.00    +0.000 A 
ENDROOT
BRANCH   1   8
ATOM      7  C   UNL     1       7.081   4.852  18.284  0.00  0.00    +0.000 C 
ATOM      8  O   UNL     1       6.104   4.797  19.324  0.00  0.00    +0.000 OA
ENDBRANCH   1   8
BRANCH   3   9
ATOM      9  C   UNL     1       2.994   7.955  17.316  0.00  0.00    +0.000 C 
ATOM     10  C   UNL     1       2.197   8.897  17.834  0.00  0.00    +0.000 C 
BRANCH  10  11
ATOM     11  C   UNL     1       1.454   8.880  19.089  0.00  0.00    +0.000 A 
ATOM     12  C   UNL     1       1.932   8.127  20.166  0.00  0.00    +0.000 A 
ATOM     13  C   UNL     1       1.355   8.257  21.431  0.00  0.00    +0.000 A 
ATOM     14  C   UNL     1       0.290   9.141  21.612  0.00  0.00    +0.000 A 
ATOM     15 CL   UNL     1      -0.372   9.364  23.184  0.00  0.00    +0.000 Cl
ATOM     16  C   UNL     1      -0.222   9.863  20.535  0.00  0.00    +0.000 A 
ATOM     17  C   UNL     1       0.361   9.734  19.271  0.00  0.00    +0.000 A 
ENDBRANCH  10  11
ENDBRANCH   3   9
BRANCH   5  18
ATOM     18  O   UNL     1       1.298   3.876  19.035  0.00  0.00    +0.000 OA
ATOM     19  C   UNL     1       0.768   3.722  20.340  0.00  0.00    +0.000 C 
ENDBRANCH   5  18
BRANCH   6  20
ATOM     20  O   UNL     1       3.987   3.159  20.083  0.00  0.00    +0.000 OA
ATOM     21  C   UNL     1       4.106   1.957  19.313  0.00  0.00    +0.000 C 
ENDBRANCH   6  20
TORSDOF 5
ENDMDL
MODEL 8
REMARK VINA RESULT:      -6.6      2.471      4.499
REMARK  Name = 
REMARK  8 active torsions:
REMARK  status: ('A' for Active; 'I' for Inactive)
REMARK    1  A    between atoms: C_1  and  O_2
REMARK    2  A    between atoms: O_2  and  C_3
REMARK    3  A    between atoms: C_5  and  C_6
REMARK    4  A    between atoms: C_7  and  C_8
REMARK    5  A    between atoms: C_16  and  O_17
REMARK    6  A    between atoms: O_17  and  C_18
REMARK    7  A    between atoms: C_19  and  O_20
REMARK    8  A    between atoms: O_20  and  C_21
REMARK                            x       y       z     vdW  Elec       q    Type
REMARK                         _______ _______ _______ _____ _____    ______ ____
ROOT
ATOM      1  C   UNL     1       6.187   5.306  15.685  0.00  0.00    +0.000 A 
ATOM      2  C   UNL     1       5.110   4.418  15.805  0.00  0.00    +0.000 A 
ATOM      3  C   UNL     1       4.632   4.066  17.063  0.00  0.00    +0.000 A 
ATOM      4  C   UNL     1       5.325   4.491  18.196  0.00  0.00    +0.000 A 
ATOM      5  C   UNL     1       6.430   5.355  18.100  0.00  0.00    +0.000 A 
ATOM      6  C   UNL     1       6.839   5.808  16.835  0.00  0.00    +0.000 A 
ENDROOT
BRANCH   1   8
ATOM      7  C   UNL     1       7.080   4.588  13.617  0.00  0.00    +0.000 C 
ATOM      8  O   UNL     1       6.657   5.670  14.447  0.00  0.00    +0.000 OA
ENDBRANCH   1   8
BRANCH   3   9
ATOM      9  C   UNL     1       3.301   3.473  17.203  0.00  0.00    +0.000 C 
ATOM     10  C   UNL     1       2.274   3.820  17.987  0.00  0.00    +0.000 C 
BRANCH  10  11
ATOM     11  C   UNL     1       2.151   4.967  18.880  0.00  0.00    +0.000 A 
ATOM     12  C   UNL     1       2.257   6.262  18.363  0.00  0.00    +0.000 A 
ATOM     13  C   UNL     1       1.941   7.368  19.155  0.00  0.00    +0.000 A 
ATOM     14  C   UNL     1       1.524   7.172  20.472  0.00  0.00    +0.000 A 
ATOM     15 CL   UNL     1       1.057   8.525  21.427  0.00  0.00    +0.000 Cl
ATOM     16  C   UNL     1       1.456   5.888  21.011  0.00  0.00    +0.000 A 
ATOM     17  C   UNL     1       1.769   4.783  20.213  0.00  0.00    +0.000 A 
ENDBRANCH  10  11
ENDBRANCH   3   9
BRANCH   5  18
ATOM     18  O   UNL     1       6.925   5.656  19.342  0.00  0.00    +0.000 OA
ATOM     19  C   UNL     1       8.205   5.188  19.728  0.00  0.00    +0.000 C 
ENDBRANCH   5  18
BRANCH   6  20
ATOM     20  O   UNL     1       7.906   6.668  16.724  0.00  0.00    +0.000 OA
ATOM     21  C   UNL     1       7.698   7.930  17.369  0.00  0.00    +0.000 C 
ENDBRANCH   6  20
TORSDOF 5
ENDMDL
MODEL 9
REMARK VINA RESULT:      -6.6      3.233      5.897
REMARK  Name = 
REMARK  8 active torsions:
REMARK  status: ('A' for Active; 'I' for Inactive)
REMARK    1  A    between atoms: C_1  and  O_2
REMARK    2  A    between atoms: O_2  and  C_3
REMARK    3  A    between atoms: C_5  and  C_6
REMARK    4  A    between atoms: C_7  and  C_8
REMARK    5  A    between atoms: C_16  and  O_17
REMARK    6  A    between atoms: O_17  and  C_18
REMARK    7  A    between atoms: C_19  and  O_20
REMARK    8  A    between atoms: O_20  and  C_21
REMARK                            x       y       z     vdW  Elec       q    Type
REMARK                         _______ _______ _______ _____ _____    ______ ____
ROOT
ATOM      1  C   UNL     1       2.366   5.120  20.249  0.00  0.00    +0.000 A 
ATOM      2  C   UNL     1       2.800   4.287  19.210  0.00  0.00    +0.000 A 
ATOM      3  C   UNL     1       3.231   4.837  18.007  0.00  0.00    +0.000 A 
ATOM      4  C   UNL     1       3.093   6.208  17.799  0.00  0.00    +0.000 A 
ATOM      5  C   UNL     1       2.627   7.062  18.815  0.00  0.00    +0.000 A 
ATOM      6  C   UNL     1       2.305   6.522  20.070  0.00  0.00    +0.000 A 
ENDROOT
BRANCH   1   8
ATOM      7  C   UNL     1       1.519   3.228  21.385  0.00  0.00    +0.000 C 
ATOM      8  O   UNL     1       1.951   4.587  21.444  0.00  0.00    +0.000 OA
ENDBRANCH   1   8
BRANCH   3   9
ATOM      9  C   UNL     1       4.036   4.038  17.082  0.00  0.00    +0.000 C 
ATOM     10  C   UNL     1       5.300   4.196  16.671  0.00  0.00    +0.000 C 
BRANCH  10  11
ATOM     11  C   UNL     1       6.287   5.177  17.106  0.00  0.00    +0.000 A 
ATOM     12  C   UNL     1       6.394   6.398  16.432  0.00  0.00    +0.000 A 
ATOM     13  C   UNL     1       7.181   7.427  16.953  0.00  0.00    +0.000 A 
ATOM     14  C   UNL     1       7.871   7.225  18.150  0.00  0.00    +0.000 A 
ATOM     15 CL   UNL     1       8.778   8.514  18.836  0.00  0.00    +0.000 Cl
ATOM     16  C   UNL     1       7.806   5.997  18.807  0.00  0.00    +0.000 A 
ATOM     17  C   UNL     1       7.012   4.971  18.285  0.00  0.00    +0.000 A 
ENDBRANCH  10  11
ENDBRANCH   3   9
BRANCH   5  18
ATOM     18  O   UNL     1       2.604   8.364  18.387  0.00  0.00    +0.000 OA
ATOM     19  C   UNL     1       1.457   8.875  17.731  0.00  0.00    +0.000 C 
ENDBRANCH   5  18
BRANCH   6  20
ATOM     20  O   UNL     1       1.866   7.345  21.082  0.00  0.00    +0.000 OA
ATOM     21  C   UNL     1       0.479   7.687  20.984  0.00  0.00    +0.000 C 
ENDBRANCH   6  20
TORSDOF 5
ENDMDL
