MODEL 1
REMARK VINA RESULT:      -7.9      0.000      0.000
REMARK  Name = 
REMARK  6 active torsions:
REMARK  status: ('A' for Active; 'I' for Inactive)
REMARK    1  A    between atoms: C_1  and  C_2
REMARK    2  A    between atoms: C_2  and  C_3
REMARK    3  A    between atoms: C_2  and  N_4
REMARK    4  A    between atoms: C_9  and  C_10
REMARK    5  A    between atoms: N_12  and  C_13
REMARK    6  A    between atoms: N_12  and  C_14
REMARK                            x       y       z     vdW  Elec       q    Type
REMARK                         _______ _______ _______ _____ _____    ______ ____
ROOT
ATOM      1  N   UNL     1       3.183   2.563  20.235  0.00  0.00    +0.000 NA
ATOM      2  C   UNL     1       4.303   3.412  19.864  0.00  0.00    +0.000 C 
ATOM      3  C   UNL     1       4.814   3.082  18.492  0.00  0.00    +0.000 C 
ATOM      4  C   UNL     1       3.766   3.470  17.422  0.00  0.00    +0.000 C 
ATOM      5  C   UNL     1       4.629   3.496  16.154  0.00  0.00    +0.000 C 
ATOM      6  C   UNL     1       5.237   4.708  16.026  0.00  0.00    +0.000 C 
ATOM      7  C   UNL     1       4.418   5.655  16.824  0.00  0.00    +0.000 A 
ATOM      8  C   UNL     1       4.477   7.034  16.964  0.00  0.00    +0.000 A 
ATOM      9  C   UNL     1       3.448   7.689  17.652  0.00  0.00    +0.000 A 
ATOM     10  C   UNL     1       2.357   6.972  18.158  0.00  0.00    +0.000 A 
ATOM     11  C   UNL     1       2.335   5.583  18.078  0.00  0.00    +0.000 A 
ATOM     12  C   UNL     1       3.413   4.938  17.480  0.00  0.00    +0.000 A 
ATOM     13  C   UNL     1       2.586   2.520  17.632  0.00  0.00    +0.000 C 
ATOM     14  C   UNL     1       2.213   2.286  19.150  0.00  0.00    +0.000 C 
ENDROOT
BRANCH   6  15
ATOM     15  C   UNL     1       6.460   5.139  15.273  0.00  0.00    +0.000 C 
ATOM     16  O   UNL     1       7.284   5.841  15.851  0.00  0.00    +0.000 OA
ATOM     17  N   UNL     1       6.720   4.624  13.997  0.00  0.00    +0.000 N 
ATOM     18  C   UNL     1       5.757   4.037  13.078  0.00  0.00    +0.000 C 
ATOM     19  C   UNL     1       8.019   4.915  13.403  0.00  0.00    +0.000 C 
ENDBRANCH   6  15
BRANCH   1  21
ATOM     20  C   UNL     1       2.249   4.551  21.464  0.00  0.00    +0.000 C 
ATOM     21  C   UNL     1       2.583   3.060  21.507  0.00  0.00    +0.000 C 
ATOM     22  C   UNL     1       1.280   2.311  21.889  0.00  0.00    +0.000 C 
ENDBRANCH   1  21
TORSDOF 2
ENDMDL
MODEL 2
REMARK VINA RESULT:      -7.4      1.694      2.621
REMARK  Name = 
REMARK  6 active torsions:
REMARK  status: ('A' for Active; 'I' for Inactive)
REMARK    1  A    between atoms: C_1  and  C_2
REMARK    2  A    between atoms: C_2  and  C_3
REMARK    3  A    between atoms: C_2  and  N_4
REMARK    4  A    between atoms: C_9  and  C_10
REMARK    5  A    between atoms: N_12  and  C_13
REMARK    6  A    between atoms: N_12  and  C_14
REMARK                            x       y       z     vdW  Elec       q    Type
REMARK                         _______ _______ _______ _____ _____    ______ ____
ROOT
ATOM      1  N   UNL     1       2.531   3.333  18.943  0.00  0.00    +0.000 NA
ATOM      2  C   UNL     1       3.656   2.872  18.145  0.00  0.00    +0.000 C 
ATOM      3  C   UNL     1       3.751   3.615  16.845  0.00  0.00    +0.000 C 
ATOM      4  C   UNL     1       4.137   5.092  17.098  0.00  0.00    +0.000 C 
ATOM      5  C   UNL     1       4.622   5.517  15.707  0.00  0.00    +0.000 C 
ATOM      6  C   UNL     1       5.932   5.182  15.544  0.00  0.00    +0.000 C 
ATOM      7  C   UNL     1       6.487   5.054  16.915  0.00  0.00    +0.000 A 
ATOM      8  C   UNL     1       7.782   4.856  17.371  0.00  0.00    +0.000 A 
ATOM      9  C   UNL     1       8.039   4.958  18.744  0.00  0.00    +0.000 A 
ATOM     10  C   UNL     1       7.016   5.291  19.641  0.00  0.00    +0.000 A 
ATOM     11  C   UNL     1       5.706   5.419  19.190  0.00  0.00    +0.000 A 
ATOM     12  C   UNL     1       5.448   5.216  17.838  0.00  0.00    +0.000 A 
ATOM     13  C   UNL     1       2.938   5.718  17.813  0.00  0.00    +0.000 C 
ATOM     14  C   UNL     1       2.303   4.796  18.928  0.00  0.00    +0.000 C 
ENDROOT
BRANCH   6  15
ATOM     15  C   UNL     1       6.764   4.966  14.316  0.00  0.00    +0.000 C 
ATOM     16  O   UNL     1       7.860   5.515  14.250  0.00  0.00    +0.000 OA
ATOM     17  N   UNL     1       6.361   4.043  13.343  0.00  0.00    +0.000 N 
ATOM     18  C   UNL     1       5.013   3.542  13.120  0.00  0.00    +0.000 C 
ATOM     19  C   UNL     1       7.306   3.725  12.281  0.00  0.00    +0.000 C 
ENDBRANCH   6  15
BRANCH   1  21
ATOM     20  C   UNL     1       4.018   2.312  20.698  0.00  0.00    +0.000 C 
ATOM     21  C   UNL     1       2.599   2.717  20.300  0.00  0.00    +0.000 C 
ATOM     22  C   UNL     1       2.062   3.655  21.412  0.00  0.00    +0.000 C 
ENDBRANCH   1  21
TORSDOF 2
ENDMDL
MODEL 3
REMARK VINA RESULT:      -7.2      2.046      2.633
REMARK  Name = 
REMARK  6 active torsions:
REMARK  status: ('A' for Active; 'I' for Inactive)
REMARK    1  A    between atoms: C_1  and  C_2
REMARK    2  A    between atoms: C_2  and  C_3
REMARK    3  A    between atoms: C_2  and  N_4
REMARK    4  A    between atoms: C_9  and  C_10
REMARK    5  A    between atoms: N_12  and  C_13
REMARK    6  A    between atoms: N_12  and  C_14
REMARK                            x       y       z     vdW  Elec       q    Type
REMARK                         _______ _______ _______ _____ _____    ______ ____
ROOT
ATOM      1  N   UNL     1       2.941   2.230  19.737  0.00  0.00    +0.000 NA
ATOM      2  C   UNL     1       3.675   3.439  20.070  0.00  0.00    +0.000 C 
ATOM      3  C   UNL     1       4.840   3.648  19.146  0.00  0.00    +0.000 C 
ATOM      4  C   UNL     1       4.340   3.973  17.718  0.00  0.00    +0.000 C 
ATOM      5  C   UNL     1       5.599   4.587  17.094  0.00  0.00    +0.000 C 
ATOM      6  C   UNL     1       5.672   5.914  17.391  0.00  0.00    +0.000 C 
ATOM      7  C   UNL     1       4.284   6.330  17.712  0.00  0.00    +0.000 A 
ATOM      8  C   UNL     1       3.729   7.576  17.963  0.00  0.00    +0.000 A 
ATOM      9  C   UNL     1       2.337   7.691  18.058  0.00  0.00    +0.000 A 
ATOM     10  C   UNL     1       1.512   6.576  17.866  0.00  0.00    +0.000 A 
ATOM     11  C   UNL     1       2.073   5.315  17.684  0.00  0.00    +0.000 A 
ATOM     12  C   UNL     1       3.459   5.201  17.692  0.00  0.00    +0.000 A 
ATOM     13  C   UNL     1       3.671   2.695  17.211  0.00  0.00    +0.000 C 
ATOM     14  C   UNL     1       2.770   1.972  18.289  0.00  0.00    +0.000 C 
ENDROOT
BRANCH   6  15
ATOM     15  C   UNL     1       6.826   6.870  17.421  0.00  0.00    +0.000 C 
ATOM     16  O   UNL     1       6.913   7.708  16.528  0.00  0.00    +0.000 OA
ATOM     17  N   UNL     1       7.691   6.898  18.522  0.00  0.00    +0.000 N 
ATOM     18  C   UNL     1       7.907   5.833  19.490  0.00  0.00    +0.000 C 
ATOM     19  C   UNL     1       8.663   7.981  18.590  0.00  0.00    +0.000 C 
ENDBRANCH   6  15
BRANCH   1  21
ATOM     20  C   UNL     1       1.856   2.742  21.950  0.00  0.00    +0.000 C 
ATOM     21  C   UNL     1       1.686   2.174  20.541  0.00  0.00    +0.000 C 
ATOM     22  C   UNL     1       0.513   2.941  19.878  0.00  0.00    +0.000 C 
ENDBRANCH   1  21
TORSDOF 2
ENDMDL
MODEL 4
REMARK VINA RESULT:      -7.1      1.973      6.003
REMARK  Name = 
REMARK  6 active torsions:
REMARK  status: ('A' for Active; 'I' for Inactive)
REMARK    1  A    between atoms: C_1  and  C_2
REMARK    2  A    between atoms: C_2  and  C_3
REMARK    3  A    between atoms: C_2  and  N_4
REMARK    4  A    between atoms: C_9  and  C_10
REMARK    5  A    between atoms: N_12  and  C_13
REMARK    6  A    between atoms: N_12  and  C_14
REMARK                            x       y       z     vdW  Elec       q    Type
REMARK                         _______ _______ _______ _____ _____    ______ ____
ROOT
ATOM      1  N   UNL     1       6.443   3.994  15.174  0.00  0.00    +0.000 NA
ATOM      2  C   UNL     1       5.087   3.838  15.675  0.00  0.00    +0.000 C 
ATOM      3  C   UNL     1       5.077   3.405  17.112  0.00  0.00    +0.000 C 
ATOM      4  C   UNL     1       5.612   4.539  18.019  0.00  0.00    +0.000 C 
ATOM      5  C   UNL     1       5.093   4.093  19.391  0.00  0.00    +0.000 C 
ATOM      6  C   UNL     1       3.815   4.525  19.573  0.00  0.00    +0.000 C 
ATOM      7  C   UNL     1       3.643   5.673  18.648  0.00  0.00    +0.000 A 
ATOM      8  C   UNL     1       2.605   6.578  18.484  0.00  0.00    +0.000 A 
ATOM      9  C   UNL     1       2.797   7.684  17.646  0.00  0.00    +0.000 A 
ATOM     10  C   UNL     1       4.028   7.896  17.013  0.00  0.00    +0.000 A 
ATOM     11  C   UNL     1       5.042   6.950  17.122  0.00  0.00    +0.000 A 
ATOM     12  C   UNL     1       4.802   5.807  17.877  0.00  0.00    +0.000 A 
ATOM     13  C   UNL     1       7.094   4.684  17.671  0.00  0.00    +0.000 C 
ATOM     14  C   UNL     1       7.400   4.610  16.122  0.00  0.00    +0.000 C 
ENDROOT
BRANCH   6  15
ATOM     15  C   UNL     1       2.717   4.048  20.476  0.00  0.00    +0.000 C 
ATOM     16  O   UNL     1       2.496   4.677  21.507  0.00  0.00    +0.000 OA
ATOM     17  N   UNL     1       1.874   3.005  20.073  0.00  0.00    +0.000 N 
ATOM     18  C   UNL     1       2.155   1.996  19.063  0.00  0.00    +0.000 C 
ATOM     19  C   UNL     1       0.704   2.726  20.896  0.00  0.00    +0.000 C 
ENDBRANCH   6  15
BRANCH   1  21
ATOM     20  C   UNL     1       7.746   5.224  13.406  0.00  0.00    +0.000 C 
ATOM     21  C   UNL     1       6.404   4.620  13.821  0.00  0.00    +0.000 C 
ATOM     22  C   UNL     1       5.990   3.621  12.710  0.00  0.00    +0.000 C 
ENDBRANCH   1  21
TORSDOF 2
ENDMDL
MODEL 5
REMARK VINA RESULT:      -6.2      1.021      1.300
REMARK  Name = 
REMARK  6 active torsions:
REMARK  status: ('A' for Active; 'I' for Inactive)
REMARK    1  A    between atoms: C_1  and  C_2
REMARK    2  A    between atoms: C_2  and  C_3
REMARK    3  A    between atoms: C_2  and  N_4
REMARK    4  A    between atoms: C_9  and  C_10
REMARK    5  A    between atoms: N_12  and  C_13
REMARK    6  A    between atoms: N_12  and  C_14
REMARK                            x       y       z     vdW  Elec       q    Type
REMARK                         _______ _______ _______ _____ _____    ______ ____
ROOT
ATOM      1  N   UNL     1       2.798   2.386  20.383  0.00  0.00    +0.000 NA
ATOM      2  C   UNL     1       3.991   3.041  19.871  0.00  0.00    +0.000 C 
ATOM      3  C   UNL     1       4.270   2.644  18.450  0.00  0.00    +0.000 C 
ATOM      4  C   UNL     1       3.179   3.211  17.510  0.00  0.00    +0.000 C 
ATOM      5  C   UNL     1       3.875   3.106  16.148  0.00  0.00    +0.000 C 
ATOM      6  C   UNL     1       4.656   4.201  15.934  0.00  0.00    +0.000 C 
ATOM      7  C   UNL     1       4.108   5.263  16.815  0.00  0.00    +0.000 A 
ATOM      8  C   UNL     1       4.411   6.611  16.933  0.00  0.00    +0.000 A 
ATOM      9  C   UNL     1       3.596   7.422  17.733  0.00  0.00    +0.000 A 
ATOM     10  C   UNL     1       2.470   6.891  18.374  0.00  0.00    +0.000 A 
ATOM     11  C   UNL     1       2.209   5.526  18.312  0.00  0.00    +0.000 A 
ATOM     12  C   UNL     1       3.084   4.717  17.596  0.00  0.00    +0.000 A 
ATOM     13  C   UNL     1       1.892   2.468  17.872  0.00  0.00    +0.000 C 
ATOM     14  C   UNL     1       1.672   2.285  19.426  0.00  0.00    +0.000 C 
ENDROOT
BRANCH   6  15
ATOM     15  C   UNL     1       5.833   4.430  15.035  0.00  0.00    +0.000 C 
ATOM     16  O   UNL     1       5.653   4.405  13.820  0.00  0.00    +0.000 OA
ATOM     17  N   UNL     1       7.068   4.811  15.572  0.00  0.00    +0.000 N 
ATOM     18  C   UNL     1       7.524   4.615  16.940  0.00  0.00    +0.000 C 
ATOM     19  C   UNL     1       8.113   5.219  14.641  0.00  0.00    +0.000 C 
ENDBRANCH   6  15
BRANCH   1  21
ATOM     20  C   UNL     1       2.299   4.485  21.680  0.00  0.00    +0.000 C 
ATOM     21  C   UNL     1       2.446   2.964  21.713  0.00  0.00    +0.000 C 
ATOM     22  C   UNL     1       1.126   2.389  22.287  0.00  0.00    +0.000 C 
ENDBRANCH   1  21
TORSDOF 2
ENDMDL
MODEL 6
REMARK VINA RESULT:      -6.1      3.219      5.936
REMARK  Name = 
REMARK  6 active torsions:
REMARK  status: ('A' for Active; 'I' for Inactive)
REMARK    1  A    between atoms: C_1  and  C_2
REMARK    2  A    between atoms: C_2  and  C_3
REMARK    3  A    between atoms: C_2  and  N_4
REMARK    4  A    between atoms: C_9  and  C_10
REMARK    5  A    between atoms: N_12  and  C_13
REMARK    6  A    between atoms: N_12  and  C_14
REMARK                            x       y       z     vdW  Elec       q    Type
REMARK                         _______ _______ _______ _____ _____    ______ ____
ROOT
ATOM      1  N   UNL     1       1.874   2.633  19.537  0.00  0.00    +0.000 NA
ATOM      2  C   UNL     1       1.317   3.779  18.837  0.00  0.00    +0.000 C 
ATOM      3  C   UNL     1       0.943   4.878  19.788  0.00  0.00    +0.000 C 
ATOM      4  C   UNL     1       2.213   5.492  20.425  0.00  0.00    +0.000 C 
ATOM      5  C   UNL     1       1.666   6.824  20.954  0.00  0.00    +0.000 C 
ATOM      6  C   UNL     1       1.683   7.763  19.968  0.00  0.00    +0.000 C 
ATOM      7  C   UNL     1       2.693   7.296  18.986  0.00  0.00    +0.000 A 
ATOM      8  C   UNL     1       3.225   7.896  17.853  0.00  0.00    +0.000 A 
ATOM      9  C   UNL     1       4.311   7.288  17.212  0.00  0.00    +0.000 A 
ATOM     10  C   UNL     1       4.878   6.114  17.723  0.00  0.00    +0.000 A 
ATOM     11  C   UNL     1       4.300   5.477  18.817  0.00  0.00    +0.000 A 
ATOM     12  C   UNL     1       3.160   6.039  19.383  0.00  0.00    +0.000 A 
ATOM     13  C   UNL     1       2.803   4.397  21.315  0.00  0.00    +0.000 C 
ATOM     14  C   UNL     1       2.784   2.959  20.659  0.00  0.00    +0.000 C 
ENDROOT
BRANCH   6  15
ATOM     15  C   UNL     1       0.913   9.037  19.787  0.00  0.00    +0.000 C 
ATOM     16  O   UNL     1       0.671   9.415  18.644  0.00  0.00    +0.000 OA
ATOM     17  N   UNL     1       0.360   9.690  20.894  0.00  0.00    +0.000 N 
ATOM     18  C   UNL     1       0.772   9.556  22.283  0.00  0.00    +0.000 C 
ATOM     19  C   UNL     1      -0.547  10.802  20.639  0.00  0.00    +0.000 C 
ENDBRANCH   6  15
BRANCH   1  21
ATOM     20  C   UNL     1       2.586   2.265  17.151  0.00  0.00    +0.000 C 
ATOM     21  C   UNL     1       2.418   1.660  18.546  0.00  0.00    +0.000 C 
ATOM     22  C   UNL     1       3.795   1.084  18.963  0.00  0.00    +0.000 C 
ENDBRANCH   1  21
TORSDOF 2
ENDMDL
MODEL 7
REMARK VINA RESULT:      -6.0      8.612     11.707
REMARK  Name = 
REMARK  6 active torsions:
REMARK  status: ('A' for Active; 'I' for Inactive)
REMARK    1  A    between atoms: C_1  and  C_2
REMARK    2  A    between atoms: C_2  and  C_3
REMARK    3  A    between atoms: C_2  and  N_4
REMARK    4  A    between atoms: C_9  and  C_10
REMARK    5  A    between atoms: N_12  and  C_13
REMARK    6  A    between atoms: N_12  and  C_14
REMARK                            x       y       z     vdW  Elec       q    Type
REMARK                         _______ _______ _______ _____ _____    ______ ____
ROOT
ATOM      1  N   UNL     1       0.712  10.881  20.198  0.00  0.00    +0.000 NA
ATOM      2  C   UNL     1      -0.642  10.452  20.511  0.00  0.00    +0.000 C 
ATOM      3  C   UNL     1      -1.468  11.583  21.050  0.00  0.00    +0.000 C 
ATOM      4  C   UNL     1      -1.725  12.635  19.944  0.00  0.00    +0.000 C 
ATOM      5  C   UNL     1      -2.911  13.406  20.536  0.00  0.00    +0.000 C 
ATOM      6  C   UNL     1      -4.079  12.775  20.233  0.00  0.00    +0.000 C 
ATOM      7  C   UNL     1      -3.788  11.943  19.039  0.00  0.00    +0.000 A 
ATOM      8  C   UNL     1      -4.613  11.186  18.219  0.00  0.00    +0.000 A 
ATOM      9  C   UNL     1      -4.083  10.645  17.041  0.00  0.00    +0.000 A 
ATOM     10  C   UNL     1      -2.755  10.892  16.674  0.00  0.00    +0.000 A 
ATOM     11  C   UNL     1      -1.911  11.591  17.532  0.00  0.00    +0.000 A 
ATOM     12  C   UNL     1      -2.424  12.037  18.746  0.00  0.00    +0.000 A 
ATOM     13  C   UNL     1      -0.363  13.262  19.643  0.00  0.00    +0.000 C 
ATOM     14  C   UNL     1       0.822  12.218  19.573  0.00  0.00    +0.000 C 
ENDROOT
BRANCH   6  15
ATOM     15  C   UNL     1      -5.435  12.821  20.872  0.00  0.00    +0.000 C 
ATOM     16  O   UNL     1      -5.674  12.042  21.791  0.00  0.00    +0.000 OA
ATOM     17  N   UNL     1      -6.344  13.827  20.525  0.00  0.00    +0.000 N 
ATOM     18  C   UNL     1      -6.347  14.619  19.305  0.00  0.00    +0.000 C 
ATOM     19  C   UNL     1      -7.559  13.945  21.322  0.00  0.00    +0.000 C 
ENDBRANCH   6  15
BRANCH   1  21
ATOM     20  C   UNL     1       1.381   8.454  20.229  0.00  0.00    +0.000 C 
ATOM     21  C   UNL     1       1.426   9.786  19.479  0.00  0.00    +0.000 C 
ATOM     22  C   UNL     1       0.859   9.531  18.059  0.00  0.00    +0.000 C 
ENDBRANCH   1  21
TORSDOF 2
ENDMDL
MODEL 8
REMARK VINA RESULT:      -6.0      8.034     11.216
REMARK  Name = 
REMARK  6 active torsions:
REMARK  status: ('A' for Active; 'I' for Inactive)
REMARK    1  A    between atoms: C_1  and  C_2
REMARK    2  A    between atoms: C_2  and  C_3
REMARK    3  A    between atoms: C_2  and  N_4
REMARK    4  A    between atoms: C_9  and  C_10
REMARK    5  A    between atoms: N_12  and  C_13
REMARK    6  A    between atoms: N_12  and  C_14
REMARK                            x       y       z     vdW  Elec       q    Type
REMARK                         _______ _______ _______ _____ _____    ______ ____
ROOT
ATOM      1  N   UNL     1       1.010  10.125  19.726  0.00  0.00    +0.000 NA
ATOM      2  C   UNL     1      -0.304  10.079  20.347  0.00  0.00    +0.000 C 
ATOM      3  C   UNL     1      -0.714  11.425  20.868  0.00  0.00    +0.000 C 
ATOM      4  C   UNL     1      -0.962  12.403  19.694  0.00  0.00    +0.000 C 
ATOM      5  C   UNL     1      -1.785  13.497  20.386  0.00  0.00    +0.000 C 
ATOM      6  C   UNL     1      -3.102  13.153  20.403  0.00  0.00    +0.000 C 
ATOM      7  C   UNL     1      -3.275  12.170  19.305  0.00  0.00    +0.000 A 
ATOM      8  C   UNL     1      -4.408  11.572  18.771  0.00  0.00    +0.000 A 
ATOM      9  C   UNL     1      -4.285  10.811  17.602  0.00  0.00    +0.000 A 
ATOM     10  C   UNL     1      -3.048  10.683  16.959  0.00  0.00    +0.000 A 
ATOM     11  C   UNL     1      -1.902  11.224  17.533  0.00  0.00    +0.000 A 
ATOM     12  C   UNL     1      -2.023  11.893  18.747  0.00  0.00    +0.000 A 
ATOM     13  C   UNL     1       0.407  12.639  19.054  0.00  0.00    +0.000 C 
ATOM     14  C   UNL     1       1.281  11.330  18.909  0.00  0.00    +0.000 C 
ENDROOT
BRANCH   6  15
ATOM     15  C   UNL     1      -4.240  13.595  21.274  0.00  0.00    +0.000 C 
ATOM     16  O   UNL     1      -5.080  14.352  20.796  0.00  0.00    +0.000 OA
ATOM     17  N   UNL     1      -4.413  13.035  22.546  0.00  0.00    +0.000 N 
ATOM     18  C   UNL     1      -3.401  12.374  23.355  0.00  0.00    +0.000 C 
ATOM     19  C   UNL     1      -5.645  13.347  23.259  0.00  0.00    +0.000 C 
ENDBRANCH   6  15
BRANCH   1  21
ATOM     20  C   UNL     1       2.190   8.975  17.823  0.00  0.00    +0.000 C 
ATOM     21  C   UNL     1       1.284   8.826  19.046  0.00  0.00    +0.000 C 
ATOM     22  C   UNL     1       1.950   7.786  19.983  0.00  0.00    +0.000 C 
ENDBRANCH   1  21
TORSDOF 2
ENDMDL
MODEL 9
REMARK VINA RESULT:      -5.9      8.428     11.545
REMARK  Name = 
REMARK  6 active torsions:
REMARK  status: ('A' for Active; 'I' for Inactive)
REMARK    1  A    between atoms: C_1  and  C_2
REMARK    2  A    between atoms: C_2  and  C_3
REMARK    3  A    between atoms: C_2  and  N_4
REMARK    4  A    between atoms: C_9  and  C_10
REMARK    5  A    between atoms: N_12  and  C_13
REMARK    6  A    between atoms: N_12  and  C_14
REMARK                            x       y       z     vdW  Elec       q    Type
REMARK                         _______ _______ _______ _____ _____    ______ ____
ROOT
ATOM      1  N   UNL     1       0.846  10.275  19.774  0.00  0.00    +0.000 NA
ATOM      2  C   UNL     1      -0.500  10.062  20.282  0.00  0.00    +0.000 C 
ATOM      3  C   UNL     1      -1.018  11.277  20.995  0.00  0.00    +0.000 C 
ATOM      4  C   UNL     1      -1.247  12.432  19.990  0.00  0.00    +0.000 C 
ATOM      5  C   UNL     1      -2.172  13.351  20.798  0.00  0.00    +0.000 C 
ATOM      6  C   UNL     1      -3.467  12.950  20.661  0.00  0.00    +0.000 C 
ATOM      7  C   UNL     1      -3.514  12.166  19.402  0.00  0.00    +0.000 A 
ATOM      8  C   UNL     1      -4.575  11.621  18.694  0.00  0.00    +0.000 A 
ATOM      9  C   UNL     1      -4.336  11.081  17.425  0.00  0.00    +0.000 A 
ATOM     10  C   UNL     1      -3.055  11.123  16.859  0.00  0.00    +0.000 A 
ATOM     11  C   UNL     1      -1.980  11.606  17.598  0.00  0.00    +0.000 A 
ATOM     12  C   UNL     1      -2.215  12.048  18.896  0.00  0.00    +0.000 A 
ATOM     13  C   UNL     1       0.144  12.838  19.500  0.00  0.00    +0.000 C 
ATOM     14  C   UNL     1       1.098  11.615  19.196  0.00  0.00    +0.000 C 
ENDROOT
BRANCH   6  15
ATOM     15  C   UNL     1      -4.680  13.182  21.511  0.00  0.00    +0.000 C 
ATOM     16  O   UNL     1      -4.940  12.366  22.391  0.00  0.00    +0.000 OA
ATOM     17  N   UNL     1      -5.404  14.375  21.398  0.00  0.00    +0.000 N 
ATOM     18  C   UNL     1      -5.417  15.284  20.262  0.00  0.00    +0.000 C 
ATOM     19  C   UNL     1      -6.442  14.631  22.387  0.00  0.00    +0.000 C 
ENDBRANCH   6  15
BRANCH   1  21
ATOM     20  C   UNL     1       2.161   9.539  17.758  0.00  0.00    +0.000 C 
ATOM     21  C   UNL     1       1.235   9.128  18.904  0.00  0.00    +0.000 C 
ATOM     22  C   UNL     1       1.950   7.997  19.686  0.00  0.00    +0.000 C 
ENDBRANCH   1  21
TORSDOF 2
ENDMDL
