MODEL 1
REMARK VINA RESULT:      -8.7      0.000      0.000
REMARK  Name = 
REMARK  8 active torsions:
REMARK  status: ('A' for Active; 'I' for Inactive)
REMARK    1  A    between atoms: C_1  and  C_2
REMARK    2  A    between atoms: C_5  and  N_6
REMARK    3  A    between atoms: C_8  and  C_9
REMARK    4  A    between atoms: C_13  and  N_14
REMARK    5  A    between atoms: N_14  and  S_15
REMARK    6  A    between atoms: S_15  and  C_16
REMARK    7  A    between atoms: C_21  and  N_22
REMARK    8  A    between atoms: C_23  and  C_25
REMARK                            x       y       z     vdW  Elec       q    Type
REMARK                         _______ _______ _______ _____ _____    ______ ____
ROOT
ATOM      1  N   UNL     1       0.517   9.958  18.222  0.00  0.00    +0.000 N 
ATOM      2  N   UNL     1       0.767   8.643  18.434  0.00  0.00    +0.000 NA
ATOM      3  C   UNL     1       2.089   8.496  18.299  0.00  0.00    +0.000 A 
ATOM      4  C   UNL     1       2.708   9.752  18.074  0.00  0.00    +0.000 A 
ATOM      5  C   UNL     1       1.695  10.688  18.071  0.00  0.00    +0.000 A 
ENDROOT
BRANCH   1  10
ATOM      6  C   UNL     1      -4.879  11.879  18.022  0.00  0.00    +0.000 C 
ATOM      7  C   UNL     1      -3.466  11.378  18.079  0.00  0.00    +0.000 A 
ATOM      8  C   UNL     1      -2.590  11.807  19.082  0.00  0.00    +0.000 A 
ATOM      9  C   UNL     1      -1.282  11.319  19.136  0.00  0.00    +0.000 A 
ATOM     10  C   UNL     1      -0.825  10.419  18.162  0.00  0.00    +0.000 A 
ATOM     11  C   UNL     1      -1.708   9.965  17.176  0.00  0.00    +0.000 A 
ATOM     12  C   UNL     1      -3.019  10.444  17.138  0.00  0.00    +0.000 A 
ENDBRANCH   1  10
BRANCH   3  13
ATOM     13  C   UNL     1       2.728   7.182  18.426  0.00  0.00    +0.000 A 
ATOM     14  C   UNL     1       2.235   6.231  19.332  0.00  0.00    +0.000 A 
ATOM     15  C   UNL     1       2.817   4.962  19.424  0.00  0.00    +0.000 A 
ATOM     16  C   UNL     1       3.901   4.631  18.607  0.00  0.00    +0.000 A 
ATOM     17  C   UNL     1       4.409   5.574  17.719  0.00  0.00    +0.000 A 
ATOM     18  C   UNL     1       3.829   6.842  17.622  0.00  0.00    +0.000 A 
BRANCH  17  19
ATOM     19  N   UNL     1       5.499   5.195  16.882  0.00  0.00    +0.000 N 
ATOM     20  H   UNL     1       5.368   4.328  16.354  0.00  0.00    +0.000 HD
BRANCH  19  21
ATOM     21  S   UNL     1       7.047   5.188  17.573  0.00  0.00    +0.000 S 
ATOM     22  C   UNL     1       7.455   6.919  17.543  0.00  0.00    +0.000 C 
ATOM     23  O   UNL     1       6.977   4.744  18.945  0.00  0.00    +0.000 OA
ATOM     24  O   UNL     1       7.893   4.519  16.607  0.00  0.00    +0.000 OA
ENDBRANCH  19  21
ENDBRANCH  17  19
ENDBRANCH   3  13
BRANCH   5  25
ATOM     25  N   UNL     1       1.830  12.072  18.010  0.00  0.00    +0.000 N 
ATOM     26  C   UNL     1       1.896  12.933  19.151  0.00  0.00    +0.000 C 
ATOM     27  O   UNL     1       1.826  12.529  20.300  0.00  0.00    +0.000 OA
ATOM     28  H   UNL     1       1.892  12.515  17.088  0.00  0.00    +0.000 HD
BRANCH  26  29
ATOM     29  C   UNL     1       2.162  14.292  18.759  0.00  0.00    +0.000 A 
ATOM     30  C   UNL     1       3.356  14.809  18.220  0.00  0.00    +0.000 A 
ATOM     31  N   UNL     1       3.245  16.080  17.833  0.00  0.00    +0.000 NA
ATOM     32  N   UNL     1       1.952  16.394  18.068  0.00  0.00    +0.000 N 
ATOM     33  C   UNL     1       1.243  17.510  17.641  0.00  0.00    +0.000 A 
ATOM     34  C   UNL     1      -0.052  17.648  17.959  0.00  0.00    +0.000 A 
ATOM     35  C   UNL     1      -0.602  16.591  18.853  0.00  0.00    +0.000 A 
ATOM     36  N   UNL     1       0.009  15.498  19.218  0.00  0.00    +0.000 NA
ATOM     37  C   UNL     1       1.299  15.369  18.765  0.00  0.00    +0.000 A 
ENDBRANCH  26  29
ENDBRANCH   5  25
TORSDOF 6
ENDMDL
MODEL 2
REMARK VINA RESULT:      -8.7      1.680      2.186
REMARK  Name = 
REMARK  8 active torsions:
REMARK  status: ('A' for Active; 'I' for Inactive)
REMARK    1  A    between atoms: C_1  and  C_2
REMARK    2  A    between atoms: C_5  and  N_6
REMARK    3  A    between atoms: C_8  and  C_9
REMARK    4  A    between atoms: C_13  and  N_14
REMARK    5  A    between atoms: N_14  and  S_15
REMARK    6  A    between atoms: S_15  and  C_16
REMARK    7  A    between atoms: C_21  and  N_22
REMARK    8  A    between atoms: C_23  and  C_25
REMARK                            x       y       z     vdW  Elec       q    Type
REMARK                         _______ _______ _______ _____ _____    ______ ____
ROOT
ATOM      1  N   UNL     1       0.803  10.446  19.665  0.00  0.00    +0.000 N 
ATOM      2  N   UNL     1       1.145   9.135  19.670  0.00  0.00    +0.000 NA
ATOM      3  C   UNL     1       1.941   8.961  18.611  0.00  0.00    +0.000 A 
ATOM      4  C   UNL     1       2.178  10.198  17.959  0.00  0.00    +0.000 A 
ATOM      5  C   UNL     1       1.480  11.152  18.671  0.00  0.00    +0.000 A 
ENDROOT
BRANCH   1  10
ATOM      6  C   UNL     1      -3.013  12.378  23.482  0.00  0.00    +0.000 C 
ATOM      7  C   UNL     1      -2.012  11.869  22.486  0.00  0.00    +0.000 A 
ATOM      8  C   UNL     1      -0.982  11.006  22.877  0.00  0.00    +0.000 A 
ATOM      9  C   UNL     1      -0.068  10.524  21.937  0.00  0.00    +0.000 A 
ATOM     10  C   UNL     1      -0.154  10.928  20.597  0.00  0.00    +0.000 A 
ATOM     11  C   UNL     1      -1.201  11.767  20.197  0.00  0.00    +0.000 A 
ATOM     12  C   UNL     1      -2.122  12.233  21.139  0.00  0.00    +0.000 A 
ENDBRANCH   1  10
BRANCH   3  13
ATOM     13  C   UNL     1       2.483   7.642  18.271  0.00  0.00    +0.000 A 
ATOM     14  C   UNL     1       1.818   6.472  18.667  0.00  0.00    +0.000 A 
ATOM     15  C   UNL     1       2.310   5.213  18.307  0.00  0.00    +0.000 A 
ATOM     16  C   UNL     1       3.477   5.111  17.545  0.00  0.00    +0.000 A 
ATOM     17  C   UNL     1       4.155   6.266  17.165  0.00  0.00    +0.000 A 
ATOM     18  C   UNL     1       3.665   7.526  17.519  0.00  0.00    +0.000 A 
BRANCH  17  19
ATOM     19  N   UNL     1       5.327   6.128  16.365  0.00  0.00    +0.000 N 
ATOM     20  H   UNL     1       5.296   5.386  15.662  0.00  0.00    +0.000 HD
BRANCH  19  21
ATOM     21  S   UNL     1       6.816   6.057  17.173  0.00  0.00    +0.000 S 
ATOM     22  C   UNL     1       7.392   4.438  16.711  0.00  0.00    +0.000 C 
ATOM     23  O   UNL     1       7.720   7.048  16.638  0.00  0.00    +0.000 OA
ATOM     24  O   UNL     1       6.485   6.021  18.582  0.00  0.00    +0.000 OA
ENDBRANCH  19  21
ENDBRANCH  17  19
ENDBRANCH   3  13
BRANCH   5  25
ATOM     25  N   UNL     1       1.508  12.530  18.483  0.00  0.00    +0.000 N 
ATOM     26  C   UNL     1       2.053  13.467  19.417  0.00  0.00    +0.000 C 
ATOM     27  O   UNL     1       2.538  13.139  20.487  0.00  0.00    +0.000 OA
ATOM     28  H   UNL     1       1.119  12.911  17.614  0.00  0.00    +0.000 HD
BRANCH  26  29
ATOM     29  C   UNL     1       2.047  14.800  18.876  0.00  0.00    +0.000 A 
ATOM     30  C   UNL     1       3.056  15.418  18.112  0.00  0.00    +0.000 A 
ATOM     31  N   UNL     1       2.695  16.613  17.644  0.00  0.00    +0.000 NA
ATOM     32  N   UNL     1       1.418  16.768  18.056  0.00  0.00    +0.000 N 
ATOM     33  C   UNL     1       0.491  17.723  17.657  0.00  0.00    +0.000 A 
ATOM     34  C   UNL     1      -0.749  17.713  18.166  0.00  0.00    +0.000 A 
ATOM     35  C   UNL     1      -0.994  16.689  19.221  0.00  0.00    +0.000 A 
ATOM     36  N   UNL     1      -0.175  15.737  19.573  0.00  0.00    +0.000 NA
ATOM     37  C   UNL     1       1.039  15.741  18.931  0.00  0.00    +0.000 A 
ENDBRANCH  26  29
ENDBRANCH   5  25
TORSDOF 6
ENDMDL
MODEL 3
REMARK VINA RESULT:      -8.6      2.686      3.228
REMARK  Name = 
REMARK  8 active torsions:
REMARK  status: ('A' for Active; 'I' for Inactive)
REMARK    1  A    between atoms: C_1  and  C_2
REMARK    2  A    between atoms: C_5  and  N_6
REMARK    3  A    between atoms: C_8  and  C_9
REMARK    4  A    between atoms: C_13  and  N_14
REMARK    5  A    between atoms: N_14  and  S_15
REMARK    6  A    between atoms: S_15  and  C_16
REMARK    7  A    between atoms: C_21  and  N_22
REMARK    8  A    between atoms: C_23  and  C_25
REMARK                            x       y       z     vdW  Elec       q    Type
REMARK                         _______ _______ _______ _____ _____    ______ ____
ROOT
ATOM      1  N   UNL     1       0.281  11.074  19.629  0.00  0.00    +0.000 N 
ATOM      2  N   UNL     1       0.549   9.755  19.784  0.00  0.00    +0.000 NA
ATOM      3  C   UNL     1       1.590   9.497  18.987  0.00  0.00    +0.000 A 
ATOM      4  C   UNL     1       2.050  10.688  18.369  0.00  0.00    +0.000 A 
ATOM      5  C   UNL     1       1.231  11.701  18.823  0.00  0.00    +0.000 A 
ENDROOT
BRANCH   1  10
ATOM      6  C   UNL     1      -4.392  13.331  22.062  0.00  0.00    +0.000 C 
ATOM      7  C   UNL     1      -3.170  12.742  21.420  0.00  0.00    +0.000 A 
ATOM      8  C   UNL     1      -3.104  12.553  20.035  0.00  0.00    +0.000 A 
ATOM      9  C   UNL     1      -1.954  12.021  19.448  0.00  0.00    +0.000 A 
ATOM     10  C   UNL     1      -0.866  11.638  20.246  0.00  0.00    +0.000 A 
ATOM     11  C   UNL     1      -0.918  11.854  21.628  0.00  0.00    +0.000 A 
ATOM     12  C   UNL     1      -2.064  12.402  22.208  0.00  0.00    +0.000 A 
ENDBRANCH   1  10
BRANCH   3  13
ATOM     13  C   UNL     1       2.142   8.144  18.865  0.00  0.00    +0.000 A 
ATOM     14  C   UNL     1       2.725   7.715  17.663  0.00  0.00    +0.000 A 
ATOM     15  C   UNL     1       3.291   6.440  17.557  0.00  0.00    +0.000 A 
ATOM     16  C   UNL     1       3.279   5.578  18.657  0.00  0.00    +0.000 A 
ATOM     17  C   UNL     1       2.685   5.987  19.847  0.00  0.00    +0.000 A 
ATOM     18  C   UNL     1       2.122   7.261  19.958  0.00  0.00    +0.000 A 
BRANCH  17  19
ATOM     19  N   UNL     1       2.713   5.093  20.958  0.00  0.00    +0.000 N 
ATOM     20  H   UNL     1       3.645   4.846  21.301  0.00  0.00    +0.000 HD
BRANCH  19  21
ATOM     21  S   UNL     1       1.776   3.685  20.848  0.00  0.00    +0.000 S 
ATOM     22  C   UNL     1       2.782   2.674  19.784  0.00  0.00    +0.000 C 
ATOM     23  O   UNL     1       1.676   3.052  22.143  0.00  0.00    +0.000 OA
ATOM     24  O   UNL     1       0.595   4.068  20.104  0.00  0.00    +0.000 OA
ENDBRANCH  19  21
ENDBRANCH  17  19
ENDBRANCH   3  13
BRANCH   5  25
ATOM     25  N   UNL     1       1.373  13.065  18.588  0.00  0.00    +0.000 N 
ATOM     26  C   UNL     1       2.194  13.943  19.364  0.00  0.00    +0.000 C 
ATOM     27  O   UNL     1       2.846  13.572  20.326  0.00  0.00    +0.000 OA
ATOM     28  H   UNL     1       0.861  13.480  17.802  0.00  0.00    +0.000 HD
BRANCH  26  29
ATOM     29  C   UNL     1       2.227  15.263  18.792  0.00  0.00    +0.000 A 
ATOM     30  C   UNL     1       3.330  15.916  18.210  0.00  0.00    +0.000 A 
ATOM     31  N   UNL     1       3.007  17.081  17.647  0.00  0.00    +0.000 NA
ATOM     32  N   UNL     1       1.669  17.178  17.811  0.00  0.00    +0.000 N 
ATOM     33  C   UNL     1       0.789  18.075  17.219  0.00  0.00    +0.000 A 
ATOM     34  C   UNL     1      -0.522  18.011  17.490  0.00  0.00    +0.000 A 
ATOM     35  C   UNL     1      -0.911  16.998  18.512  0.00  0.00    +0.000 A 
ATOM     36  N   UNL     1      -0.128  16.097  19.037  0.00  0.00    +0.000 NA
ATOM     37  C   UNL     1       1.183  16.151  18.631  0.00  0.00    +0.000 A 
ENDBRANCH  26  29
ENDBRANCH   5  25
TORSDOF 6
ENDMDL
MODEL 4
REMARK VINA RESULT:      -8.6      1.353      1.850
REMARK  Name = 
REMARK  8 active torsions:
REMARK  status: ('A' for Active; 'I' for Inactive)
REMARK    1  A    between atoms: C_1  and  C_2
REMARK    2  A    between atoms: C_5  and  N_6
REMARK    3  A    between atoms: C_8  and  C_9
REMARK    4  A    between atoms: C_13  and  N_14
REMARK    5  A    between atoms: N_14  and  S_15
REMARK    6  A    between atoms: S_15  and  C_16
REMARK    7  A    between atoms: C_21  and  N_22
REMARK    8  A    between atoms: C_23  and  C_25
REMARK                            x       y       z     vdW  Elec       q    Type
REMARK                         _______ _______ _______ _____ _____    ______ ____
ROOT
ATOM      1  N   UNL     1       0.319   9.834  18.037  0.00  0.00    +0.000 N 
ATOM      2  N   UNL     1       0.592   8.510  17.947  0.00  0.00    +0.000 NA
ATOM      3  C   UNL     1       1.925   8.408  17.978  0.00  0.00    +0.000 A 
ATOM      4  C   UNL     1       2.516   9.683  18.171  0.00  0.00    +0.000 A 
ATOM      5  C   UNL     1       1.474  10.584  18.254  0.00  0.00    +0.000 A 
ENDROOT
BRANCH   1  10
ATOM      6  C   UNL     1      -5.066  11.726  17.514  0.00  0.00    +0.000 C 
ATOM      7  C   UNL     1      -3.656  11.232  17.656  0.00  0.00    +0.000 A 
ATOM      8  C   UNL     1      -2.875  11.592  18.760  0.00  0.00    +0.000 A 
ATOM      9  C   UNL     1      -1.570  11.110  18.890  0.00  0.00    +0.000 A 
ATOM     10  C   UNL     1      -1.019  10.289  17.896  0.00  0.00    +0.000 A 
ATOM     11  C   UNL     1      -1.808   9.903  16.806  0.00  0.00    +0.000 A 
ATOM     12  C   UNL     1      -3.117  10.374  16.690  0.00  0.00    +0.000 A 
ENDBRANCH   1  10
BRANCH   3  13
ATOM     13  C   UNL     1       2.595   7.109  17.864  0.00  0.00    +0.000 A 
ATOM     14  C   UNL     1       1.902   5.920  18.137  0.00  0.00    +0.000 A 
ATOM     15  C   UNL     1       2.526   4.678  17.987  0.00  0.00    +0.000 A 
ATOM     16  C   UNL     1       3.855   4.611  17.561  0.00  0.00    +0.000 A 
ATOM     17  C   UNL     1       4.557   5.786  17.307  0.00  0.00    +0.000 A 
ATOM     18  C   UNL     1       3.936   7.030  17.452  0.00  0.00    +0.000 A 
BRANCH  17  19
ATOM     19  N   UNL     1       5.903   5.683  16.848  0.00  0.00    +0.000 N 
ATOM     20  H   UNL     1       6.038   5.128  15.999  0.00  0.00    +0.000 HD
BRANCH  19  21
ATOM     21  S   UNL     1       7.082   5.241  17.984  0.00  0.00    +0.000 S 
ATOM     22  C   UNL     1       7.858   6.807  18.315  0.00  0.00    +0.000 C 
ATOM     23  O   UNL     1       6.453   4.763  19.192  0.00  0.00    +0.000 OA
ATOM     24  O   UNL     1       8.029   4.424  17.254  0.00  0.00    +0.000 OA
ENDBRANCH  19  21
ENDBRANCH  17  19
ENDBRANCH   3  13
BRANCH   5  25
ATOM     25  N   UNL     1       1.557  11.939  18.564  0.00  0.00    +0.000 N 
ATOM     26  C   UNL     1       1.557  12.469  19.893  0.00  0.00    +0.000 C 
ATOM     27  O   UNL     1       1.470  11.774  20.891  0.00  0.00    +0.000 OA
ATOM     28  H   UNL     1       1.629  12.611  17.793  0.00  0.00    +0.000 HD
BRANCH  26  29
ATOM     29  C   UNL     1       1.782  13.891  19.882  0.00  0.00    +0.000 A 
ATOM     30  C   UNL     1       1.130  14.866  20.661  0.00  0.00    +0.000 A 
ATOM     31  N   UNL     1       1.657  16.083  20.520  0.00  0.00    +0.000 NA
ATOM     32  N   UNL     1       2.700  15.905  19.680  0.00  0.00    +0.000 N 
ATOM     33  C   UNL     1       3.725  16.792  19.376  0.00  0.00    +0.000 A 
ATOM     34  C   UNL     1       4.696  16.434  18.524  0.00  0.00    +0.000 A 
ATOM     35  C   UNL     1       4.524  15.096  17.891  0.00  0.00    +0.000 A 
ATOM     36  N   UNL     1       3.617  14.211  18.200  0.00  0.00    +0.000 NA
ATOM     37  C   UNL     1       2.718  14.603  19.161  0.00  0.00    +0.000 A 
ENDBRANCH  26  29
ENDBRANCH   5  25
TORSDOF 6
ENDMDL
MODEL 5
REMARK VINA RESULT:      -8.6      2.010      2.773
REMARK  Name = 
REMARK  8 active torsions:
REMARK  status: ('A' for Active; 'I' for Inactive)
REMARK    1  A    between atoms: C_1  and  C_2
REMARK    2  A    between atoms: C_5  and  N_6
REMARK    3  A    between atoms: C_8  and  C_9
REMARK    4  A    between atoms: C_13  and  N_14
REMARK    5  A    between atoms: N_14  and  S_15
REMARK    6  A    between atoms: S_15  and  C_16
REMARK    7  A    between atoms: C_21  and  N_22
REMARK    8  A    between atoms: C_23  and  C_25
REMARK                            x       y       z     vdW  Elec       q    Type
REMARK                         _______ _______ _______ _____ _____    ______ ____
ROOT
ATOM      1  N   UNL     1       0.216  10.233  18.275  0.00  0.00    +0.000 N 
ATOM      2  N   UNL     1       0.522   8.933  18.509  0.00  0.00    +0.000 NA
ATOM      3  C   UNL     1       1.854   8.853  18.438  0.00  0.00    +0.000 A 
ATOM      4  C   UNL     1       2.419  10.138  18.232  0.00  0.00    +0.000 A 
ATOM      5  C   UNL     1       1.361  11.022  18.175  0.00  0.00    +0.000 A 
ENDROOT
BRANCH   1  10
ATOM      6  C   UNL     1      -5.282  11.756  17.724  0.00  0.00    +0.000 C 
ATOM      7  C   UNL     1      -3.843  11.355  17.864  0.00  0.00    +0.000 A 
ATOM      8  C   UNL     1      -3.251  10.470  16.956  0.00  0.00    +0.000 A 
ATOM      9  C   UNL     1      -1.905  10.119  17.086  0.00  0.00    +0.000 A 
ATOM     10  C   UNL     1      -1.143  10.625  18.148  0.00  0.00    +0.000 A 
ATOM     11  C   UNL     1      -1.724  11.534  19.040  0.00  0.00    +0.000 A 
ATOM     12  C   UNL     1      -3.066  11.894  18.895  0.00  0.00    +0.000 A 
ENDBRANCH   1  10
BRANCH   3  13
ATOM     13  C   UNL     1       2.553   7.574  18.605  0.00  0.00    +0.000 A 
ATOM     14  C   UNL     1       3.490   7.143  17.655  0.00  0.00    +0.000 A 
ATOM     15  C   UNL     1       4.190   5.944  17.833  0.00  0.00    +0.000 A 
ATOM     16  C   UNL     1       3.957   5.163  18.968  0.00  0.00    +0.000 A 
ATOM     17  C   UNL     1       3.014   5.573  19.906  0.00  0.00    +0.000 A 
ATOM     18  C   UNL     1       2.316   6.771  19.733  0.00  0.00    +0.000 A 
BRANCH  17  19
ATOM     19  N   UNL     1       2.819   4.767  21.065  0.00  0.00    +0.000 N 
ATOM     20  H   UNL     1       3.599   4.752  21.728  0.00  0.00    +0.000 HD
BRANCH  19  21
ATOM     21  S   UNL     1       2.272   3.180  20.827  0.00  0.00    +0.000 S 
ATOM     22  C   UNL     1       0.839   3.449  19.809  0.00  0.00    +0.000 C 
ATOM     23  O   UNL     1       3.248   2.424  20.078  0.00  0.00    +0.000 OA
ATOM     24  O   UNL     1       1.812   2.736  22.127  0.00  0.00    +0.000 OA
ENDBRANCH  19  21
ENDBRANCH  17  19
ENDBRANCH   3  13
BRANCH   5  25
ATOM     25  N   UNL     1       1.429  12.410  18.109  0.00  0.00    +0.000 N 
ATOM     26  C   UNL     1       1.585  13.270  19.242  0.00  0.00    +0.000 C 
ATOM     27  O   UNL     1       1.662  12.860  20.389  0.00  0.00    +0.000 OA
ATOM     28  H   UNL     1       1.368  12.858  17.189  0.00  0.00    +0.000 HD
BRANCH  26  29
ATOM     29  C   UNL     1       1.747  14.640  18.834  0.00  0.00    +0.000 A 
ATOM     30  C   UNL     1       2.862  15.217  18.194  0.00  0.00    +0.000 A 
ATOM     31  N   UNL     1       2.653  16.480  17.823  0.00  0.00    +0.000 NA
ATOM     32  N   UNL     1       1.371  16.728  18.170  0.00  0.00    +0.000 N 
ATOM     33  C   UNL     1       0.572  17.807  17.811  0.00  0.00    +0.000 A 
ATOM     34  C   UNL     1      -0.695  17.879  18.241  0.00  0.00    +0.000 A 
ATOM     35  C   UNL     1      -1.111  16.796  19.176  0.00  0.00    +0.000 A 
ATOM     36  N   UNL     1      -0.416  15.736  19.482  0.00  0.00    +0.000 NA
ATOM     37  C   UNL     1       0.834  15.672  18.918  0.00  0.00    +0.000 A 
ENDBRANCH  26  29
ENDBRANCH   5  25
TORSDOF 6
ENDMDL
MODEL 6
REMARK VINA RESULT:      -8.6      0.853      1.033
REMARK  Name = 
REMARK  8 active torsions:
REMARK  status: ('A' for Active; 'I' for Inactive)
REMARK    1  A    between atoms: C_1  and  C_2
REMARK    2  A    between atoms: C_5  and  N_6
REMARK    3  A    between atoms: C_8  and  C_9
REMARK    4  A    between atoms: C_13  and  N_14
REMARK    5  A    between atoms: N_14  and  S_15
REMARK    6  A    between atoms: S_15  and  C_16
REMARK    7  A    between atoms: C_21  and  N_22
REMARK    8  A    between atoms: C_23  and  C_25
REMARK                            x       y       z     vdW  Elec       q    Type
REMARK                         _______ _______ _______ _____ _____    ______ ____
ROOT
ATOM      1  N   UNL     1       0.324  10.252  18.210  0.00  0.00    +0.000 N 
ATOM      2  N   UNL     1       0.659   8.955  18.409  0.00  0.00    +0.000 NA
ATOM      3  C   UNL     1       1.990   8.899  18.296  0.00  0.00    +0.000 A 
ATOM      4  C   UNL     1       2.527  10.197  18.100  0.00  0.00    +0.000 A 
ATOM      5  C   UNL     1       1.452  11.063  18.092  0.00  0.00    +0.000 A 
ENDROOT
BRANCH   1  10
ATOM      6  C   UNL     1      -5.185  11.809  17.933  0.00  0.00    +0.000 C 
ATOM      7  C   UNL     1      -3.743  11.404  18.010  0.00  0.00    +0.000 A 
ATOM      8  C   UNL     1      -2.904  11.914  19.007  0.00  0.00    +0.000 A 
ATOM      9  C   UNL     1      -1.567  11.514  19.079  0.00  0.00    +0.000 A 
ATOM     10  C   UNL     1      -1.044  10.623  18.131  0.00  0.00    +0.000 A 
ATOM     11  C   UNL     1      -1.888  10.088  17.151  0.00  0.00    +0.000 A 
ATOM     12  C   UNL     1      -3.228  10.479  17.094  0.00  0.00    +0.000 A 
ENDBRANCH   1  10
BRANCH   3  13
ATOM     13  C   UNL     1       2.715   7.630  18.417  0.00  0.00    +0.000 A 
ATOM     14  C   UNL     1       2.481   6.774  19.503  0.00  0.00    +0.000 A 
ATOM     15  C   UNL     1       3.139   5.543  19.598  0.00  0.00    +0.000 A 
ATOM     16  C   UNL     1       4.041   5.155  18.604  0.00  0.00    +0.000 A 
ATOM     17  C   UNL     1       4.295   6.007  17.533  0.00  0.00    +0.000 A 
ATOM     18  C   UNL     1       3.637   7.236  17.432  0.00  0.00    +0.000 A 
BRANCH  17  19
ATOM     19  N   UNL     1       5.201   5.571  16.522  0.00  0.00    +0.000 N 
ATOM     20  H   UNL     1       5.115   4.588  16.249  0.00  0.00    +0.000 HD
BRANCH  19  21
ATOM     21  S   UNL     1       6.841   5.941  16.733  0.00  0.00    +0.000 S 
ATOM     22  C   UNL     1       7.395   4.554  17.700  0.00  0.00    +0.000 C 
ATOM     23  O   UNL     1       7.522   5.930  15.460  0.00  0.00    +0.000 OA
ATOM     24  O   UNL     1       6.862   7.110  17.588  0.00  0.00    +0.000 OA
ENDBRANCH  19  21
ENDBRANCH  17  19
ENDBRANCH   3  13
BRANCH   5  25
ATOM     25  N   UNL     1       1.494  12.454  18.052  0.00  0.00    +0.000 N 
ATOM     26  C   UNL     1       1.758  13.291  19.182  0.00  0.00    +0.000 C 
ATOM     27  O   UNL     1       1.961  12.857  20.304  0.00  0.00    +0.000 OA
ATOM     28  H   UNL     1       1.331  12.921  17.154  0.00  0.00    +0.000 HD
BRANCH  26  29
ATOM     29  C   UNL     1       1.857  14.672  18.790  0.00  0.00    +0.000 A 
ATOM     30  C   UNL     1       2.946  15.307  18.161  0.00  0.00    +0.000 A 
ATOM     31  N   UNL     1       2.680  16.564  17.805  0.00  0.00    +0.000 NA
ATOM     32  N   UNL     1       1.387  16.749  18.152  0.00  0.00    +0.000 N 
ATOM     33  C   UNL     1       0.540  17.794  17.804  0.00  0.00    +0.000 A 
ATOM     34  C   UNL     1      -0.730  17.803  18.232  0.00  0.00    +0.000 A 
ATOM     35  C   UNL     1      -1.098  16.690  19.152  0.00  0.00    +0.000 A 
ATOM     36  N   UNL     1      -0.355  15.659  19.447  0.00  0.00    +0.000 NA
ATOM     37  C   UNL     1       0.898  15.660  18.886  0.00  0.00    +0.000 A 
ENDBRANCH  26  29
ENDBRANCH   5  25
TORSDOF 6
ENDMDL
MODEL 7
REMARK VINA RESULT:      -8.5      3.917      5.667
REMARK  Name = 
REMARK  8 active torsions:
REMARK  status: ('A' for Active; 'I' for Inactive)
REMARK    1  A    between atoms: C_1  and  C_2
REMARK    2  A    between atoms: C_5  and  N_6
REMARK    3  A    between atoms: C_8  and  C_9
REMARK    4  A    between atoms: C_13  and  N_14
REMARK    5  A    between atoms: N_14  and  S_15
REMARK    6  A    between atoms: S_15  and  C_16
REMARK    7  A    between atoms: C_21  and  N_22
REMARK    8  A    between atoms: C_23  and  C_25
REMARK                            x       y       z     vdW  Elec       q    Type
REMARK                         _______ _______ _______ _____ _____    ______ ____
ROOT
ATOM      1  N   UNL     1       0.775  11.677  19.739  0.00  0.00    +0.000 N 
ATOM      2  N   UNL     1       1.449  10.711  19.070  0.00  0.00    +0.000 NA
ATOM      3  C   UNL     1       1.191   9.570  19.717  0.00  0.00    +0.000 A 
ATOM      4  C   UNL     1       0.273   9.796  20.774  0.00  0.00    +0.000 A 
ATOM      5  C   UNL     1      -0.023  11.143  20.750  0.00  0.00    +0.000 A 
ENDROOT
BRANCH   1  10
ATOM      6  C   UNL     1       1.415  17.186  18.291  0.00  0.00    +0.000 C 
ATOM      7  C   UNL     1       1.243  15.744  18.668  0.00  0.00    +0.000 A 
ATOM      8  C   UNL     1      -0.020  15.142  18.651  0.00  0.00    +0.000 A 
ATOM      9  C   UNL     1      -0.165  13.793  18.986  0.00  0.00    +0.000 A 
ATOM     10  C   UNL     1       0.951  13.039  19.376  0.00  0.00    +0.000 A 
ATOM     11  C   UNL     1       2.220  13.631  19.365  0.00  0.00    +0.000 A 
ATOM     12  C   UNL     1       2.360  14.975  19.013  0.00  0.00    +0.000 A 
ENDBRANCH   1  10
BRANCH   3  13
ATOM     13  C   UNL     1       1.789   8.300  19.295  0.00  0.00    +0.000 A 
ATOM     14  C   UNL     1       2.151   8.090  17.956  0.00  0.00    +0.000 A 
ATOM     15  C   UNL     1       2.761   6.896  17.558  0.00  0.00    +0.000 A 
ATOM     16  C   UNL     1       3.015   5.895  18.499  0.00  0.00    +0.000 A 
ATOM     17  C   UNL     1       2.642   6.086  19.827  0.00  0.00    +0.000 A 
ATOM     18  C   UNL     1       2.035   7.279  20.229  0.00  0.00    +0.000 A 
BRANCH  17  19
ATOM     19  N   UNL     1       2.939   5.056  20.767  0.00  0.00    +0.000 N 
ATOM     20  H   UNL     1       3.904   4.715  20.755  0.00  0.00    +0.000 HD
BRANCH  19  21
ATOM     21  S   UNL     1       1.888   3.728  20.827  0.00  0.00    +0.000 S 
ATOM     22  C   UNL     1       2.644   2.625  19.655  0.00  0.00    +0.000 C 
ATOM     23  O   UNL     1       1.926   3.123  22.138  0.00  0.00    +0.000 OA
ATOM     24  O   UNL     1       0.645   4.199  20.251  0.00  0.00    +0.000 OA
ENDBRANCH  19  21
ENDBRANCH  17  19
ENDBRANCH   3  13
BRANCH   5  25
ATOM     25  N   UNL     1      -0.972  11.810  21.519  0.00  0.00    +0.000 N 
ATOM     26  C   UNL     1      -1.289  11.487  22.877  0.00  0.00    +0.000 C 
ATOM     27  O   UNL     1      -0.758  10.576  23.490  0.00  0.00    +0.000 OA
ATOM     28  H   UNL     1      -1.481  12.592  21.095  0.00  0.00    +0.000 HD
BRANCH  26  29
ATOM     29  C   UNL     1      -2.216  12.438  23.432  0.00  0.00    +0.000 A 
ATOM     30  C   UNL     1      -3.561  12.216  23.786  0.00  0.00    +0.000 A 
ATOM     31  N   UNL     1      -4.117  13.260  24.401  0.00  0.00    +0.000 NA
ATOM     32  N   UNL     1      -3.118  14.164  24.503  0.00  0.00    +0.000 N 
ATOM     33  C   UNL     1      -3.083  15.331  25.257  0.00  0.00    +0.000 A 
ATOM     34  C   UNL     1      -1.989  16.106  25.249  0.00  0.00    +0.000 A 
ATOM     35  C   UNL     1      -0.907  15.667  24.324  0.00  0.00    +0.000 A 
ATOM     36  N   UNL     1      -0.874  14.547  23.655  0.00  0.00    +0.000 NA
ATOM     37  C   UNL     1      -1.982  13.749  23.795  0.00  0.00    +0.000 A 
ENDBRANCH  26  29
ENDBRANCH   5  25
TORSDOF 6
ENDMDL
MODEL 8
REMARK VINA RESULT:      -8.5      3.460      5.939
REMARK  Name = 
REMARK  8 active torsions:
REMARK  status: ('A' for Active; 'I' for Inactive)
REMARK    1  A    between atoms: C_1  and  C_2
REMARK    2  A    between atoms: C_5  and  N_6
REMARK    3  A    between atoms: C_8  and  C_9
REMARK    4  A    between atoms: C_13  and  N_14
REMARK    5  A    between atoms: N_14  and  S_15
REMARK    6  A    between atoms: S_15  and  C_16
REMARK    7  A    between atoms: C_21  and  N_22
REMARK    8  A    between atoms: C_23  and  C_25
REMARK                            x       y       z     vdW  Elec       q    Type
REMARK                         _______ _______ _______ _____ _____    ______ ____
ROOT
ATOM      1  N   UNL     1       0.474  12.132  19.400  0.00  0.00    +0.000 N 
ATOM      2  N   UNL     1       1.365  11.236  18.910  0.00  0.00    +0.000 NA
ATOM      3  C   UNL     1       0.951  10.039  19.337  0.00  0.00    +0.000 A 
ATOM      4  C   UNL     1      -0.271  10.160  20.047  0.00  0.00    +0.000 A 
ATOM      5  C   UNL     1      -0.591  11.502  20.042  0.00  0.00    +0.000 A 
ENDROOT
BRANCH   1  10
ATOM      6  C   UNL     1       1.498  17.732  18.728  0.00  0.00    +0.000 C 
ATOM      7  C   UNL     1       1.234  16.266  18.907  0.00  0.00    +0.000 A 
ATOM      8  C   UNL     1       2.221  15.413  19.414  0.00  0.00    +0.000 A 
ATOM      9  C   UNL     1       1.957  14.053  19.593  0.00  0.00    +0.000 A 
ATOM     10  C   UNL     1       0.710  13.523  19.234  0.00  0.00    +0.000 A 
ATOM     11  C   UNL     1      -0.289  14.378  18.754  0.00  0.00    +0.000 A 
ATOM     12  C   UNL     1      -0.024  15.740  18.593  0.00  0.00    +0.000 A 
ENDBRANCH   1  10
BRANCH   3  13
ATOM     13  C   UNL     1       1.700   8.817  19.027  0.00  0.00    +0.000 A 
ATOM     14  C   UNL     1       2.361   8.675  17.798  0.00  0.00    +0.000 A 
ATOM     15  C   UNL     1       3.112   7.528  17.518  0.00  0.00    +0.000 A 
ATOM     16  C   UNL     1       3.209   6.509  18.468  0.00  0.00    +0.000 A 
ATOM     17  C   UNL     1       2.540   6.631  19.682  0.00  0.00    +0.000 A 
ATOM     18  C   UNL     1       1.792   7.777  19.968  0.00  0.00    +0.000 A 
BRANCH  17  19
ATOM     19  N   UNL     1       2.681   5.585  20.640  0.00  0.00    +0.000 N 
ATOM     20  H   UNL     1       3.566   5.574  21.154  0.00  0.00    +0.000 HD
BRANCH  19  21
ATOM     21  S   UNL     1       2.324   4.008  20.130  0.00  0.00    +0.000 S 
ATOM     22  C   UNL     1       1.965   3.208  21.678  0.00  0.00    +0.000 C 
ATOM     23  O   UNL     1       1.134   4.008  19.312  0.00  0.00    +0.000 OA
ATOM     24  O   UNL     1       3.576   3.473  19.637  0.00  0.00    +0.000 OA
ENDBRANCH  19  21
ENDBRANCH  17  19
ENDBRANCH   3  13
BRANCH   5  25
ATOM     25  N   UNL     1      -1.763  12.089  20.510  0.00  0.00    +0.000 N 
ATOM     26  C   UNL     1      -2.968  12.216  19.748  0.00  0.00    +0.000 C 
ATOM     27  O   UNL     1      -3.076  11.827  18.597  0.00  0.00    +0.000 OA
ATOM     28  H   UNL     1      -1.777  12.454  21.467  0.00  0.00    +0.000 HD
BRANCH  26  29
ATOM     29  C   UNL     1      -4.034  12.750  20.552  0.00  0.00    +0.000 A 
ATOM     30  C   UNL     1      -5.249  13.305  20.104  0.00  0.00    +0.000 A 
ATOM     31  N   UNL     1      -6.090  13.588  21.099  0.00  0.00    +0.000 NA
ATOM     32  N   UNL     1      -5.451  13.169  22.214  0.00  0.00    +0.000 N 
ATOM     33  C   UNL     1      -5.961  13.015  23.497  0.00  0.00    +0.000 A 
ATOM     34  C   UNL     1      -5.176  12.567  24.486  0.00  0.00    +0.000 A 
ATOM     35  C   UNL     1      -3.747  12.356  24.116  0.00  0.00    +0.000 A 
ATOM     36  N   UNL     1      -3.247  12.424  22.913  0.00  0.00    +0.000 NA
ATOM     37  C   UNL     1      -4.134  12.782  21.929  0.00  0.00    +0.000 A 
ENDBRANCH  26  29
ENDBRANCH   5  25
TORSDOF 6
ENDMDL
MODEL 9
REMARK VINA RESULT:      -8.5      3.572      5.461
REMARK  Name = 
REMARK  8 active torsions:
REMARK  status: ('A' for Active; 'I' for Inactive)
REMARK    1  A    between atoms: C_1  and  C_2
REMARK    2  A    between atoms: C_5  and  N_6
REMARK    3  A    between atoms: C_8  and  C_9
REMARK    4  A    between atoms: C_13  and  N_14
REMARK    5  A    between atoms: N_14  and  S_15
REMARK    6  A    between atoms: S_15  and  C_16
REMARK    7  A    between atoms: C_21  and  N_22
REMARK    8  A    between atoms: C_23  and  C_25
REMARK                            x       y       z     vdW  Elec       q    Type
REMARK                         _______ _______ _______ _____ _____    ______ ____
ROOT
ATOM      1  N   UNL     1       0.592  11.611  19.666  0.00  0.00    +0.000 N 
ATOM      2  N   UNL     1       1.398  10.699  19.070  0.00  0.00    +0.000 NA
ATOM      3  C   UNL     1       1.083   9.520  19.616  0.00  0.00    +0.000 A 
ATOM      4  C   UNL     1       0.001   9.666  20.522  0.00  0.00    +0.000 A 
ATOM      5  C   UNL     1      -0.336  11.004  20.512  0.00  0.00    +0.000 A 
ENDROOT
BRANCH   1  10
ATOM      6  C   UNL     1       1.254  17.201  18.585  0.00  0.00    +0.000 C 
ATOM      7  C   UNL     1       1.076  15.738  18.866  0.00  0.00    +0.000 A 
ATOM      8  C   UNL     1      -0.120  15.084  18.551  0.00  0.00    +0.000 A 
ATOM      9  C   UNL     1      -0.266  13.717  18.799  0.00  0.00    +0.000 A 
ATOM     10  C   UNL     1       0.774  12.994  19.399  0.00  0.00    +0.000 A 
ATOM     11  C   UNL     1       1.983  13.638  19.687  0.00  0.00    +0.000 A 
ATOM     12  C   UNL     1       2.129  15.001  19.421  0.00  0.00    +0.000 A 
ENDBRANCH   1  10
BRANCH   3  13
ATOM     13  C   UNL     1       1.785   8.290  19.237  0.00  0.00    +0.000 A 
ATOM     14  C   UNL     1       2.275   8.119  17.934  0.00  0.00    +0.000 A 
ATOM     15  C   UNL     1       2.983   6.965  17.581  0.00  0.00    +0.000 A 
ATOM     16  C   UNL     1       3.209   5.968  18.533  0.00  0.00    +0.000 A 
ATOM     17  C   UNL     1       2.709   6.119  19.823  0.00  0.00    +0.000 A 
ATOM     18  C   UNL     1       2.004   7.272  20.180  0.00  0.00    +0.000 A 
BRANCH  17  19
ATOM     19  N   UNL     1       2.979   5.095  20.777  0.00  0.00    +0.000 N 
ATOM     20  H   UNL     1       3.939   4.739  20.781  0.00  0.00    +0.000 HD
BRANCH  19  21
ATOM     21  S   UNL     1       1.908   3.782  20.835  0.00  0.00    +0.000 S 
ATOM     22  C   UNL     1       2.630   2.683  19.638  0.00  0.00    +0.000 C 
ATOM     23  O   UNL     1       1.956   3.159  22.137  0.00  0.00    +0.000 OA
ATOM     24  O   UNL     1       0.665   4.279  20.284  0.00  0.00    +0.000 OA
ENDBRANCH  19  21
ENDBRANCH  17  19
ENDBRANCH   3  13
BRANCH   5  25
ATOM     25  N   UNL     1      -1.418  11.604  21.149  0.00  0.00    +0.000 N 
ATOM     26  C   UNL     1      -1.540  11.761  22.566  0.00  0.00    +0.000 C 
ATOM     27  O   UNL     1      -0.701  11.367  23.359  0.00  0.00    +0.000 OA
ATOM     28  H   UNL     1      -2.183  11.966  20.572  0.00  0.00    +0.000 HD
BRANCH  26  29
ATOM     29  C   UNL     1      -2.709  12.530  22.902  0.00  0.00    +0.000 A 
ATOM     30  C   UNL     1      -3.596  12.316  23.975  0.00  0.00    +0.000 A 
ATOM     31  N   UNL     1      -4.507  13.281  24.099  0.00  0.00    +0.000 NA
ATOM     32  N   UNL     1      -4.190  14.172  23.133  0.00  0.00    +0.000 N 
ATOM     33  C   UNL     1      -4.668  15.465  22.960  0.00  0.00    +0.000 A 
ATOM     34  C   UNL     1      -4.224  16.217  21.944  0.00  0.00    +0.000 A 
ATOM     35  C   UNL     1      -3.290  15.531  21.007  0.00  0.00    +0.000 A 
ATOM     36  N   UNL     1      -2.769  14.347  21.171  0.00  0.00    +0.000 NA
ATOM     37  C   UNL     1      -3.184  13.674  22.293  0.00  0.00    +0.000 A 
ENDBRANCH  26  29
ENDBRANCH   5  25
TORSDOF 6
ENDMDL
