MODEL 1
REMARK VINA RESULT:      -7.0      0.000      0.000
REMARK  Name = 
REMARK  12 active torsions:
REMARK  status: ('A' for Active; 'I' for Inactive)
REMARK    1  A    between atoms: C_1  and  O_2
REMARK    2  A    between atoms: O_2  and  C_3
REMARK    3  A    between atoms: C_3  and  C_4
REMARK    4  A    between atoms: C_4  and  N_5
REMARK    5  A    between atoms: C_8  and  O_9
REMARK    6  A    between atoms: C_10  and  C_11
REMARK    7  A    between atoms: C_11  and  C_13
REMARK    8  A    between atoms: C_19  and  C_20
REMARK    9  A    between atoms: C_22  and  O_23
REMARK   10  A    between atoms: O_23  and  C_24
REMARK   11  A    between atoms: C_27  and  O_28
REMARK   12  A    between atoms: O_28  and  C_29
REMARK                            x       y       z     vdW  Elec       q    Type
REMARK                         _______ _______ _______ _____ _____    ______ ____
ROOT
ATOM      1  N   UNL     1       6.489   5.528  17.932  0.00  0.00    +0.000 N 
ATOM      2  C   UNL     1       6.896   4.597  17.005  0.00  0.00    +0.000 C 
ATOM      3  O   UNL     1       7.951   4.497  16.405  0.00  0.00    +0.000 OA
ATOM      4  C   UNL     1       5.792   3.642  16.831  0.00  0.00    +0.000 C 
ATOM      5  C   UNL     1       4.847   3.935  17.735  0.00  0.00    +0.000 C 
ATOM      6  C   UNL     1       5.219   5.156  18.558  0.00  0.00    +0.000 C 
ENDROOT
BRANCH   6   7
ATOM      7  C   UNL     1       4.231   6.312  18.555  0.00  0.00    +0.000 A 
ATOM      8  C   UNL     1       3.311   6.358  19.639  0.00  0.00    +0.000 A 
ATOM      9  C   UNL     1       2.264   7.274  19.712  0.00  0.00    +0.000 A 
ATOM     10  C   UNL     1       2.119   8.215  18.711  0.00  0.00    +0.000 A 
ATOM     11  C   UNL     1       3.008   8.203  17.639  0.00  0.00    +0.000 A 
ATOM     12  C   UNL     1       4.059   7.267  17.531  0.00  0.00    +0.000 A 
BRANCH   9  13
ATOM     13  O   UNL     1       1.458   7.164  20.808  0.00  0.00    +0.000 OA
ATOM     14  C   UNL     1       0.875   8.388  21.239  0.00  0.00    +0.000 C 
ENDBRANCH   9  13
BRANCH  12  15
ATOM     15  O   UNL     1       4.702   7.478  16.348  0.00  0.00    +0.000 OA
ATOM     16  C   UNL     1       4.687   6.601  15.247  0.00  0.00    +0.000 C 
ENDBRANCH  12  15
ENDBRANCH   6   7
BRANCH   4  17
ATOM     17  O   UNL     1       5.811   2.694  15.851  0.00  0.00    +0.000 OA
ATOM     18  H   UNL     1       4.872   2.524  15.632  0.00  0.00    +0.000 HD
ENDBRANCH   4  17
BRANCH   5  19
ATOM     19  C   UNL     1       3.550   3.212  17.721  0.00  0.00    +0.000 C 
ATOM     20  O   UNL     1       3.095   2.751  16.675  0.00  0.00    +0.000 OA
BRANCH  19  21
ATOM     21  C   UNL     1       2.719   3.073  18.947  0.00  0.00    +0.000 A 
ATOM     22  C   UNL     1       3.366   2.671  20.127  0.00  0.00    +0.000 A 
ATOM     23  C   UNL     1       2.653   2.537  21.320  0.00  0.00    +0.000 A 
ATOM     24  C   UNL     1       1.287   2.788  21.341  0.00  0.00    +0.000 A 
ATOM     25  C   UNL     1       0.639   3.214  20.180  0.00  0.00    +0.000 A 
ATOM     26  C   UNL     1       1.358   3.383  18.992  0.00  0.00    +0.000 A 
ENDBRANCH  19  21
ENDBRANCH   5  19
BRANCH   1  27
ATOM     27  C   UNL     1       7.355   6.591  18.441  0.00  0.00    +0.000 C 
BRANCH  27  28
ATOM     28  C   UNL     1       7.813   7.614  17.396  0.00  0.00    +0.000 C 
BRANCH  28  30
ATOM     29  C   UNL     1       8.602   9.653  18.266  0.00  0.00    +0.000 C 
ATOM     30  O   UNL     1       7.462   8.930  17.827  0.00  0.00    +0.000 OA
ENDBRANCH  28  30
ENDBRANCH  27  28
ENDBRANCH   1  27
TORSDOF 9
ENDMDL
MODEL 2
REMARK VINA RESULT:      -6.7      2.253      5.918
REMARK  Name = 
REMARK  12 active torsions:
REMARK  status: ('A' for Active; 'I' for Inactive)
REMARK    1  A    between atoms: C_1  and  O_2
REMARK    2  A    between atoms: O_2  and  C_3
REMARK    3  A    between atoms: C_3  and  C_4
REMARK    4  A    between atoms: C_4  and  N_5
REMARK    5  A    between atoms: C_8  and  O_9
REMARK    6  A    between atoms: C_10  and  C_11
REMARK    7  A    between atoms: C_11  and  C_13
REMARK    8  A    between atoms: C_19  and  C_20
REMARK    9  A    between atoms: C_22  and  O_23
REMARK   10  A    between atoms: O_23  and  C_24
REMARK   11  A    between atoms: C_27  and  O_28
REMARK   12  A    between atoms: O_28  and  C_29
REMARK                            x       y       z     vdW  Elec       q    Type
REMARK                         _______ _______ _______ _____ _____    ______ ____
ROOT
ATOM      1  N   UNL     1       3.223   5.904  17.834  0.00  0.00    +0.000 N 
ATOM      2  C   UNL     1       2.391   4.811  17.770  0.00  0.00    +0.000 C 
ATOM      3  O   UNL     1       1.269   4.653  18.214  0.00  0.00    +0.000 OA
ATOM      4  C   UNL     1       3.097   3.768  17.011  0.00  0.00    +0.000 C 
ATOM      5  C   UNL     1       4.230   4.302  16.533  0.00  0.00    +0.000 C 
ATOM      6  C   UNL     1       4.406   5.740  16.986  0.00  0.00    +0.000 C 
ENDROOT
BRANCH   6   7
ATOM      7  C   UNL     1       5.686   6.072  17.737  0.00  0.00    +0.000 A 
ATOM      8  C   UNL     1       6.355   7.265  17.345  0.00  0.00    +0.000 A 
ATOM      9  C   UNL     1       7.601   7.639  17.844  0.00  0.00    +0.000 A 
ATOM     10  C   UNL     1       8.216   6.843  18.792  0.00  0.00    +0.000 A 
ATOM     11  C   UNL     1       7.583   5.672  19.203  0.00  0.00    +0.000 A 
ATOM     12  C   UNL     1       6.333   5.262  18.692  0.00  0.00    +0.000 A 
BRANCH   9  13
ATOM     13  O   UNL     1       8.114   8.800  17.343  0.00  0.00    +0.000 OA
ATOM     14  C   UNL     1       8.644   9.684  18.323  0.00  0.00    +0.000 C 
ENDBRANCH   9  13
BRANCH  12  15
ATOM     15  O   UNL     1       6.020   4.054  19.242  0.00  0.00    +0.000 OA
ATOM     16  C   UNL     1       4.877   3.787  20.020  0.00  0.00    +0.000 C 
ENDBRANCH  12  15
ENDBRANCH   6   7
BRANCH   4  17
ATOM     17  O   UNL     1       2.613   2.496  16.917  0.00  0.00    +0.000 OA
ATOM     18  H   UNL     1       2.852   2.190  16.018  0.00  0.00    +0.000 HD
ENDBRANCH   4  17
BRANCH   5  19
ATOM     19  C   UNL     1       5.216   3.448  15.823  0.00  0.00    +0.000 C 
ATOM     20  O   UNL     1       5.487   2.320  16.234  0.00  0.00    +0.000 OA
BRANCH  19  21
ATOM     21  C   UNL     1       5.964   3.940  14.635  0.00  0.00    +0.000 A 
ATOM     22  C   UNL     1       5.534   3.504  13.371  0.00  0.00    +0.000 A 
ATOM     23  C   UNL     1       6.176   3.938  12.211  0.00  0.00    +0.000 A 
ATOM     24  C   UNL     1       7.262   4.799  12.303  0.00  0.00    +0.000 A 
ATOM     25  C   UNL     1       7.681   5.262  13.553  0.00  0.00    +0.000 A 
ATOM     26  C   UNL     1       7.017   4.855  14.714  0.00  0.00    +0.000 A 
ENDBRANCH  19  21
ENDBRANCH   5  19
BRANCH   1  27
ATOM     27  C   UNL     1       2.833   7.181  18.430  0.00  0.00    +0.000 C 
BRANCH  27  28
ATOM     28  C   UNL     1       2.555   8.309  17.430  0.00  0.00    +0.000 C 
BRANCH  28  30
ATOM     29  C   UNL     1       1.501  10.200  18.349  0.00  0.00    +0.000 C 
ATOM     30  O   UNL     1       1.308   8.931  17.744  0.00  0.00    +0.000 OA
ENDBRANCH  28  30
ENDBRANCH  27  28
ENDBRANCH   1  27
TORSDOF 9
ENDMDL
MODEL 3
REMARK VINA RESULT:      -6.6      2.180      6.144
REMARK  Name = 
REMARK  12 active torsions:
REMARK  status: ('A' for Active; 'I' for Inactive)
REMARK    1  A    between atoms: C_1  and  O_2
REMARK    2  A    between atoms: O_2  and  C_3
REMARK    3  A    between atoms: C_3  and  C_4
REMARK    4  A    between atoms: C_4  and  N_5
REMARK    5  A    between atoms: C_8  and  O_9
REMARK    6  A    between atoms: C_10  and  C_11
REMARK    7  A    between atoms: C_11  and  C_13
REMARK    8  A    between atoms: C_19  and  C_20
REMARK    9  A    between atoms: C_22  and  O_23
REMARK   10  A    between atoms: O_23  and  C_24
REMARK   11  A    between atoms: C_27  and  O_28
REMARK   12  A    between atoms: O_28  and  C_29
REMARK                            x       y       z     vdW  Elec       q    Type
REMARK                         _______ _______ _______ _____ _____    ______ ____
ROOT
ATOM      1  N   UNL     1       3.358   3.190  18.603  0.00  0.00    +0.000 N 
ATOM      2  C   UNL     1       2.044   3.241  18.199  0.00  0.00    +0.000 C 
ATOM      3  O   UNL     1       1.206   2.360  18.142  0.00  0.00    +0.000 OA
ATOM      4  C   UNL     1       1.755   4.634  17.826  0.00  0.00    +0.000 C 
ATOM      5  C   UNL     1       2.824   5.377  18.147  0.00  0.00    +0.000 C 
ATOM      6  C   UNL     1       3.947   4.526  18.713  0.00  0.00    +0.000 C 
ENDROOT
BRANCH   6   7
ATOM      7  C   UNL     1       5.292   4.606  18.006  0.00  0.00    +0.000 A 
ATOM      8  C   UNL     1       5.304   4.235  16.633  0.00  0.00    +0.000 A 
ATOM      9  C   UNL     1       6.474   4.130  15.882  0.00  0.00    +0.000 A 
ATOM     10  C   UNL     1       7.685   4.433  16.474  0.00  0.00    +0.000 A 
ATOM     11  C   UNL     1       7.707   4.808  17.815  0.00  0.00    +0.000 A 
ATOM     12  C   UNL     1       6.537   4.894  18.601  0.00  0.00    +0.000 A 
BRANCH   9  13
ATOM     13  O   UNL     1       6.311   3.736  14.586  0.00  0.00    +0.000 OA
ATOM     14  C   UNL     1       6.965   4.563  13.630  0.00  0.00    +0.000 C 
ENDBRANCH   9  13
BRANCH  12  15
ATOM     15  O   UNL     1       6.898   5.221  19.874  0.00  0.00    +0.000 OA
ATOM     16  C   UNL     1       8.197   5.575  20.286  0.00  0.00    +0.000 C 
ENDBRANCH  12  15
ENDBRANCH   6   7
BRANCH   4  17
ATOM     17  O   UNL     1       0.587   4.987  17.218  0.00  0.00    +0.000 OA
ATOM     18  H   UNL     1       0.517   5.957  17.328  0.00  0.00    +0.000 HD
ENDBRANCH   4  17
BRANCH   5  19
ATOM     19  C   UNL     1       2.874   6.813  17.775  0.00  0.00    +0.000 C 
ATOM     20  O   UNL     1       3.575   7.200  16.841  0.00  0.00    +0.000 OA
BRANCH  19  21
ATOM     21  C   UNL     1       2.138   7.847  18.551  0.00  0.00    +0.000 A 
ATOM     22  C   UNL     1       1.604   8.934  17.840  0.00  0.00    +0.000 A 
ATOM     23  C   UNL     1       0.887   9.934  18.499  0.00  0.00    +0.000 A 
ATOM     24  C   UNL     1       0.710   9.865  19.875  0.00  0.00    +0.000 A 
ATOM     25  C   UNL     1       1.214   8.775  20.589  0.00  0.00    +0.000 A 
ATOM     26  C   UNL     1       1.903   7.755  19.925  0.00  0.00    +0.000 A 
ENDBRANCH  19  21
ENDBRANCH   5  19
BRANCH   1  27
ATOM     27  C   UNL     1       3.990   1.986  19.142  0.00  0.00    +0.000 C 
BRANCH  27  28
ATOM     28  C   UNL     1       4.641   2.154  20.519  0.00  0.00    +0.000 C 
BRANCH  28  30
ATOM     29  C   UNL     1       2.637   2.663  21.642  0.00  0.00    +0.000 C 
ATOM     30  O   UNL     1       3.721   1.752  21.535  0.00  0.00    +0.000 OA
ENDBRANCH  28  30
ENDBRANCH  27  28
ENDBRANCH   1  27
TORSDOF 9
ENDMDL
MODEL 4
REMARK VINA RESULT:      -6.5      2.254      6.073
REMARK  Name = 
REMARK  12 active torsions:
REMARK  status: ('A' for Active; 'I' for Inactive)
REMARK    1  A    between atoms: C_1  and  O_2
REMARK    2  A    between atoms: O_2  and  C_3
REMARK    3  A    between atoms: C_3  and  C_4
REMARK    4  A    between atoms: C_4  and  N_5
REMARK    5  A    between atoms: C_8  and  O_9
REMARK    6  A    between atoms: C_10  and  C_11
REMARK    7  A    between atoms: C_11  and  C_13
REMARK    8  A    between atoms: C_19  and  C_20
REMARK    9  A    between atoms: C_22  and  O_23
REMARK   10  A    between atoms: O_23  and  C_24
REMARK   11  A    between atoms: C_27  and  O_28
REMARK   12  A    between atoms: O_28  and  C_29
REMARK                            x       y       z     vdW  Elec       q    Type
REMARK                         _______ _______ _______ _____ _____    ______ ____
ROOT
ATOM      1  N   UNL     1       3.511   3.137  18.780  0.00  0.00    +0.000 N 
ATOM      2  C   UNL     1       2.193   3.116  18.389  0.00  0.00    +0.000 C 
ATOM      3  O   UNL     1       1.395   2.197  18.369  0.00  0.00    +0.000 OA
ATOM      4  C   UNL     1       1.838   4.482  17.975  0.00  0.00    +0.000 C 
ATOM      5  C   UNL     1       2.876   5.282  18.260  0.00  0.00    +0.000 C 
ATOM      6  C   UNL     1       4.042   4.500  18.840  0.00  0.00    +0.000 C 
ENDROOT
BRANCH   6   7
ATOM      7  C   UNL     1       5.374   4.617  18.116  0.00  0.00    +0.000 A 
ATOM      8  C   UNL     1       5.381   4.242  16.744  0.00  0.00    +0.000 A 
ATOM      9  C   UNL     1       6.544   4.168  15.979  0.00  0.00    +0.000 A 
ATOM     10  C   UNL     1       7.753   4.508  16.555  0.00  0.00    +0.000 A 
ATOM     11  C   UNL     1       7.780   4.889  17.894  0.00  0.00    +0.000 A 
ATOM     12  C   UNL     1       6.618   4.944  18.694  0.00  0.00    +0.000 A 
BRANCH   9  13
ATOM     13  O   UNL     1       6.376   3.766  14.686  0.00  0.00    +0.000 OA
ATOM     14  C   UNL     1       6.926   4.648  13.716  0.00  0.00    +0.000 C 
ENDBRANCH   9  13
BRANCH  12  15
ATOM     15  O   UNL     1       6.985   5.285  19.962  0.00  0.00    +0.000 OA
ATOM     16  C   UNL     1       8.310   5.435  20.412  0.00  0.00    +0.000 C 
ENDBRANCH  12  15
ENDBRANCH   6   7
BRANCH   4  17
ATOM     17  O   UNL     1       0.650   4.763  17.369  0.00  0.00    +0.000 OA
ATOM     18  H   UNL     1       0.817   4.673  16.408  0.00  0.00    +0.000 HD
ENDBRANCH   4  17
BRANCH   5  19
ATOM     19  C   UNL     1       2.858   6.706  17.842  0.00  0.00    +0.000 C 
ATOM     20  O   UNL     1       3.507   7.087  16.868  0.00  0.00    +0.000 OA
BRANCH  19  21
ATOM     21  C   UNL     1       2.115   7.738  18.613  0.00  0.00    +0.000 A 
ATOM     22  C   UNL     1       1.976   7.539  19.997  0.00  0.00    +0.000 A 
ATOM     23  C   UNL     1       1.306   8.474  20.788  0.00  0.00    +0.000 A 
ATOM     24  C   UNL     1       0.756   9.607  20.202  0.00  0.00    +0.000 A 
ATOM     25  C   UNL     1       0.911   9.829  18.832  0.00  0.00    +0.000 A 
ATOM     26  C   UNL     1       1.612   8.910  18.044  0.00  0.00    +0.000 A 
ENDBRANCH  19  21
ENDBRANCH   5  19
BRANCH   1  27
ATOM     27  C   UNL     1       4.202   1.980  19.349  0.00  0.00    +0.000 C 
BRANCH  27  28
ATOM     28  C   UNL     1       4.191   1.905  20.881  0.00  0.00    +0.000 C 
BRANCH  28  30
ATOM     29  C   UNL     1       5.665   0.128  21.330  0.00  0.00    +0.000 C 
ATOM     30  O   UNL     1       5.489   1.536  21.350  0.00  0.00    +0.000 OA
ENDBRANCH  28  30
ENDBRANCH  27  28
ENDBRANCH   1  27
TORSDOF 9
ENDMDL
MODEL 5
REMARK VINA RESULT:      -6.3      2.052      6.108
REMARK  Name = 
REMARK  12 active torsions:
REMARK  status: ('A' for Active; 'I' for Inactive)
REMARK    1  A    between atoms: C_1  and  O_2
REMARK    2  A    between atoms: O_2  and  C_3
REMARK    3  A    between atoms: C_3  and  C_4
REMARK    4  A    between atoms: C_4  and  N_5
REMARK    5  A    between atoms: C_8  and  O_9
REMARK    6  A    between atoms: C_10  and  C_11
REMARK    7  A    between atoms: C_11  and  C_13
REMARK    8  A    between atoms: C_19  and  C_20
REMARK    9  A    between atoms: C_22  and  O_23
REMARK   10  A    between atoms: O_23  and  C_24
REMARK   11  A    between atoms: C_27  and  O_28
REMARK   12  A    between atoms: O_28  and  C_29
REMARK                            x       y       z     vdW  Elec       q    Type
REMARK                         _______ _______ _______ _____ _____    ______ ____
ROOT
ATOM      1  N   UNL     1       3.490   3.142  17.887  0.00  0.00    +0.000 N 
ATOM      2  C   UNL     1       2.132   3.360  17.875  0.00  0.00    +0.000 C 
ATOM      3  O   UNL     1       1.210   2.566  17.914  0.00  0.00    +0.000 OA
ATOM      4  C   UNL     1       1.923   4.814  17.816  0.00  0.00    +0.000 C 
ATOM      5  C   UNL     1       3.119   5.408  17.940  0.00  0.00    +0.000 C 
ATOM      6  C   UNL     1       4.242   4.390  18.035  0.00  0.00    +0.000 C 
ENDROOT
BRANCH   6   7
ATOM      7  C   UNL     1       5.357   4.500  17.006  0.00  0.00    +0.000 A 
ATOM      8  C   UNL     1       4.973   4.352  15.644  0.00  0.00    +0.000 A 
ATOM      9  C   UNL     1       5.890   4.296  14.596  0.00  0.00    +0.000 A 
ATOM     10  C   UNL     1       7.238   4.427  14.871  0.00  0.00    +0.000 A 
ATOM     11  C   UNL     1       7.646   4.582  16.193  0.00  0.00    +0.000 A 
ATOM     12  C   UNL     1       6.736   4.613  17.272  0.00  0.00    +0.000 A 
BRANCH   9  13
ATOM     13  O   UNL     1       5.356   4.125  13.352  0.00  0.00    +0.000 OA
ATOM     14  C   UNL     1       6.169   3.376  12.457  0.00  0.00    +0.000 C 
ENDBRANCH   9  13
BRANCH  12  15
ATOM     15  O   UNL     1       7.448   4.710  18.431  0.00  0.00    +0.000 OA
ATOM     16  C   UNL     1       7.758   5.911  19.097  0.00  0.00    +0.000 C 
ENDBRANCH  12  15
ENDBRANCH   6   7
BRANCH   4  17
ATOM     17  O   UNL     1       0.688   5.354  17.615  0.00  0.00    +0.000 OA
ATOM     18  H   UNL     1       0.667   5.621  16.674  0.00  0.00    +0.000 HD
ENDBRANCH   4  17
BRANCH   5  19
ATOM     19  C   UNL     1       3.240   6.880  17.796  0.00  0.00    +0.000 C 
ATOM     20  O   UNL     1       4.131   7.376  17.106  0.00  0.00    +0.000 OA
BRANCH  19  21
ATOM     21  C   UNL     1       2.341   7.814  18.526  0.00  0.00    +0.000 A 
ATOM     22  C   UNL     1       2.153   7.593  19.899  0.00  0.00    +0.000 A 
ATOM     23  C   UNL     1       1.337   8.438  20.653  0.00  0.00    +0.000 A 
ATOM     24  C   UNL     1       0.689   9.502  20.037  0.00  0.00    +0.000 A 
ATOM     25  C   UNL     1       0.890   9.748  18.677  0.00  0.00    +0.000 A 
ATOM     26  C   UNL     1       1.735   8.921  17.929  0.00  0.00    +0.000 A 
ENDBRANCH  19  21
ENDBRANCH   5  19
BRANCH   1  27
ATOM     27  C   UNL     1       4.094   1.818  18.037  0.00  0.00    +0.000 C 
BRANCH  27  28
ATOM     28  C   UNL     1       3.962   1.197  19.433  0.00  0.00    +0.000 C 
BRANCH  28  30
ATOM     29  C   UNL     1       3.188   2.496  21.235  0.00  0.00    +0.000 C 
ATOM     30  O   UNL     1       4.305   2.168  20.423  0.00  0.00    +0.000 OA
ENDBRANCH  28  30
ENDBRANCH  27  28
ENDBRANCH   1  27
TORSDOF 9
ENDMDL
MODEL 6
REMARK VINA RESULT:      -6.2      2.335      6.267
REMARK  Name = 
REMARK  12 active torsions:
REMARK  status: ('A' for Active; 'I' for Inactive)
REMARK    1  A    between atoms: C_1  and  O_2
REMARK    2  A    between atoms: O_2  and  C_3
REMARK    3  A    between atoms: C_3  and  C_4
REMARK    4  A    between atoms: C_4  and  N_5
REMARK    5  A    between atoms: C_8  and  O_9
REMARK    6  A    between atoms: C_10  and  C_11
REMARK    7  A    between atoms: C_11  and  C_13
REMARK    8  A    between atoms: C_19  and  C_20
REMARK    9  A    between atoms: C_22  and  O_23
REMARK   10  A    between atoms: O_23  and  C_24
REMARK   11  A    between atoms: C_27  and  O_28
REMARK   12  A    between atoms: O_28  and  C_29
REMARK                            x       y       z     vdW  Elec       q    Type
REMARK                         _______ _______ _______ _____ _____    ______ ____
ROOT
ATOM      1  N   UNL     1       3.788   6.116  18.774  0.00  0.00    +0.000 N 
ATOM      2  C   UNL     1       3.810   6.969  17.695  0.00  0.00    +0.000 C 
ATOM      3  O   UNL     1       3.108   7.930  17.440  0.00  0.00    +0.000 OA
ATOM      4  C   UNL     1       4.906   6.532  16.816  0.00  0.00    +0.000 C 
ATOM      5  C   UNL     1       5.577   5.557  17.446  0.00  0.00    +0.000 C 
ATOM      6  C   UNL     1       4.944   5.218  18.785  0.00  0.00    +0.000 C 
ENDROOT
BRANCH   6   7
ATOM      7  C   UNL     1       4.530   3.770  19.001  0.00  0.00    +0.000 A 
ATOM      8  C   UNL     1       5.114   3.108  20.116  0.00  0.00    +0.000 A 
ATOM      9  C   UNL     1       4.939   1.750  20.373  0.00  0.00    +0.000 A 
ATOM     10  C   UNL     1       4.133   1.003  19.535  0.00  0.00    +0.000 A 
ATOM     11  C   UNL     1       3.540   1.623  18.438  0.00  0.00    +0.000 A 
ATOM     12  C   UNL     1       3.726   2.991  18.144  0.00  0.00    +0.000 A 
BRANCH   9  13
ATOM     13  O   UNL     1       5.590   1.267  21.471  0.00  0.00    +0.000 OA
ATOM     14  C   UNL     1       5.944  -0.108  21.391  0.00  0.00    +0.000 C 
ENDBRANCH   9  13
BRANCH  12  15
ATOM     15  O   UNL     1       3.071   3.273  16.982  0.00  0.00    +0.000 OA
ATOM     16  C   UNL     1       1.749   3.747  16.888  0.00  0.00    +0.000 C 
ENDBRANCH  12  15
ENDBRANCH   6   7
BRANCH   4  17
ATOM     17  O   UNL     1       5.084   7.064  15.573  0.00  0.00    +0.000 OA
ATOM     18  H   UNL     1       5.859   7.658  15.650  0.00  0.00    +0.000 HD
ENDBRANCH   4  17
BRANCH   5  19
ATOM     19  C   UNL     1       6.670   4.833  16.750  0.00  0.00    +0.000 C 
ATOM     20  O   UNL     1       7.677   4.474  17.358  0.00  0.00    +0.000 OA
BRANCH  19  21
ATOM     21  C   UNL     1       6.625   4.571  15.287  0.00  0.00    +0.000 A 
ATOM     22  C   UNL     1       7.598   5.191  14.486  0.00  0.00    +0.000 A 
ATOM     23  C   UNL     1       7.629   4.978  13.107  0.00  0.00    +0.000 A 
ATOM     24  C   UNL     1       6.679   4.156  12.514  0.00  0.00    +0.000 A 
ATOM     25  C   UNL     1       5.723   3.513  13.303  0.00  0.00    +0.000 A 
ATOM     26  C   UNL     1       5.712   3.699  14.689  0.00  0.00    +0.000 A 
ENDBRANCH  19  21
ENDBRANCH   5  19
BRANCH   1  27
ATOM     27  C   UNL     1       2.892   6.286  19.918  0.00  0.00    +0.000 C 
BRANCH  27  28
ATOM     28  C   UNL     1       1.793   5.225  20.046  0.00  0.00    +0.000 C 
BRANCH  28  30
ATOM     29  C   UNL     1       1.372   3.172  21.115  0.00  0.00    +0.000 C 
ATOM     30  O   UNL     1       2.032   4.426  21.206  0.00  0.00    +0.000 OA
ENDBRANCH  28  30
ENDBRANCH  27  28
ENDBRANCH   1  27
TORSDOF 9
ENDMDL
MODEL 7
REMARK VINA RESULT:      -6.1      5.521      8.809
REMARK  Name = 
REMARK  12 active torsions:
REMARK  status: ('A' for Active; 'I' for Inactive)
REMARK    1  A    between atoms: C_1  and  O_2
REMARK    2  A    between atoms: O_2  and  C_3
REMARK    3  A    between atoms: C_3  and  C_4
REMARK    4  A    between atoms: C_4  and  N_5
REMARK    5  A    between atoms: C_8  and  O_9
REMARK    6  A    between atoms: C_10  and  C_11
REMARK    7  A    between atoms: C_11  and  C_13
REMARK    8  A    between atoms: C_19  and  C_20
REMARK    9  A    between atoms: C_22  and  O_23
REMARK   10  A    between atoms: O_23  and  C_24
REMARK   11  A    between atoms: C_27  and  O_28
REMARK   12  A    between atoms: O_28  and  C_29
REMARK                            x       y       z     vdW  Elec       q    Type
REMARK                         _______ _______ _______ _____ _____    ______ ____
ROOT
ATOM      1  N   UNL     1       1.120  13.273  19.462  0.00  0.00    +0.000 N 
ATOM      2  C   UNL     1       0.380  14.408  19.700  0.00  0.00    +0.000 C 
ATOM      3  O   UNL     1       0.742  15.535  19.982  0.00  0.00    +0.000 OA
ATOM      4  C   UNL     1      -1.036  14.047  19.539  0.00  0.00    +0.000 C 
ATOM      5  C   UNL     1      -1.092  12.788  19.080  0.00  0.00    +0.000 C 
ATOM      6  C   UNL     1       0.293  12.178  18.951  0.00  0.00    +0.000 C 
ENDROOT
BRANCH   6   7
ATOM      7  C   UNL     1       0.545  10.883  19.707  0.00  0.00    +0.000 A 
ATOM      8  C   UNL     1       0.193  10.879  21.086  0.00  0.00    +0.000 A 
ATOM      9  C   UNL     1       0.481   9.819  21.943  0.00  0.00    +0.000 A 
ATOM     10  C   UNL     1       1.105   8.694  21.439  0.00  0.00    +0.000 A 
ATOM     11  C   UNL     1       1.456   8.662  20.092  0.00  0.00    +0.000 A 
ATOM     12  C   UNL     1       1.198   9.736  19.212  0.00  0.00    +0.000 A 
BRANCH   9  13
ATOM     13  O   UNL     1       0.097   9.988  23.242  0.00  0.00    +0.000 OA
ATOM     14  C   UNL     1      -1.154  10.645  23.407  0.00  0.00    +0.000 C 
ENDBRANCH   9  13
BRANCH  12  15
ATOM     15  O   UNL     1       1.715   9.423  17.990  0.00  0.00    +0.000 OA
ATOM     16  C   UNL     1       2.585   8.348  17.726  0.00  0.00    +0.000 C 
ENDBRANCH  12  15
ENDBRANCH   6   7
BRANCH   4  17
ATOM     17  O   UNL     1      -2.039  14.907  19.876  0.00  0.00    +0.000 OA
ATOM     18  H   UNL     1      -1.743  15.345  20.701  0.00  0.00    +0.000 HD
ENDBRANCH   4  17
BRANCH   5  19
ATOM     19  C   UNL     1      -2.401  12.104  18.934  0.00  0.00    +0.000 C 
ATOM     20  O   UNL     1      -3.209  12.082  19.862  0.00  0.00    +0.000 OA
BRANCH  19  21
ATOM     21  C   UNL     1      -2.762  11.364  17.696  0.00  0.00    +0.000 A 
ATOM     22  C   UNL     1      -1.923  10.310  17.301  0.00  0.00    +0.000 A 
ATOM     23  C   UNL     1      -2.208   9.560  16.159  0.00  0.00    +0.000 A 
ATOM     24  C   UNL     1      -3.326   9.866  15.393  0.00  0.00    +0.000 A 
ATOM     25  C   UNL     1      -4.184  10.895  15.791  0.00  0.00    +0.000 A 
ATOM     26  C   UNL     1      -3.917  11.624  16.954  0.00  0.00    +0.000 A 
ENDBRANCH  19  21
ENDBRANCH   5  19
BRANCH   1  27
ATOM     27  C   UNL     1       2.583  13.255  19.435  0.00  0.00    +0.000 C 
BRANCH  27  28
ATOM     28  C   UNL     1       3.214  13.654  18.096  0.00  0.00    +0.000 C 
BRANCH  28  30
ATOM     29  C   UNL     1       5.150  14.974  17.898  0.00  0.00    +0.000 C 
ATOM     30  O   UNL     1       3.763  14.969  18.199  0.00  0.00    +0.000 OA
ENDBRANCH  28  30
ENDBRANCH  27  28
ENDBRANCH   1  27
TORSDOF 9
ENDMDL
MODEL 8
REMARK VINA RESULT:      -6.1      6.909     10.932
REMARK  Name = 
REMARK  12 active torsions:
REMARK  status: ('A' for Active; 'I' for Inactive)
REMARK    1  A    between atoms: C_1  and  O_2
REMARK    2  A    between atoms: O_2  and  C_3
REMARK    3  A    between atoms: C_3  and  C_4
REMARK    4  A    between atoms: C_4  and  N_5
REMARK    5  A    between atoms: C_8  and  O_9
REMARK    6  A    between atoms: C_10  and  C_11
REMARK    7  A    between atoms: C_11  and  C_13
REMARK    8  A    between atoms: C_19  and  C_20
REMARK    9  A    between atoms: C_22  and  O_23
REMARK   10  A    between atoms: O_23  and  C_24
REMARK   11  A    between atoms: C_27  and  O_28
REMARK   12  A    between atoms: O_28  and  C_29
REMARK                            x       y       z     vdW  Elec       q    Type
REMARK                         _______ _______ _______ _____ _____    ______ ____
ROOT
ATOM      1  N   UNL     1      10.569  12.803  18.829  0.00  0.00    +0.000 N 
ATOM      2  C   UNL     1      11.239  13.252  17.715  0.00  0.00    +0.000 C 
ATOM      3  O   UNL     1      12.176  12.761  17.113  0.00  0.00    +0.000 OA
ATOM      4  C   UNL     1      10.606  14.514  17.303  0.00  0.00    +0.000 C 
ATOM      5  C   UNL     1       9.520  14.698  18.067  0.00  0.00    +0.000 C 
ATOM      6  C   UNL     1       9.369  13.596  19.101  0.00  0.00    +0.000 C 
ENDROOT
BRANCH   6   7
ATOM      7  C   UNL     1       9.298  14.027  20.558  0.00  0.00    +0.000 A 
ATOM      8  C   UNL     1       8.125  13.650  21.270  0.00  0.00    +0.000 A 
ATOM      9  C   UNL     1       7.851  14.079  22.567  0.00  0.00    +0.000 A 
ATOM     10  C   UNL     1       8.768  14.877  23.223  0.00  0.00    +0.000 A 
ATOM     11  C   UNL     1       9.931  15.256  22.557  0.00  0.00    +0.000 A 
ATOM     12  C   UNL     1      10.216  14.857  21.233  0.00  0.00    +0.000 A 
BRANCH   9  13
ATOM     13  O   UNL     1       6.669  13.646  23.095  0.00  0.00    +0.000 OA
ATOM     14  C   UNL     1       6.655  12.273  23.468  0.00  0.00    +0.000 C 
ENDBRANCH   9  13
BRANCH  12  15
ATOM     15  O   UNL     1      11.387  15.441  20.851  0.00  0.00    +0.000 OA
ATOM     16  C   UNL     1      11.530  16.778  20.433  0.00  0.00    +0.000 C 
ENDBRANCH  12  15
ENDBRANCH   6   7
BRANCH   4  17
ATOM     17  O   UNL     1      11.146  15.304  16.333  0.00  0.00    +0.000 OA
ATOM     18  H   UNL     1      11.742  14.721  15.820  0.00  0.00    +0.000 HD
ENDBRANCH   4  17
BRANCH   5  19
ATOM     19  C   UNL     1       8.739  15.957  17.963  0.00  0.00    +0.000 C 
ATOM     20  O   UNL     1       9.292  17.024  17.699  0.00  0.00    +0.000 OA
BRANCH  19  21
ATOM     21  C   UNL     1       7.278  15.994  18.237  0.00  0.00    +0.000 A 
ATOM     22  C   UNL     1       6.490  14.962  17.703  0.00  0.00    +0.000 A 
ATOM     23  C   UNL     1       5.114  14.923  17.933  0.00  0.00    +0.000 A 
ATOM     24  C   UNL     1       4.511  15.922  18.686  0.00  0.00    +0.000 A 
ATOM     25  C   UNL     1       5.288  16.939  19.246  0.00  0.00    +0.000 A 
ATOM     26  C   UNL     1       6.672  16.960  19.044  0.00  0.00    +0.000 A 
ENDBRANCH  19  21
ENDBRANCH   5  19
BRANCH   1  27
ATOM     27  C   UNL     1      10.849  11.522  19.477  0.00  0.00    +0.000 C 
BRANCH  27  28
ATOM     28  C   UNL     1       9.684  10.525  19.478  0.00  0.00    +0.000 C 
BRANCH  28  30
ATOM     29  C   UNL     1       8.286   9.261  18.070  0.00  0.00    +0.000 C 
ATOM     30  O   UNL     1       9.228  10.321  18.139  0.00  0.00    +0.000 OA
ENDBRANCH  28  30
ENDBRANCH  27  28
ENDBRANCH   1  27
TORSDOF 9
ENDMDL
MODEL 9
REMARK VINA RESULT:      -6.1      5.611      9.232
REMARK  Name = 
REMARK  12 active torsions:
REMARK  status: ('A' for Active; 'I' for Inactive)
REMARK    1  A    between atoms: C_1  and  O_2
REMARK    2  A    between atoms: O_2  and  C_3
REMARK    3  A    between atoms: C_3  and  C_4
REMARK    4  A    between atoms: C_4  and  N_5
REMARK    5  A    between atoms: C_8  and  O_9
REMARK    6  A    between atoms: C_10  and  C_11
REMARK    7  A    between atoms: C_11  and  C_13
REMARK    8  A    between atoms: C_19  and  C_20
REMARK    9  A    between atoms: C_22  and  O_23
REMARK   10  A    between atoms: O_23  and  C_24
REMARK   11  A    between atoms: C_27  and  O_28
REMARK   12  A    between atoms: O_28  and  C_29
REMARK                            x       y       z     vdW  Elec       q    Type
REMARK                         _______ _______ _______ _____ _____    ______ ____
ROOT
ATOM      1  N   UNL     1       1.185  13.488  19.665  0.00  0.00    +0.000 N 
ATOM      2  C   UNL     1       0.395  14.593  19.882  0.00  0.00    +0.000 C 
ATOM      3  O   UNL     1       0.707  15.744  20.128  0.00  0.00    +0.000 OA
ATOM      4  C   UNL     1      -1.005  14.161  19.753  0.00  0.00    +0.000 C 
ATOM      5  C   UNL     1      -1.007  12.889  19.331  0.00  0.00    +0.000 C 
ATOM      6  C   UNL     1       0.404  12.342  19.197  0.00  0.00    +0.000 C 
ENDROOT
BRANCH   6   7
ATOM      7  C   UNL     1       0.728  11.082  19.985  0.00  0.00    +0.000 A 
ATOM      8  C   UNL     1       1.247   9.988  19.238  0.00  0.00    +0.000 A 
ATOM      9  C   UNL     1       1.470   8.727  19.788  0.00  0.00    +0.000 A 
ATOM     10  C   UNL     1       1.216   8.521  21.130  0.00  0.00    +0.000 A 
ATOM     11  C   UNL     1       0.715   9.574  21.892  0.00  0.00    +0.000 A 
ATOM     12  C   UNL     1       0.456  10.851  21.349  0.00  0.00    +0.000 A 
BRANCH   9  13
ATOM     13  O   UNL     1       1.947   7.783  18.925  0.00  0.00    +0.000 OA
ATOM     14  C   UNL     1       2.730   8.300  17.856  0.00  0.00    +0.000 C 
ENDBRANCH   9  13
BRANCH  12  15
ATOM     15  O   UNL     1      -0.084  11.632  22.327  0.00  0.00    +0.000 OA
ATOM     16  C   UNL     1      -1.246  11.329  23.062  0.00  0.00    +0.000 C 
ENDBRANCH  12  15
ENDBRANCH   6   7
BRANCH   4  17
ATOM     17  O   UNL     1      -2.042  14.983  20.083  0.00  0.00    +0.000 OA
ATOM     18  H   UNL     1      -1.988  15.098  21.053  0.00  0.00    +0.000 HD
ENDBRANCH   4  17
BRANCH   5  19
ATOM     19  C   UNL     1      -2.284  12.140  19.224  0.00  0.00    +0.000 C 
ATOM     20  O   UNL     1      -3.044  12.047  20.187  0.00  0.00    +0.000 OA
BRANCH  19  21
ATOM     21  C   UNL     1      -2.665  11.418  17.981  0.00  0.00    +0.000 A 
ATOM     22  C   UNL     1      -1.803  10.407  17.527  0.00  0.00    +0.000 A 
ATOM     23  C   UNL     1      -2.105   9.676  16.377  0.00  0.00    +0.000 A 
ATOM     24  C   UNL     1      -3.262   9.959  15.662  0.00  0.00    +0.000 A 
ATOM     25  C   UNL     1      -4.140  10.945  16.118  0.00  0.00    +0.000 A 
ATOM     26  C   UNL     1      -3.855  11.654  17.289  0.00  0.00    +0.000 A 
ENDBRANCH  19  21
ENDBRANCH   5  19
BRANCH   1  27
ATOM     27  C   UNL     1       2.646  13.538  19.615  0.00  0.00    +0.000 C 
BRANCH  27  28
ATOM     28  C   UNL     1       3.331  13.869  20.946  0.00  0.00    +0.000 C 
BRANCH  28  30
ATOM     29  C   UNL     1       4.246  15.996  20.530  0.00  0.00    +0.000 C 
ATOM     30  O   UNL     1       4.524  14.614  20.698  0.00  0.00    +0.000 OA
ENDBRANCH  28  30
ENDBRANCH  27  28
ENDBRANCH   1  27
TORSDOF 9
ENDMDL
