MODEL 1
REMARK VINA RESULT:      -7.9      0.000      0.000
REMARK  Name = 
REMARK  8 active torsions:
REMARK  status: ('A' for Active; 'I' for Inactive)
REMARK    1  A    between atoms: C_1  and  C_2
REMARK    2  A    between atoms: C_5  and  C_6
REMARK    3  A    between atoms: N_10  and  C_11
REMARK    4  A    between atoms: C_11  and  C_12
REMARK    5  A    between atoms: C_12  and  N_13
REMARK    6  A    between atoms: N_13  and  C_14
REMARK    7  A    between atoms: C_17  and  C_18
REMARK    8  A    between atoms: C_23  and  C_24
REMARK                            x       y       z     vdW  Elec       q    Type
REMARK                         _______ _______ _______ _____ _____    ______ ____
ROOT
ATOM      1  C   UNL     1       5.179   3.766  16.727  0.00  0.00    +0.000 A 
ATOM      2  N   UNL     1       4.393   2.651  16.735  0.00  0.00    +0.000 NA
ATOM      3  C   UNL     1       3.596   2.512  17.825  0.00  0.00    +0.000 A 
ATOM      4  C   UNL     1       3.598   3.380  18.917  0.00  0.00    +0.000 A 
ATOM      5  N   UNL     1       2.702   3.180  19.978  0.00  0.00    +0.000 N 
ATOM      6  N   UNL     1       4.433   4.437  18.910  0.00  0.00    +0.000 NA
ATOM      7  C   UNL     1       5.222   4.664  17.813  0.00  0.00    +0.000 A 
ATOM      8  H   UNL     1       2.764   2.223  20.311  0.00  0.00    +0.000 HD
ENDROOT
BRANCH   7   9
ATOM      9  C   UNL     1       6.121   5.850  17.933  0.00  0.00    +0.000 A 
ATOM     10  C   UNL     1       7.219   5.831  18.823  0.00  0.00    +0.000 A 
ATOM     11  C   UNL     1       8.142   6.875  18.916  0.00  0.00    +0.000 A 
ATOM     12  C   UNL     1       7.937   8.028  18.184  0.00  0.00    +0.000 A 
ATOM     13 CL   UNL     1       9.023   9.349  18.339  0.00  0.00    +0.000 Cl
ATOM     14  C   UNL     1       6.841   8.129  17.344  0.00  0.00    +0.000 A 
ATOM     15  C   UNL     1       5.948   7.051  17.205  0.00  0.00    +0.000 A 
ATOM     16 CL   UNL     1       4.675   7.340  16.075  0.00  0.00    +0.000 Cl
ENDBRANCH   7   9
BRANCH   1  21
ATOM     17  C   UNL     1       6.421   3.659  11.955  0.00  0.00    +0.000 C 
ATOM     18  C   UNL     1       6.547   3.953  13.401  0.00  0.00    +0.000 A 
ATOM     19  C   UNL     1       7.512   4.657  14.084  0.00  0.00    +0.000 A 
ATOM     20  N   UNL     1       7.106   4.648  15.392  0.00  0.00    +0.000 N 
ATOM     21  C   UNL     1       5.935   3.929  15.478  0.00  0.00    +0.000 A 
ATOM     22  N   UNL     1       5.608   3.478  14.280  0.00  0.00    +0.000 NA
ATOM     23  H   UNL     1       7.558   5.097  16.176  0.00  0.00    +0.000 HD
ENDBRANCH   1  21
BRANCH   5  24
ATOM     24  C   UNL     1       2.762   4.153  21.083  0.00  0.00    +0.000 C 
BRANCH  24  25
ATOM     25  C   UNL     1       1.905   5.399  20.784  0.00  0.00    +0.000 C 
BRANCH  25  26
ATOM     26  N   UNL     1       2.682   6.459  20.108  0.00  0.00    +0.000 N 
ATOM     27  H   UNL     1       3.152   6.100  19.279  0.00  0.00    +0.000 HD
BRANCH  26  28
ATOM     28  C   UNL     1       1.982   7.641  19.799  0.00  0.00    +0.000 A 
ATOM     29  C   UNL     1       1.256   8.374  20.737  0.00  0.00    +0.000 A 
ATOM     30  C   UNL     1       0.630   9.584  20.407  0.00  0.00    +0.000 A 
ATOM     31  C   UNL     1       0.754  10.111  19.123  0.00  0.00    +0.000 A 
ATOM     32  C   UNL     1       1.510   9.426  18.177  0.00  0.00    +0.000 A 
ATOM     33  C   UNL     1       2.138   8.211  18.514  0.00  0.00    +0.000 A 
BRANCH  31  34
ATOM     34  C   UNL     1       0.106  11.353  18.786  0.00  0.00    +0.000 C 
ATOM     35  N   UNL     1      -0.408  12.356  18.510  0.00  0.00    +0.000 NA
ENDBRANCH  31  34
ENDBRANCH  26  28
ENDBRANCH  25  26
ENDBRANCH  24  25
ENDBRANCH   5  24
TORSDOF 7
ENDMDL
MODEL 2
REMARK VINA RESULT:      -7.6      3.708      9.813
REMARK  Name = 
REMARK  8 active torsions:
REMARK  status: ('A' for Active; 'I' for Inactive)
REMARK    1  A    between atoms: C_1  and  C_2
REMARK    2  A    between atoms: C_5  and  C_6
REMARK    3  A    between atoms: N_10  and  C_11
REMARK    4  A    between atoms: C_11  and  C_12
REMARK    5  A    between atoms: C_12  and  N_13
REMARK    6  A    between atoms: N_13  and  C_14
REMARK    7  A    between atoms: C_17  and  C_18
REMARK    8  A    between atoms: C_23  and  C_24
REMARK                            x       y       z     vdW  Elec       q    Type
REMARK                         _______ _______ _______ _____ _____    ______ ____
ROOT
ATOM      1  C   UNL     1      -0.482  11.270  22.171  0.00  0.00    +0.000 A 
ATOM      2  N   UNL     1      -0.952  10.179  22.841  0.00  0.00    +0.000 NA
ATOM      3  C   UNL     1      -0.377   8.997  22.500  0.00  0.00    +0.000 A 
ATOM      4  C   UNL     1       0.577   8.849  21.493  0.00  0.00    +0.000 A 
ATOM      5  N   UNL     1       1.151   7.592  21.245  0.00  0.00    +0.000 N 
ATOM      6  N   UNL     1       0.975   9.935  20.804  0.00  0.00    +0.000 NA
ATOM      7  C   UNL     1       0.473  11.165  21.139  0.00  0.00    +0.000 A 
ATOM      8  H   UNL     1       0.423   6.895  21.122  0.00  0.00    +0.000 HD
ENDROOT
BRANCH   7   9
ATOM      9  C   UNL     1       0.970  12.288  20.290  0.00  0.00    +0.000 A 
ATOM     10  C   UNL     1       2.151  12.984  20.639  0.00  0.00    +0.000 A 
ATOM     11  C   UNL     1       2.710  13.983  19.840  0.00  0.00    +0.000 A 
ATOM     12  C   UNL     1       2.044  14.392  18.701  0.00  0.00    +0.000 A 
ATOM     13 CL   UNL     1       2.682  15.668  17.745  0.00  0.00    +0.000 Cl
ATOM     14  C   UNL     1       0.849  13.791  18.344  0.00  0.00    +0.000 A 
ATOM     15  C   UNL     1       0.322  12.741  19.117  0.00  0.00    +0.000 A 
ATOM     16 CL   UNL     1      -1.145  12.080  18.488  0.00  0.00    +0.000 Cl
ENDBRANCH   7   9
BRANCH   1  21
ATOM     17  C   UNL     1      -0.953  15.659  24.370  0.00  0.00    +0.000 C 
ATOM     18  C   UNL     1      -1.339  14.480  23.563  0.00  0.00    +0.000 A 
ATOM     19  C   UNL     1      -2.484  14.230  22.843  0.00  0.00    +0.000 A 
ATOM     20  N   UNL     1      -2.285  13.006  22.262  0.00  0.00    +0.000 N 
ATOM     21  C   UNL     1      -1.053  12.533  22.656  0.00  0.00    +0.000 A 
ATOM     22  N   UNL     1      -0.488  13.408  23.469  0.00  0.00    +0.000 NA
ATOM     23  H   UNL     1      -2.910  12.517  21.636  0.00  0.00    +0.000 HD
ENDBRANCH   1  21
BRANCH   5  24
ATOM     24  C   UNL     1       2.161   7.529  20.175  0.00  0.00    +0.000 C 
BRANCH  24  25
ATOM     25  C   UNL     1       2.476   6.072  19.782  0.00  0.00    +0.000 C 
BRANCH  25  26
ATOM     26  N   UNL     1       3.925   5.845  19.600  0.00  0.00    +0.000 N 
ATOM     27  H   UNL     1       4.283   5.181  20.285  0.00  0.00    +0.000 HD
BRANCH  26  28
ATOM     28  C   UNL     1       4.339   5.481  18.305  0.00  0.00    +0.000 A 
ATOM     29  C   UNL     1       4.834   6.390  17.370  0.00  0.00    +0.000 A 
ATOM     30  C   UNL     1       5.302   5.979  16.115  0.00  0.00    +0.000 A 
ATOM     31  C   UNL     1       5.320   4.627  15.780  0.00  0.00    +0.000 A 
ATOM     32  C   UNL     1       4.875   3.691  16.708  0.00  0.00    +0.000 A 
ATOM     33  C   UNL     1       4.406   4.109  17.970  0.00  0.00    +0.000 A 
BRANCH  31  34
ATOM     34  C   UNL     1       5.798   4.209  14.488  0.00  0.00    +0.000 C 
ATOM     35  N   UNL     1       6.180   3.880  13.442  0.00  0.00    +0.000 NA
ENDBRANCH  31  34
ENDBRANCH  26  28
ENDBRANCH  25  26
ENDBRANCH  24  25
ENDBRANCH   5  24
TORSDOF 7
ENDMDL
MODEL 3
REMARK VINA RESULT:      -7.5      0.436      1.231
REMARK  Name = 
REMARK  8 active torsions:
REMARK  status: ('A' for Active; 'I' for Inactive)
REMARK    1  A    between atoms: C_1  and  C_2
REMARK    2  A    between atoms: C_5  and  C_6
REMARK    3  A    between atoms: N_10  and  C_11
REMARK    4  A    between atoms: C_11  and  C_12
REMARK    5  A    between atoms: C_12  and  N_13
REMARK    6  A    between atoms: N_13  and  C_14
REMARK    7  A    between atoms: C_17  and  C_18
REMARK    8  A    between atoms: C_23  and  C_24
REMARK                            x       y       z     vdW  Elec       q    Type
REMARK                         _______ _______ _______ _____ _____    ______ ____
ROOT
ATOM      1  C   UNL     1       5.193   3.837  16.424  0.00  0.00    +0.000 A 
ATOM      2  N   UNL     1       4.436   2.703  16.388  0.00  0.00    +0.000 NA
ATOM      3  C   UNL     1       3.676   2.479  17.490  0.00  0.00    +0.000 A 
ATOM      4  C   UNL     1       3.689   3.281  18.631  0.00  0.00    +0.000 A 
ATOM      5  N   UNL     1       2.830   2.994  19.704  0.00  0.00    +0.000 N 
ATOM      6  N   UNL     1       4.496   4.358  18.664  0.00  0.00    +0.000 NA
ATOM      7  C   UNL     1       5.245   4.670  17.561  0.00  0.00    +0.000 A 
ATOM      8  H   UNL     1       2.925   2.021  19.977  0.00  0.00    +0.000 HD
ENDROOT
BRANCH   7   9
ATOM      9  C   UNL     1       6.117   5.872  17.726  0.00  0.00    +0.000 A 
ATOM     10  C   UNL     1       7.247   5.827  18.575  0.00  0.00    +0.000 A 
ATOM     11  C   UNL     1       8.144   6.889  18.704  0.00  0.00    +0.000 A 
ATOM     12  C   UNL     1       7.884   8.080  18.054  0.00  0.00    +0.000 A 
ATOM     13 CL   UNL     1       8.940   9.417  18.257  0.00  0.00    +0.000 Cl
ATOM     14  C   UNL     1       6.757   8.202  17.260  0.00  0.00    +0.000 A 
ATOM     15  C   UNL     1       5.889   7.111  17.082  0.00  0.00    +0.000 A 
ATOM     16 CL   UNL     1       4.569   7.434  16.016  0.00  0.00    +0.000 Cl
ENDBRANCH   7   9
BRANCH   1  21
ATOM     17  C   UNL     1       8.372   5.679  13.134  0.00  0.00    +0.000 C 
ATOM     18  C   UNL     1       7.288   4.822  13.665  0.00  0.00    +0.000 A 
ATOM     19  C   UNL     1       6.595   3.793  13.070  0.00  0.00    +0.000 A 
ATOM     20  N   UNL     1       5.737   3.331  14.032  0.00  0.00    +0.000 N 
ATOM     21  C   UNL     1       5.907   4.094  15.167  0.00  0.00    +0.000 A 
ATOM     22  N   UNL     1       6.823   5.018  14.940  0.00  0.00    +0.000 NA
ATOM     23  H   UNL     1       5.093   2.557  13.957  0.00  0.00    +0.000 HD
ENDBRANCH   1  21
BRANCH   5  24
ATOM     24  C   UNL     1       2.898   3.902  20.863  0.00  0.00    +0.000 C 
BRANCH  24  25
ATOM     25  C   UNL     1       2.067   5.179  20.628  0.00  0.00    +0.000 C 
BRANCH  25  26
ATOM     26  N   UNL     1       2.900   6.307  20.160  0.00  0.00    +0.000 N 
ATOM     27  H   UNL     1       3.512   6.021  19.397  0.00  0.00    +0.000 HD
BRANCH  26  28
ATOM     28  C   UNL     1       2.213   7.487  19.819  0.00  0.00    +0.000 A 
ATOM     29  C   UNL     1       2.194   8.023  18.532  0.00  0.00    +0.000 A 
ATOM     30  C   UNL     1       1.440   9.161  18.215  0.00  0.00    +0.000 A 
ATOM     31  C   UNL     1       0.649   9.771  19.186  0.00  0.00    +0.000 A 
ATOM     32  C   UNL     1       0.610   9.234  20.468  0.00  0.00    +0.000 A 
ATOM     33  C   UNL     1       1.369   8.088  20.781  0.00  0.00    +0.000 A 
BRANCH  31  34
ATOM     34  C   UNL     1      -0.122  10.943  18.857  0.00  0.00    +0.000 C 
ATOM     35  N   UNL     1      -0.743  11.884  18.584  0.00  0.00    +0.000 NA
ENDBRANCH  31  34
ENDBRANCH  26  28
ENDBRANCH  25  26
ENDBRANCH  24  25
ENDBRANCH   5  24
TORSDOF 7
ENDMDL
MODEL 4
REMARK VINA RESULT:      -7.5      1.053      1.345
REMARK  Name = 
REMARK  8 active torsions:
REMARK  status: ('A' for Active; 'I' for Inactive)
REMARK    1  A    between atoms: C_1  and  C_2
REMARK    2  A    between atoms: C_5  and  C_6
REMARK    3  A    between atoms: N_10  and  C_11
REMARK    4  A    between atoms: C_11  and  C_12
REMARK    5  A    between atoms: C_12  and  N_13
REMARK    6  A    between atoms: N_13  and  C_14
REMARK    7  A    between atoms: C_17  and  C_18
REMARK    8  A    between atoms: C_23  and  C_24
REMARK                            x       y       z     vdW  Elec       q    Type
REMARK                         _______ _______ _______ _____ _____    ______ ____
ROOT
ATOM      1  C   UNL     1       5.317   4.121  16.559  0.00  0.00    +0.000 A 
ATOM      2  N   UNL     1       4.524   3.011  16.566  0.00  0.00    +0.000 NA
ATOM      3  C   UNL     1       3.702   2.893  17.640  0.00  0.00    +0.000 A 
ATOM      4  C   UNL     1       3.685   3.779  18.718  0.00  0.00    +0.000 A 
ATOM      5  N   UNL     1       2.764   3.600  19.762  0.00  0.00    +0.000 N 
ATOM      6  N   UNL     1       4.526   4.830  18.715  0.00  0.00    +0.000 NA
ATOM      7  C   UNL     1       5.341   5.035  17.632  0.00  0.00    +0.000 A 
ATOM      8  H   UNL     1       2.812   2.648  20.111  0.00  0.00    +0.000 HD
ENDROOT
BRANCH   7   9
ATOM      9  C   UNL     1       6.244   6.218  17.754  0.00  0.00    +0.000 A 
ATOM     10  C   UNL     1       5.890   7.455  17.167  0.00  0.00    +0.000 A 
ATOM     11  C   UNL     1       6.651   8.615  17.319  0.00  0.00    +0.000 A 
ATOM     12  C   UNL     1       7.857   8.552  17.990  0.00  0.00    +0.000 A 
ATOM     13 CL   UNL     1       8.838   9.954  18.126  0.00  0.00    +0.000 Cl
ATOM     14  C   UNL     1       8.285   7.352  18.531  0.00  0.00    +0.000 A 
ATOM     15  C   UNL     1       7.486   6.200  18.430  0.00  0.00    +0.000 A 
ATOM     16 CL   UNL     1       8.159   4.813  19.210  0.00  0.00    +0.000 Cl
ENDBRANCH   7   9
BRANCH   1  21
ATOM     17  C   UNL     1       6.791   3.694  11.872  0.00  0.00    +0.000 C 
ATOM     18  C   UNL     1       6.805   4.154  13.279  0.00  0.00    +0.000 A 
ATOM     19  C   UNL     1       7.626   5.059  13.911  0.00  0.00    +0.000 A 
ATOM     20  N   UNL     1       7.162   5.129  15.198  0.00  0.00    +0.000 N 
ATOM     21  C   UNL     1       6.102   4.260  15.326  0.00  0.00    +0.000 A 
ATOM     22  N   UNL     1       5.900   3.643  14.175  0.00  0.00    +0.000 NA
ATOM     23  H   UNL     1       7.508   5.719  15.942  0.00  0.00    +0.000 HD
ENDBRANCH   1  21
BRANCH   5  24
ATOM     24  C   UNL     1       2.805   4.590  20.853  0.00  0.00    +0.000 C 
BRANCH  24  25
ATOM     25  C   UNL     1       1.872   5.783  20.567  0.00  0.00    +0.000 C 
BRANCH  25  26
ATOM     26  N   UNL     1       2.603   6.939  20.005  0.00  0.00    +0.000 N 
ATOM     27  H   UNL     1       3.174   6.661  19.208  0.00  0.00    +0.000 HD
BRANCH  26  28
ATOM     28  C   UNL     1       1.825   8.066  19.679  0.00  0.00    +0.000 A 
ATOM     29  C   UNL     1       1.046   8.759  20.604  0.00  0.00    +0.000 A 
ATOM     30  C   UNL     1       0.341   9.920  20.257  0.00  0.00    +0.000 A 
ATOM     31  C   UNL     1       0.435  10.438  18.968  0.00  0.00    +0.000 A 
ATOM     32  C   UNL     1       1.241   9.795  18.033  0.00  0.00    +0.000 A 
ATOM     33  C   UNL     1       1.948   8.630  18.388  0.00  0.00    +0.000 A 
BRANCH  31  34
ATOM     34  C   UNL     1      -0.294  11.629  18.614  0.00  0.00    +0.000 C 
ATOM     35  N   UNL     1      -0.878  12.593  18.336  0.00  0.00    +0.000 NA
ENDBRANCH  31  34
ENDBRANCH  26  28
ENDBRANCH  25  26
ENDBRANCH  24  25
ENDBRANCH   5  24
TORSDOF 7
ENDMDL
MODEL 5
REMARK VINA RESULT:      -7.4      3.399      9.824
REMARK  Name = 
REMARK  8 active torsions:
REMARK  status: ('A' for Active; 'I' for Inactive)
REMARK    1  A    between atoms: C_1  and  C_2
REMARK    2  A    between atoms: C_5  and  C_6
REMARK    3  A    between atoms: N_10  and  C_11
REMARK    4  A    between atoms: C_11  and  C_12
REMARK    5  A    between atoms: C_12  and  N_13
REMARK    6  A    between atoms: N_13  and  C_14
REMARK    7  A    between atoms: C_17  and  C_18
REMARK    8  A    between atoms: C_23  and  C_24
REMARK                            x       y       z     vdW  Elec       q    Type
REMARK                         _______ _______ _______ _____ _____    ______ ____
ROOT
ATOM      1  C   UNL     1      -0.481  10.869  21.635  0.00  0.00    +0.000 A 
ATOM      2  N   UNL     1       0.162  10.448  22.762  0.00  0.00    +0.000 NA
ATOM      3  C   UNL     1       0.981   9.377  22.596  0.00  0.00    +0.000 A 
ATOM      4  C   UNL     1       1.130   8.680  21.397  0.00  0.00    +0.000 A 
ATOM      5  N   UNL     1       2.038   7.613  21.311  0.00  0.00    +0.000 N 
ATOM      6  N   UNL     1       0.432   9.079  20.317  0.00  0.00    +0.000 NA
ATOM      7  C   UNL     1      -0.367  10.188  20.405  0.00  0.00    +0.000 A 
ATOM      8  H   UNL     1       1.873   6.953  22.064  0.00  0.00    +0.000 HD
ENDROOT
BRANCH   7   9
ATOM      9  C   UNL     1      -1.108  10.518  19.151  0.00  0.00    +0.000 A 
ATOM     10  C   UNL     1      -2.068   9.621  18.628  0.00  0.00    +0.000 A 
ATOM     11  C   UNL     1      -2.851   9.912  17.509  0.00  0.00    +0.000 A 
ATOM     12  C   UNL     1      -2.626  11.082  16.810  0.00  0.00    +0.000 A 
ATOM     13 CL   UNL     1      -3.531  11.422  15.391  0.00  0.00    +0.000 Cl
ATOM     14  C   UNL     1      -1.652  11.968  17.239  0.00  0.00    +0.000 A 
ATOM     15  C   UNL     1      -0.910  11.701  18.402  0.00  0.00    +0.000 A 
ATOM     16 CL   UNL     1       0.219  12.943  18.810  0.00  0.00    +0.000 Cl
ENDBRANCH   7   9
BRANCH   1  21
ATOM     17  C   UNL     1      -1.668  15.598  22.373  0.00  0.00    +0.000 C 
ATOM     18  C   UNL     1      -1.874  14.153  22.131  0.00  0.00    +0.000 A 
ATOM     19  C   UNL     1      -3.032  13.447  21.896  0.00  0.00    +0.000 A 
ATOM     20  N   UNL     1      -2.631  12.152  21.700  0.00  0.00    +0.000 N 
ATOM     21  C   UNL     1      -1.262  12.095  21.842  0.00  0.00    +0.000 A 
ATOM     22  N   UNL     1      -0.802  13.298  22.134  0.00  0.00    +0.000 NA
ATOM     23  H   UNL     1      -3.214  11.358  21.473  0.00  0.00    +0.000 HD
ENDBRANCH   1  21
BRANCH   5  24
ATOM     24  C   UNL     1       2.144   6.943  20.003  0.00  0.00    +0.000 C 
BRANCH  24  25
ATOM     25  C   UNL     1       1.894   5.426  20.126  0.00  0.00    +0.000 C 
BRANCH  25  26
ATOM     26  N   UNL     1       3.155   4.658  20.182  0.00  0.00    +0.000 N 
ATOM     27  H   UNL     1       2.976   3.666  20.332  0.00  0.00    +0.000 HD
BRANCH  26  28
ATOM     28  C   UNL     1       4.040   4.836  19.101  0.00  0.00    +0.000 A 
ATOM     29  C   UNL     1       5.325   5.357  19.236  0.00  0.00    +0.000 A 
ATOM     30  C   UNL     1       6.203   5.454  18.146  0.00  0.00    +0.000 A 
ATOM     31  C   UNL     1       5.817   4.987  16.892  0.00  0.00    +0.000 A 
ATOM     32  C   UNL     1       4.557   4.419  16.735  0.00  0.00    +0.000 A 
ATOM     33  C   UNL     1       3.680   4.324  17.833  0.00  0.00    +0.000 A 
BRANCH  31  34
ATOM     34  C   UNL     1       6.720   5.091  15.774  0.00  0.00    +0.000 C 
ATOM     35  N   UNL     1       7.443   5.183  14.871  0.00  0.00    +0.000 NA
ENDBRANCH  31  34
ENDBRANCH  26  28
ENDBRANCH  25  26
ENDBRANCH  24  25
ENDBRANCH   5  24
TORSDOF 7
ENDMDL
MODEL 6
REMARK VINA RESULT:      -7.4      1.043      1.762
REMARK  Name = 
REMARK  8 active torsions:
REMARK  status: ('A' for Active; 'I' for Inactive)
REMARK    1  A    between atoms: C_1  and  C_2
REMARK    2  A    between atoms: C_5  and  C_6
REMARK    3  A    between atoms: N_10  and  C_11
REMARK    4  A    between atoms: C_11  and  C_12
REMARK    5  A    between atoms: C_12  and  N_13
REMARK    6  A    between atoms: N_13  and  C_14
REMARK    7  A    between atoms: C_17  and  C_18
REMARK    8  A    between atoms: C_23  and  C_24
REMARK                            x       y       z     vdW  Elec       q    Type
REMARK                         _______ _______ _______ _____ _____    ______ ____
ROOT
ATOM      1  C   UNL     1       5.065   4.058  16.388  0.00  0.00    +0.000 A 
ATOM      2  N   UNL     1       4.265   2.954  16.392  0.00  0.00    +0.000 NA
ATOM      3  C   UNL     1       3.489   2.804  17.496  0.00  0.00    +0.000 A 
ATOM      4  C   UNL     1       3.526   3.652  18.604  0.00  0.00    +0.000 A 
ATOM      5  N   UNL     1       2.649   3.444  19.680  0.00  0.00    +0.000 N 
ATOM      6  N   UNL     1       4.374   4.697  18.599  0.00  0.00    +0.000 NA
ATOM      7  C   UNL     1       5.142   4.935  17.490  0.00  0.00    +0.000 A 
ATOM      8  H   UNL     1       2.705   2.480  19.994  0.00  0.00    +0.000 HD
ENDROOT
BRANCH   7   9
ATOM      9  C   UNL     1       6.059   6.107  17.613  0.00  0.00    +0.000 A 
ATOM     10  C   UNL     1       5.634   7.395  17.213  0.00  0.00    +0.000 A 
ATOM     11  C   UNL     1       6.414   8.540  17.382  0.00  0.00    +0.000 A 
ATOM     12  C   UNL     1       7.700   8.419  17.874  0.00  0.00    +0.000 A 
ATOM     13 CL   UNL     1       8.697   9.809  18.023  0.00  0.00    +0.000 Cl
ATOM     14  C   UNL     1       8.192   7.173  18.222  0.00  0.00    +0.000 A 
ATOM     15  C   UNL     1       7.382   6.030  18.109  0.00  0.00    +0.000 A 
ATOM     16 CL   UNL     1       8.148   4.576  18.639  0.00  0.00    +0.000 Cl
ENDBRANCH   7   9
BRANCH   1  21
ATOM     17  C   UNL     1       8.258   5.723  13.019  0.00  0.00    +0.000 C 
ATOM     18  C   UNL     1       7.187   4.880  13.597  0.00  0.00    +0.000 A 
ATOM     19  C   UNL     1       6.534   3.788  13.073  0.00  0.00    +0.000 A 
ATOM     20  N   UNL     1       5.671   3.380  14.054  0.00  0.00    +0.000 N 
ATOM     21  C   UNL     1       5.797   4.234  15.128  0.00  0.00    +0.000 A 
ATOM     22  N   UNL     1       6.692   5.164  14.844  0.00  0.00    +0.000 NA
ATOM     23  H   UNL     1       5.049   2.583  14.030  0.00  0.00    +0.000 HD
ENDBRANCH   1  21
BRANCH   5  24
ATOM     24  C   UNL     1       2.745   4.395  20.801  0.00  0.00    +0.000 C 
BRANCH  24  25
ATOM     25  C   UNL     1       1.887   5.651  20.549  0.00  0.00    +0.000 C 
BRANCH  25  26
ATOM     26  N   UNL     1       2.696   6.788  20.062  0.00  0.00    +0.000 N 
ATOM     27  H   UNL     1       3.327   6.499  19.316  0.00  0.00    +0.000 HD
BRANCH  26  28
ATOM     28  C   UNL     1       1.981   7.939  19.678  0.00  0.00    +0.000 A 
ATOM     29  C   UNL     1       1.961   8.434  18.375  0.00  0.00    +0.000 A 
ATOM     30  C   UNL     1       1.181   9.542  18.016  0.00  0.00    +0.000 A 
ATOM     31  C   UNL     1       0.364  10.160  18.960  0.00  0.00    +0.000 A 
ATOM     32  C   UNL     1       0.328   9.662  20.258  0.00  0.00    +0.000 A 
ATOM     33  C   UNL     1       1.113   8.547  20.613  0.00  0.00    +0.000 A 
BRANCH  31  34
ATOM     34  C   UNL     1      -0.433  11.301  18.588  0.00  0.00    +0.000 C 
ATOM     35  N   UNL     1      -1.077  12.215  18.280  0.00  0.00    +0.000 NA
ENDBRANCH  31  34
ENDBRANCH  26  28
ENDBRANCH  25  26
ENDBRANCH  24  25
ENDBRANCH   5  24
TORSDOF 7
ENDMDL
MODEL 7
REMARK VINA RESULT:      -7.4      3.437      9.940
REMARK  Name = 
REMARK  8 active torsions:
REMARK  status: ('A' for Active; 'I' for Inactive)
REMARK    1  A    between atoms: C_1  and  C_2
REMARK    2  A    between atoms: C_5  and  C_6
REMARK    3  A    between atoms: N_10  and  C_11
REMARK    4  A    between atoms: C_11  and  C_12
REMARK    5  A    between atoms: C_12  and  N_13
REMARK    6  A    between atoms: N_13  and  C_14
REMARK    7  A    between atoms: C_17  and  C_18
REMARK    8  A    between atoms: C_23  and  C_24
REMARK                            x       y       z     vdW  Elec       q    Type
REMARK                         _______ _______ _______ _____ _____    ______ ____
ROOT
ATOM      1  C   UNL     1      -0.464  10.829  21.630  0.00  0.00    +0.000 A 
ATOM      2  N   UNL     1       0.215  10.394  22.731  0.00  0.00    +0.000 NA
ATOM      3  C   UNL     1       1.023   9.322  22.527  0.00  0.00    +0.000 A 
ATOM      4  C   UNL     1       1.129   8.637  21.316  0.00  0.00    +0.000 A 
ATOM      5  N   UNL     1       2.030   7.568  21.189  0.00  0.00    +0.000 N 
ATOM      6  N   UNL     1       0.398   9.050  20.264  0.00  0.00    +0.000 NA
ATOM      7  C   UNL     1      -0.394  10.161  20.391  0.00  0.00    +0.000 A 
ATOM      8  H   UNL     1       1.888   6.900  21.940  0.00  0.00    +0.000 HD
ENDROOT
BRANCH   7   9
ATOM      9  C   UNL     1      -1.175  10.506  19.165  0.00  0.00    +0.000 A 
ATOM     10  C   UNL     1      -2.226   9.670  18.725  0.00  0.00    +0.000 A 
ATOM     11  C   UNL     1      -3.044   9.984  17.638  0.00  0.00    +0.000 A 
ATOM     12  C   UNL     1      -2.771  11.111  16.887  0.00  0.00    +0.000 A 
ATOM     13 CL   UNL     1      -3.723  11.474  15.506  0.00  0.00    +0.000 Cl
ATOM     14  C   UNL     1      -1.713  11.933  17.234  0.00  0.00    +0.000 A 
ATOM     15  C   UNL     1      -0.930  11.648  18.366  0.00  0.00    +0.000 A 
ATOM     16 CL   UNL     1       0.308  12.813  18.671  0.00  0.00    +0.000 Cl
ENDBRANCH   7   9
BRANCH   1  21
ATOM     17  C   UNL     1      -4.181  13.897  22.674  0.00  0.00    +0.000 C 
ATOM     18  C   UNL     1      -2.799  13.473  22.358  0.00  0.00    +0.000 A 
ATOM     19  C   UNL     1      -1.637  14.207  22.290  0.00  0.00    +0.000 A 
ATOM     20  N   UNL     1      -0.653  13.299  22.000  0.00  0.00    +0.000 N 
ATOM     21  C   UNL     1      -1.233  12.056  21.876  0.00  0.00    +0.000 A 
ATOM     22  N   UNL     1      -2.537  12.160  22.061  0.00  0.00    +0.000 NA
ATOM     23  H   UNL     1       0.337  13.479  21.905  0.00  0.00    +0.000 HD
ENDBRANCH   1  21
BRANCH   5  24
ATOM     24  C   UNL     1       2.090   6.911  19.871  0.00  0.00    +0.000 C 
BRANCH  24  25
ATOM     25  C   UNL     1       2.800   5.545  19.955  0.00  0.00    +0.000 C 
BRANCH  25  26
ATOM     26  N   UNL     1       4.252   5.657  19.696  0.00  0.00    +0.000 N 
ATOM     27  H   UNL     1       4.793   5.203  20.430  0.00  0.00    +0.000 HD
BRANCH  26  28
ATOM     28  C   UNL     1       4.691   5.228  18.429  0.00  0.00    +0.000 A 
ATOM     29  C   UNL     1       4.181   4.108  17.775  0.00  0.00    +0.000 A 
ATOM     30  C   UNL     1       4.593   3.753  16.483  0.00  0.00    +0.000 A 
ATOM     31  C   UNL     1       5.510   4.546  15.797  0.00  0.00    +0.000 A 
ATOM     32  C   UNL     1       6.004   5.696  16.404  0.00  0.00    +0.000 A 
ATOM     33  C   UNL     1       5.585   6.049  17.702  0.00  0.00    +0.000 A 
BRANCH  31  34
ATOM     34  C   UNL     1       5.934   4.176  14.471  0.00  0.00    +0.000 C 
ATOM     35  N   UNL     1       6.281   3.870  13.406  0.00  0.00    +0.000 NA
ENDBRANCH  31  34
ENDBRANCH  26  28
ENDBRANCH  25  26
ENDBRANCH  24  25
ENDBRANCH   5  24
TORSDOF 7
ENDMDL
MODEL 8
REMARK VINA RESULT:      -7.4      4.831     11.175
REMARK  Name = 
REMARK  8 active torsions:
REMARK  status: ('A' for Active; 'I' for Inactive)
REMARK    1  A    between atoms: C_1  and  C_2
REMARK    2  A    between atoms: C_5  and  C_6
REMARK    3  A    between atoms: N_10  and  C_11
REMARK    4  A    between atoms: C_11  and  C_12
REMARK    5  A    between atoms: C_12  and  N_13
REMARK    6  A    between atoms: N_13  and  C_14
REMARK    7  A    between atoms: C_17  and  C_18
REMARK    8  A    between atoms: C_23  and  C_24
REMARK                            x       y       z     vdW  Elec       q    Type
REMARK                         _______ _______ _______ _____ _____    ______ ____
ROOT
ATOM      1  C   UNL     1      -3.480  12.052  19.443  0.00  0.00    +0.000 A 
ATOM      2  N   UNL     1      -3.726  11.260  18.360  0.00  0.00    +0.000 NA
ATOM      3  C   UNL     1      -2.647  10.598  17.869  0.00  0.00    +0.000 A 
ATOM      4  C   UNL     1      -1.348  10.741  18.357  0.00  0.00    +0.000 A 
ATOM      5  N   UNL     1      -0.304   9.976  17.814  0.00  0.00    +0.000 N 
ATOM      6  N   UNL     1      -1.124  11.580  19.386  0.00  0.00    +0.000 NA
ATOM      7  C   UNL     1      -2.181  12.234  19.962  0.00  0.00    +0.000 A 
ATOM      8  H   UNL     1      -0.294  10.067  16.803  0.00  0.00    +0.000 HD
ENDROOT
BRANCH   7   9
ATOM      9  C   UNL     1      -1.805  13.153  21.077  0.00  0.00    +0.000 A 
ATOM     10  C   UNL     1      -1.716  14.547  20.859  0.00  0.00    +0.000 A 
ATOM     11  C   UNL     1      -1.452  15.462  21.880  0.00  0.00    +0.000 A 
ATOM     12  C   UNL     1      -1.170  14.998  23.150  0.00  0.00    +0.000 A 
ATOM     13 CL   UNL     1      -0.775  16.106  24.401  0.00  0.00    +0.000 Cl
ATOM     14  C   UNL     1      -1.179  13.638  23.407  0.00  0.00    +0.000 A 
ATOM     15  C   UNL     1      -1.507  12.723  22.392  0.00  0.00    +0.000 A 
ATOM     16 CL   UNL     1      -1.519  11.076  22.912  0.00  0.00    +0.000 Cl
ENDBRANCH   7   9
BRANCH   1  21
ATOM     17  C   UNL     1      -7.313  12.972  22.406  0.00  0.00    +0.000 C 
ATOM     18  C   UNL     1      -6.385  13.150  21.267  0.00  0.00    +0.000 A 
ATOM     19  C   UNL     1      -6.326  14.140  20.313  0.00  0.00    +0.000 A 
ATOM     20  N   UNL     1      -5.247  13.824  19.532  0.00  0.00    +0.000 N 
ATOM     21  C   UNL     1      -4.696  12.654  20.004  0.00  0.00    +0.000 A 
ATOM     22  N   UNL     1      -5.399  12.224  21.036  0.00  0.00    +0.000 NA
ATOM     23  H   UNL     1      -4.884  14.349  18.748  0.00  0.00    +0.000 HD
ENDBRANCH   1  21
BRANCH   5  24
ATOM     24  C   UNL     1       1.034  10.178  18.399  0.00  0.00    +0.000 C 
BRANCH  24  25
ATOM     25  C   UNL     1       1.923   8.932  18.216  0.00  0.00    +0.000 C 
BRANCH  25  26
ATOM     26  N   UNL     1       2.004   8.122  19.450  0.00  0.00    +0.000 N 
ATOM     27  H   UNL     1       1.149   8.200  19.999  0.00  0.00    +0.000 HD
BRANCH  26  28
ATOM     28  C   UNL     1       2.353   6.768  19.281  0.00  0.00    +0.000 A 
ATOM     29  C   UNL     1       2.090   5.781  20.229  0.00  0.00    +0.000 A 
ATOM     30  C   UNL     1       2.389   4.431  19.995  0.00  0.00    +0.000 A 
ATOM     31  C   UNL     1       2.931   4.034  18.775  0.00  0.00    +0.000 A 
ATOM     32  C   UNL     1       3.164   4.990  17.791  0.00  0.00    +0.000 A 
ATOM     33  C   UNL     1       2.860   6.344  18.031  0.00  0.00    +0.000 A 
BRANCH  31  34
ATOM     34  C   UNL     1       3.240   2.647  18.539  0.00  0.00    +0.000 C 
ATOM     35  N   UNL     1       3.498   1.533  18.345  0.00  0.00    +0.000 NA
ENDBRANCH  31  34
ENDBRANCH  26  28
ENDBRANCH  25  26
ENDBRANCH  24  25
ENDBRANCH   5  24
TORSDOF 7
ENDMDL
MODEL 9
REMARK VINA RESULT:      -7.3      5.855     10.016
REMARK  Name = 
REMARK  8 active torsions:
REMARK  status: ('A' for Active; 'I' for Inactive)
REMARK    1  A    between atoms: C_1  and  C_2
REMARK    2  A    between atoms: C_5  and  C_6
REMARK    3  A    between atoms: N_10  and  C_11
REMARK    4  A    between atoms: C_11  and  C_12
REMARK    5  A    between atoms: C_12  and  N_13
REMARK    6  A    between atoms: N_13  and  C_14
REMARK    7  A    between atoms: C_17  and  C_18
REMARK    8  A    between atoms: C_23  and  C_24
REMARK                            x       y       z     vdW  Elec       q    Type
REMARK                         _______ _______ _______ _____ _____    ______ ____
ROOT
ATOM      1  C   UNL     1      -0.440  12.555  18.459  0.00  0.00    +0.000 A 
ATOM      2  N   UNL     1      -0.725  13.889  18.442  0.00  0.00    +0.000 NA
ATOM      3  C   UNL     1       0.333  14.710  18.663  0.00  0.00    +0.000 A 
ATOM      4  C   UNL     1       1.622  14.269  18.962  0.00  0.00    +0.000 A 
ATOM      5  N   UNL     1       2.663  15.195  19.128  0.00  0.00    +0.000 N 
ATOM      6  N   UNL     1       1.860  12.946  19.037  0.00  0.00    +0.000 NA
ATOM      7  C   UNL     1       0.846  12.065  18.768  0.00  0.00    +0.000 A 
ATOM      8  H   UNL     1       2.391  15.911  19.794  0.00  0.00    +0.000 HD
ENDROOT
BRANCH   7   9
ATOM      9  C   UNL     1       1.224  10.626  18.906  0.00  0.00    +0.000 A 
ATOM     10  C   UNL     1       1.903   9.960  17.860  0.00  0.00    +0.000 A 
ATOM     11  C   UNL     1       2.357   8.644  17.965  0.00  0.00    +0.000 A 
ATOM     12  C   UNL     1       2.056   7.911  19.097  0.00  0.00    +0.000 A 
ATOM     13 CL   UNL     1       2.546   6.269  19.212  0.00  0.00    +0.000 Cl
ATOM     14  C   UNL     1       1.337   8.492  20.127  0.00  0.00    +0.000 A 
ATOM     15  C   UNL     1       0.936   9.837  20.044  0.00  0.00    +0.000 A 
ATOM     16 CL   UNL     1       0.097  10.403  21.444  0.00  0.00    +0.000 Cl
ENDBRANCH   7   9
BRANCH   1  21
ATOM     17  C   UNL     1      -5.025  10.757  18.201  0.00  0.00    +0.000 C 
ATOM     18  C   UNL     1      -3.580  10.880  17.905  0.00  0.00    +0.000 A 
ATOM     19  C   UNL     1      -2.797  10.204  16.998  0.00  0.00    +0.000 A 
ATOM     20  N   UNL     1      -1.548  10.750  17.121  0.00  0.00    +0.000 N 
ATOM     21  C   UNL     1      -1.591  11.715  18.103  0.00  0.00    +0.000 A 
ATOM     22  N   UNL     1      -2.812  11.777  18.603  0.00  0.00    +0.000 NA
ATOM     23  H   UNL     1      -0.722  10.517  16.587  0.00  0.00    +0.000 HD
ENDBRANCH   1  21
BRANCH   5  24
ATOM     24  C   UNL     1       3.996  14.642  19.427  0.00  0.00    +0.000 C 
BRANCH  24  25
ATOM     25  C   UNL     1       4.908  14.665  18.183  0.00  0.00    +0.000 C 
BRANCH  25  26
ATOM     26  N   UNL     1       6.147  15.436  18.417  0.00  0.00    +0.000 N 
ATOM     27  H   UNL     1       6.100  15.952  19.294  0.00  0.00    +0.000 HD
BRANCH  26  28
ATOM     28  C   UNL     1       7.352  14.712  18.341  0.00  0.00    +0.000 A 
ATOM     29  C   UNL     1       8.467  14.986  19.131  0.00  0.00    +0.000 A 
ATOM     30  C   UNL     1       9.625  14.198  19.077  0.00  0.00    +0.000 A 
ATOM     31  C   UNL     1       9.675  13.080  18.246  0.00  0.00    +0.000 A 
ATOM     32  C   UNL     1       8.562  12.754  17.479  0.00  0.00    +0.000 A 
ATOM     33  C   UNL     1       7.400  13.549  17.538  0.00  0.00    +0.000 A 
BRANCH  31  34
ATOM     34  C   UNL     1      10.867  12.275  18.191  0.00  0.00    +0.000 C 
ATOM     35  N   UNL     1      11.823  11.618  18.148  0.00  0.00    +0.000 NA
ENDBRANCH  31  34
ENDBRANCH  26  28
ENDBRANCH  25  26
ENDBRANCH  24  25
ENDBRANCH   5  24
TORSDOF 7
ENDMDL
