MODEL 1
REMARK VINA RESULT:      -8.9      0.000      0.000
REMARK  Name = 
REMARK  8 active torsions:
REMARK  status: ('A' for Active; 'I' for Inactive)
REMARK    1  A    between atoms: C_1  and  C_2
REMARK    2  A    between atoms: N_4  and  C_5
REMARK    3  A    between atoms: C_5  and  C_6
REMARK    4  A    between atoms: C_5  and  C_19
REMARK    5  A    between atoms: C_9  and  C_10
REMARK    6  A    between atoms: C_10  and  C_11
REMARK    7  A    between atoms: C_24  and  C_25
REMARK    8  A    between atoms: N_29  and  C_30
REMARK                            x       y       z     vdW  Elec       q    Type
REMARK                         _______ _______ _______ _____ _____    ______ ____
ROOT
ATOM      1  C   UNL     1       3.956   4.495  19.526  0.00  0.00    +0.000 C 
ENDROOT
BRANCH   1   2
ATOM      2  C   UNL     1       3.160   5.778  19.551  0.00  0.00    +0.000 A 
ATOM      3  N   UNL     1       2.525   6.260  20.601  0.00  0.00    +0.000 NA
ATOM      4  C   UNL     1       1.934   7.473  20.284  0.00  0.00    +0.000 A 
ATOM      5  C   UNL     1       1.144   8.264  21.137  0.00  0.00    +0.000 A 
ATOM      6  C   UNL     1       0.609   9.474  20.669  0.00  0.00    +0.000 A 
ATOM      7  C   UNL     1       0.876   9.946  19.381  0.00  0.00    +0.000 A 
ATOM      8  C   UNL     1       1.660   9.152  18.525  0.00  0.00    +0.000 A 
ATOM      9  C   UNL     1       2.163   7.924  18.987  0.00  0.00    +0.000 A 
ATOM     10  S   UNL     1       3.106   6.762  18.141  0.00  0.00    +0.000 S 
BRANCH   7  11
ATOM     11  C   UNL     1       0.341  11.221  18.873  0.00  0.00    +0.000 A 
ATOM     12  C   UNL     1       0.954  12.468  18.852  0.00  0.00    +0.000 A 
ATOM     13  C   UNL     1       0.012  13.355  18.314  0.00  0.00    +0.000 A 
ATOM     14  N   UNL     1      -1.128  12.743  17.999  0.00  0.00    +0.000 NA
ATOM     15  N   UNL     1      -0.918  11.458  18.352  0.00  0.00    +0.000 N 
ATOM     16  C   UNL     1      -2.016  10.534  18.187  0.00  0.00    +0.000 C 
ENDBRANCH   7  11
ENDBRANCH   1   2
BRANCH   1  20
ATOM     17  C   UNL     1       1.825   1.652  18.222  0.00  0.00    +0.000 C 
ATOM     18  C   UNL     1       2.440   2.577  19.234  0.00  0.00    +0.000 C 
ATOM     19  O   UNL     1       2.229   2.493  20.440  0.00  0.00    +0.000 OA
ATOM     20  N   UNL     1       3.247   3.538  18.688  0.00  0.00    +0.000 N 
ATOM     21  H   UNL     1       3.482   3.533  17.701  0.00  0.00    +0.000 HD
ENDBRANCH   1  20
BRANCH   1  22
ATOM     22  C   UNL     1       5.340   4.701  18.999  0.00  0.00    +0.000 A 
ATOM     23  N   UNL     1       6.409   5.214  19.578  0.00  0.00    +0.000 NA
ATOM     24  N   UNL     1       7.411   5.210  18.630  0.00  0.00    +0.000 NA
ATOM     25  C   UNL     1       6.886   4.706  17.534  0.00  0.00    +0.000 A 
ATOM     26  O   UNL     1       5.579   4.338  17.695  0.00  0.00    +0.000 OA
BRANCH  25  27
ATOM     27  C   UNL     1       7.516   4.491  16.206  0.00  0.00    +0.000 C 
BRANCH  27  28
ATOM     28  C   UNL     1       6.690   4.973  15.016  0.00  0.00    +0.000 C 
ATOM     29  S   UNL     1       5.319   3.870  14.543  0.00  0.00    +0.000 S 
ATOM     30  C   UNL     1       5.902   3.687  12.906  0.00  0.00    +0.000 C 
ATOM     31  O   UNL     1       5.325   3.034  12.054  0.00  0.00    +0.000 OA
ATOM     32  N   UNL     1       7.042   4.392  12.729  0.00  0.00    +0.000 N 
ATOM     33  C   UNL     1       7.529   5.131  13.766  0.00  0.00    +0.000 C 
ATOM     34  O   UNL     1       8.522   5.843  13.690  0.00  0.00    +0.000 OA
ATOM     35  H   UNL     1       7.512   4.369  11.837  0.00  0.00    +0.000 HD
ENDBRANCH  27  28
ENDBRANCH  25  27
ENDBRANCH   1  22
TORSDOF 6
ENDMDL
MODEL 2
REMARK VINA RESULT:      -8.8      1.058      1.375
REMARK  Name = 
REMARK  8 active torsions:
REMARK  status: ('A' for Active; 'I' for Inactive)
REMARK    1  A    between atoms: C_1  and  C_2
REMARK    2  A    between atoms: N_4  and  C_5
REMARK    3  A    between atoms: C_5  and  C_6
REMARK    4  A    between atoms: C_5  and  C_19
REMARK    5  A    between atoms: C_9  and  C_10
REMARK    6  A    between atoms: C_10  and  C_11
REMARK    7  A    between atoms: C_24  and  C_25
REMARK    8  A    between atoms: N_29  and  C_30
REMARK                            x       y       z     vdW  Elec       q    Type
REMARK                         _______ _______ _______ _____ _____    ______ ____
ROOT
ATOM      1  C   UNL     1       3.920   4.639  19.507  0.00  0.00    +0.000 C 
ENDROOT
BRANCH   1   2
ATOM      2  C   UNL     1       3.190   5.958  19.424  0.00  0.00    +0.000 A 
ATOM      3  N   UNL     1       3.234   6.790  18.401  0.00  0.00    +0.000 NA
ATOM      4  C   UNL     1       2.416   7.882  18.642  0.00  0.00    +0.000 A 
ATOM      5  C   UNL     1       2.235   8.991  17.795  0.00  0.00    +0.000 A 
ATOM      6  C   UNL     1       1.370  10.027  18.178  0.00  0.00    +0.000 A 
ATOM      7  C   UNL     1       0.639   9.972  19.368  0.00  0.00    +0.000 A 
ATOM      8  C   UNL     1       0.823   8.867  20.218  0.00  0.00    +0.000 A 
ATOM      9  C   UNL     1       1.719   7.849  19.846  0.00  0.00    +0.000 A 
ATOM     10  S   UNL     1       2.149   6.427  20.711  0.00  0.00    +0.000 S 
BRANCH   7  11
ATOM     11  C   UNL     1      -0.290  11.038  19.783  0.00  0.00    +0.000 A 
ATOM     12  C   UNL     1      -0.153  11.946  20.825  0.00  0.00    +0.000 A 
ATOM     13  C   UNL     1      -1.326  12.713  20.829  0.00  0.00    +0.000 A 
ATOM     14  N   UNL     1      -2.166  12.346  19.864  0.00  0.00    +0.000 NA
ATOM     15  N   UNL     1      -1.532  11.327  19.248  0.00  0.00    +0.000 N 
ATOM     16  C   UNL     1      -2.230  10.662  18.171  0.00  0.00    +0.000 C 
ENDBRANCH   7  11
ENDBRANCH   1   2
BRANCH   1  20
ATOM     17  C   UNL     1       1.727   1.774  18.361  0.00  0.00    +0.000 C 
ATOM     18  C   UNL     1       2.379   2.727  19.323  0.00  0.00    +0.000 C 
ATOM     19  O   UNL     1       2.201   2.686  20.537  0.00  0.00    +0.000 OA
ATOM     20  N   UNL     1       3.179   3.661  18.722  0.00  0.00    +0.000 N 
ATOM     21  H   UNL     1       3.385   3.619  17.730  0.00  0.00    +0.000 HD
ENDBRANCH   1  20
BRANCH   1  22
ATOM     22  C   UNL     1       5.322   4.738  18.999  0.00  0.00    +0.000 A 
ATOM     23  N   UNL     1       6.424   5.141  19.600  0.00  0.00    +0.000 NA
ATOM     24  N   UNL     1       7.434   5.075  18.662  0.00  0.00    +0.000 NA
ATOM     25  C   UNL     1       6.880   4.646  17.548  0.00  0.00    +0.000 A 
ATOM     26  O   UNL     1       5.544   4.389  17.687  0.00  0.00    +0.000 OA
BRANCH  25  27
ATOM     27  C   UNL     1       7.504   4.411  16.221  0.00  0.00    +0.000 C 
BRANCH  27  28
ATOM     28  C   UNL     1       6.686   4.901  15.028  0.00  0.00    +0.000 C 
ATOM     29  S   UNL     1       5.342   3.782  14.515  0.00  0.00    +0.000 S 
ATOM     30  C   UNL     1       5.951   3.641  12.884  0.00  0.00    +0.000 C 
ATOM     31  O   UNL     1       5.399   2.994  12.011  0.00  0.00    +0.000 OA
ATOM     32  N   UNL     1       7.080   4.371  12.736  0.00  0.00    +0.000 N 
ATOM     33  C   UNL     1       7.539   5.098  13.794  0.00  0.00    +0.000 C 
ATOM     34  O   UNL     1       8.519   5.830  13.746  0.00  0.00    +0.000 OA
ATOM     35  H   UNL     1       7.562   4.374  11.851  0.00  0.00    +0.000 HD
ENDBRANCH  27  28
ENDBRANCH  25  27
ENDBRANCH   1  22
TORSDOF 6
ENDMDL
MODEL 3
REMARK VINA RESULT:      -8.7      0.843      1.223
REMARK  Name = 
REMARK  8 active torsions:
REMARK  status: ('A' for Active; 'I' for Inactive)
REMARK    1  A    between atoms: C_1  and  C_2
REMARK    2  A    between atoms: N_4  and  C_5
REMARK    3  A    between atoms: C_5  and  C_6
REMARK    4  A    between atoms: C_5  and  C_19
REMARK    5  A    between atoms: C_9  and  C_10
REMARK    6  A    between atoms: C_10  and  C_11
REMARK    7  A    between atoms: C_24  and  C_25
REMARK    8  A    between atoms: N_29  and  C_30
REMARK                            x       y       z     vdW  Elec       q    Type
REMARK                         _______ _______ _______ _____ _____    ______ ____
ROOT
ATOM      1  C   UNL     1       4.369   4.724  19.518  0.00  0.00    +0.000 C 
ENDROOT
BRANCH   1   2
ATOM      2  C   UNL     1       3.415   5.893  19.534  0.00  0.00    +0.000 A 
ATOM      3  N   UNL     1       2.692   6.273  20.570  0.00  0.00    +0.000 NA
ATOM      4  C   UNL     1       1.960   7.405  20.249  0.00  0.00    +0.000 A 
ATOM      5  C   UNL     1       1.051   8.075  21.087  0.00  0.00    +0.000 A 
ATOM      6  C   UNL     1       0.378   9.214  20.618  0.00  0.00    +0.000 A 
ATOM      7  C   UNL     1       0.620   9.737  19.345  0.00  0.00    +0.000 A 
ATOM      8  C   UNL     1       1.524   9.064  18.503  0.00  0.00    +0.000 A 
ATOM      9  C   UNL     1       2.167   7.903  18.966  0.00  0.00    +0.000 A 
ATOM     10  S   UNL     1       3.276   6.885  18.135  0.00  0.00    +0.000 S 
BRANCH   7  11
ATOM     11  C   UNL     1      -0.059  10.941  18.836  0.00  0.00    +0.000 A 
ATOM     12  C   UNL     1      -1.336  11.053  18.299  0.00  0.00    +0.000 A 
ATOM     13  C   UNL     1      -1.484  12.395  17.925  0.00  0.00    +0.000 A 
ATOM     14  N   UNL     1      -0.397  13.113  18.196  0.00  0.00    +0.000 NA
ATOM     15  N   UNL     1       0.458  12.220  18.737  0.00  0.00    +0.000 N 
ATOM     16  C   UNL     1       1.779  12.691  19.089  0.00  0.00    +0.000 C 
ENDBRANCH   7  11
ENDBRANCH   1   2
BRANCH   1  20
ATOM     17  C   UNL     1       3.227   1.287  18.415  0.00  0.00    +0.000 C 
ATOM     18  C   UNL     1       3.973   2.311  19.223  0.00  0.00    +0.000 C 
ATOM     19  O   UNL     1       4.744   2.020  20.134  0.00  0.00    +0.000 OA
ATOM     20  N   UNL     1       3.703   3.604  18.865  0.00  0.00    +0.000 N 
ATOM     21  H   UNL     1       3.137   3.820  18.052  0.00  0.00    +0.000 HD
ENDBRANCH   1  20
BRANCH   1  22
ATOM     22  C   UNL     1       5.640   5.044  18.800  0.00  0.00    +0.000 A 
ATOM     23  N   UNL     1       6.626   5.858  19.126  0.00  0.00    +0.000 NA
ATOM     24  N   UNL     1       7.535   5.813  18.090  0.00  0.00    +0.000 NA
ATOM     25  C   UNL     1       7.041   4.984  17.196  0.00  0.00    +0.000 A 
ATOM     26  O   UNL     1       5.849   4.437  17.584  0.00  0.00    +0.000 OA
BRANCH  25  27
ATOM     27  C   UNL     1       7.600   4.582  15.880  0.00  0.00    +0.000 C 
BRANCH  27  28
ATOM     28  C   UNL     1       6.754   4.978  14.672  0.00  0.00    +0.000 C 
ATOM     29  S   UNL     1       5.443   3.788  14.237  0.00  0.00    +0.000 S 
ATOM     30  C   UNL     1       6.040   3.578  12.608  0.00  0.00    +0.000 C 
ATOM     31  O   UNL     1       5.501   2.867  11.779  0.00  0.00    +0.000 OA
ATOM     32  N   UNL     1       7.142   4.336  12.408  0.00  0.00    +0.000 N 
ATOM     33  C   UNL     1       7.586   5.136  13.418  0.00  0.00    +0.000 C 
ATOM     34  O   UNL     1       8.540   5.896  13.318  0.00  0.00    +0.000 OA
ATOM     35  H   UNL     1       7.614   4.307  11.518  0.00  0.00    +0.000 HD
ENDBRANCH  27  28
ENDBRANCH  25  27
ENDBRANCH   1  22
TORSDOF 6
ENDMDL
MODEL 4
REMARK VINA RESULT:      -8.6      5.615     11.133
REMARK  Name = 
REMARK  8 active torsions:
REMARK  status: ('A' for Active; 'I' for Inactive)
REMARK    1  A    between atoms: C_1  and  C_2
REMARK    2  A    between atoms: N_4  and  C_5
REMARK    3  A    between atoms: C_5  and  C_6
REMARK    4  A    between atoms: C_5  and  C_19
REMARK    5  A    between atoms: C_9  and  C_10
REMARK    6  A    between atoms: C_10  and  C_11
REMARK    7  A    between atoms: C_24  and  C_25
REMARK    8  A    between atoms: N_29  and  C_30
REMARK                            x       y       z     vdW  Elec       q    Type
REMARK                         _______ _______ _______ _____ _____    ______ ____
ROOT
ATOM      1  C   UNL     1      -0.048  10.445  19.464  0.00  0.00    +0.000 C 
ENDROOT
BRANCH   1   2
ATOM      2  C   UNL     1       0.996   9.386  19.203  0.00  0.00    +0.000 A 
ATOM      3  N   UNL     1       1.190   8.310  19.939  0.00  0.00    +0.000 NA
ATOM      4  C   UNL     1       2.200   7.534  19.389  0.00  0.00    +0.000 A 
ATOM      5  C   UNL     1       2.707   6.333  19.915  0.00  0.00    +0.000 A 
ATOM      6  C   UNL     1       3.738   5.658  19.244  0.00  0.00    +0.000 A 
ATOM      7  C   UNL     1       4.252   6.123  18.030  0.00  0.00    +0.000 A 
ATOM      8  C   UNL     1       3.749   7.328  17.506  0.00  0.00    +0.000 A 
ATOM      9  C   UNL     1       2.742   8.019  18.203  0.00  0.00    +0.000 A 
ATOM     10  S   UNL     1       1.990   9.512  17.804  0.00  0.00    +0.000 S 
BRANCH   7  11
ATOM     11  C   UNL     1       5.320   5.423  17.296  0.00  0.00    +0.000 A 
ATOM     12  C   UNL     1       5.215   4.641  16.153  0.00  0.00    +0.000 A 
ATOM     13  C   UNL     1       6.506   4.168  15.885  0.00  0.00    +0.000 A 
ATOM     14  N   UNL     1       7.394   4.607  16.774  0.00  0.00    +0.000 NA
ATOM     15  N   UNL     1       6.662   5.355  17.625  0.00  0.00    +0.000 N 
ATOM     16  C   UNL     1       7.345   5.933  18.761  0.00  0.00    +0.000 C 
ENDBRANCH   7  11
ENDBRANCH   1   2
BRANCH   1  20
ATOM     17  C   UNL     1      -3.322  10.196  17.581  0.00  0.00    +0.000 C 
ATOM     18  C   UNL     1      -2.034  10.808  18.054  0.00  0.00    +0.000 C 
ATOM     19  O   UNL     1      -1.656  11.927  17.719  0.00  0.00    +0.000 OA
ATOM     20  N   UNL     1      -1.305   9.996  18.881  0.00  0.00    +0.000 N 
ATOM     21  H   UNL     1      -1.677   9.115  19.218  0.00  0.00    +0.000 HD
ENDBRANCH   1  20
BRANCH   1  22
ATOM     22  C   UNL     1      -0.233  10.704  20.925  0.00  0.00    +0.000 A 
ATOM     23  N   UNL     1       0.107   9.979  21.973  0.00  0.00    +0.000 NA
ATOM     24  N   UNL     1      -0.336  10.662  23.087  0.00  0.00    +0.000 NA
ATOM     25  C   UNL     1      -0.926  11.753  22.645  0.00  0.00    +0.000 A 
ATOM     26  O   UNL     1      -0.882  11.862  21.283  0.00  0.00    +0.000 OA
BRANCH  25  27
ATOM     27  C   UNL     1      -1.595  12.833  23.414  0.00  0.00    +0.000 C 
BRANCH  27  28
ATOM     28  C   UNL     1      -3.039  13.117  23.004  0.00  0.00    +0.000 C 
ATOM     29  S   UNL     1      -3.382  14.855  22.575  0.00  0.00    +0.000 S 
ATOM     30  C   UNL     1      -4.648  15.000  23.771  0.00  0.00    +0.000 C 
ATOM     31  O   UNL     1      -5.310  16.011  23.932  0.00  0.00    +0.000 OA
ATOM     32  N   UNL     1      -4.797  13.837  24.445  0.00  0.00    +0.000 N 
ATOM     33  C   UNL     1      -4.022  12.771  24.100  0.00  0.00    +0.000 C 
ATOM     34  O   UNL     1      -4.118  11.663  24.613  0.00  0.00    +0.000 OA
ATOM     35  H   UNL     1      -5.480  13.772  25.184  0.00  0.00    +0.000 HD
ENDBRANCH  27  28
ENDBRANCH  25  27
ENDBRANCH   1  22
TORSDOF 6
ENDMDL
MODEL 5
REMARK VINA RESULT:      -8.5      1.574      1.863
REMARK  Name = 
REMARK  8 active torsions:
REMARK  status: ('A' for Active; 'I' for Inactive)
REMARK    1  A    between atoms: C_1  and  C_2
REMARK    2  A    between atoms: N_4  and  C_5
REMARK    3  A    between atoms: C_5  and  C_6
REMARK    4  A    between atoms: C_5  and  C_19
REMARK    5  A    between atoms: C_9  and  C_10
REMARK    6  A    between atoms: C_10  and  C_11
REMARK    7  A    between atoms: C_24  and  C_25
REMARK    8  A    between atoms: N_29  and  C_30
REMARK                            x       y       z     vdW  Elec       q    Type
REMARK                         _______ _______ _______ _____ _____    ______ ____
ROOT
ATOM      1  C   UNL     1       2.877   5.076  19.845  0.00  0.00    +0.000 C 
ENDROOT
BRANCH   1   2
ATOM      2  C   UNL     1       2.410   6.504  19.707  0.00  0.00    +0.000 A 
ATOM      3  N   UNL     1       2.557   7.254  18.633  0.00  0.00    +0.000 NA
ATOM      4  C   UNL     1       1.977   8.496  18.837  0.00  0.00    +0.000 A 
ATOM      5  C   UNL     1       1.967   9.570  17.929  0.00  0.00    +0.000 A 
ATOM      6  C   UNL     1       1.338  10.775  18.281  0.00  0.00    +0.000 A 
ATOM      7  C   UNL     1       0.675  10.928  19.501  0.00  0.00    +0.000 A 
ATOM      8  C   UNL     1       0.689   9.856  20.412  0.00  0.00    +0.000 A 
ATOM      9  C   UNL     1       1.353   8.665  20.069  0.00  0.00    +0.000 A 
ATOM     10  S   UNL     1       1.548   7.237  21.005  0.00  0.00    +0.000 S 
BRANCH   7  11
ATOM     11  C   UNL     1      -0.009  12.175  19.886  0.00  0.00    +0.000 A 
ATOM     12  C   UNL     1       0.472  13.220  20.664  0.00  0.00    +0.000 A 
ATOM     13  C   UNL     1      -0.578  14.141  20.771  0.00  0.00    +0.000 A 
ATOM     14  N   UNL     1      -1.663  13.740  20.113  0.00  0.00    +0.000 NA
ATOM     15  N   UNL     1      -1.308  12.547  19.592  0.00  0.00    +0.000 N 
ATOM     16  C   UNL     1      -2.314  11.816  18.855  0.00  0.00    +0.000 C 
ENDBRANCH   7  11
ENDBRANCH   1   2
BRANCH   1  20
ATOM     17  C   UNL     1       0.380   2.359  18.996  0.00  0.00    +0.000 C 
ATOM     18  C   UNL     1       1.328   3.161  19.843  0.00  0.00    +0.000 C 
ATOM     19  O   UNL     1       1.556   2.908  21.023  0.00  0.00    +0.000 OA
ATOM     20  N   UNL     1       1.903   4.215  19.186  0.00  0.00    +0.000 N 
ATOM     21  H   UNL     1       1.772   4.351  18.190  0.00  0.00    +0.000 HD
ENDBRANCH   1  20
BRANCH   1  22
ATOM     22  C   UNL     1       4.228   4.864  19.241  0.00  0.00    +0.000 A 
ATOM     23  N   UNL     1       5.426   5.186  19.690  0.00  0.00    +0.000 NA
ATOM     24  N   UNL     1       6.328   4.802  18.719  0.00  0.00    +0.000 NA
ATOM     25  C   UNL     1       5.621   4.281  17.739  0.00  0.00    +0.000 A 
ATOM     26  O   UNL     1       4.280   4.265  18.005  0.00  0.00    +0.000 OA
BRANCH  25  27
ATOM     27  C   UNL     1       6.085   3.727  16.441  0.00  0.00    +0.000 C 
BRANCH  27  28
ATOM     28  C   UNL     1       5.958   4.677  15.252  0.00  0.00    +0.000 C 
ATOM     29  S   UNL     1       5.710   3.856  13.644  0.00  0.00    +0.000 S 
ATOM     30  C   UNL     1       7.119   4.609  12.934  0.00  0.00    +0.000 C 
ATOM     31  O   UNL     1       7.460   4.443  11.776  0.00  0.00    +0.000 OA
ATOM     32  N   UNL     1       7.733   5.408  13.836  0.00  0.00    +0.000 N 
ATOM     33  C   UNL     1       7.188   5.541  15.078  0.00  0.00    +0.000 C 
ATOM     34  O   UNL     1       7.637   6.279  15.945  0.00  0.00    +0.000 OA
ATOM     35  H   UNL     1       8.576   5.897  13.579  0.00  0.00    +0.000 HD
ENDBRANCH  27  28
ENDBRANCH  25  27
ENDBRANCH   1  22
TORSDOF 6
ENDMDL
MODEL 6
REMARK VINA RESULT:      -8.5      1.678      2.159
REMARK  Name = 
REMARK  8 active torsions:
REMARK  status: ('A' for Active; 'I' for Inactive)
REMARK    1  A    between atoms: C_1  and  C_2
REMARK    2  A    between atoms: N_4  and  C_5
REMARK    3  A    between atoms: C_5  and  C_6
REMARK    4  A    between atoms: C_5  and  C_19
REMARK    5  A    between atoms: C_9  and  C_10
REMARK    6  A    between atoms: C_10  and  C_11
REMARK    7  A    between atoms: C_24  and  C_25
REMARK    8  A    between atoms: N_29  and  C_30
REMARK                            x       y       z     vdW  Elec       q    Type
REMARK                         _______ _______ _______ _____ _____    ______ ____
ROOT
ATOM      1  C   UNL     1       2.851   5.046  19.853  0.00  0.00    +0.000 C 
ENDROOT
BRANCH   1   2
ATOM      2  C   UNL     1       2.388   6.476  19.712  0.00  0.00    +0.000 A 
ATOM      3  N   UNL     1       2.533   7.220  18.634  0.00  0.00    +0.000 NA
ATOM      4  C   UNL     1       1.958   8.466  18.836  0.00  0.00    +0.000 A 
ATOM      5  C   UNL     1       1.948   9.536  17.924  0.00  0.00    +0.000 A 
ATOM      6  C   UNL     1       1.324  10.744  18.274  0.00  0.00    +0.000 A 
ATOM      7  C   UNL     1       0.666  10.904  19.496  0.00  0.00    +0.000 A 
ATOM      8  C   UNL     1       0.682   9.836  20.411  0.00  0.00    +0.000 A 
ATOM      9  C   UNL     1       1.339   8.641  20.070  0.00  0.00    +0.000 A 
ATOM     10  S   UNL     1       1.535   7.216  21.010  0.00  0.00    +0.000 S 
BRANCH   7  11
ATOM     11  C   UNL     1      -0.012  12.155  19.879  0.00  0.00    +0.000 A 
ATOM     12  C   UNL     1      -1.366  12.458  19.818  0.00  0.00    +0.000 A 
ATOM     13  C   UNL     1      -1.487  13.785  20.249  0.00  0.00    +0.000 A 
ATOM     14  N   UNL     1      -0.310  14.315  20.574  0.00  0.00    +0.000 NA
ATOM     15  N   UNL     1       0.572  13.322  20.336  0.00  0.00    +0.000 N 
ATOM     16  C   UNL     1       1.973  13.613  20.540  0.00  0.00    +0.000 C 
ENDBRANCH   7  11
ENDBRANCH   1   2
BRANCH   1  20
ATOM     17  C   UNL     1       0.563   2.190  18.880  0.00  0.00    +0.000 C 
ATOM     18  C   UNL     1       1.559   2.954  19.708  0.00  0.00    +0.000 C 
ATOM     19  O   UNL     1       2.038   2.524  20.753  0.00  0.00    +0.000 OA
ATOM     20  N   UNL     1       1.873   4.186  19.200  0.00  0.00    +0.000 N 
ATOM     21  H   UNL     1       1.538   4.483  18.290  0.00  0.00    +0.000 HD
ENDBRANCH   1  20
BRANCH   1  22
ATOM     22  C   UNL     1       4.200   4.828  19.246  0.00  0.00    +0.000 A 
ATOM     23  N   UNL     1       5.401   5.138  19.696  0.00  0.00    +0.000 NA
ATOM     24  N   UNL     1       6.299   4.753  18.721  0.00  0.00    +0.000 NA
ATOM     25  C   UNL     1       5.587   4.245  17.739  0.00  0.00    +0.000 A 
ATOM     26  O   UNL     1       4.246   4.237  18.006  0.00  0.00    +0.000 OA
BRANCH  25  27
ATOM     27  C   UNL     1       6.045   3.696  16.436  0.00  0.00    +0.000 C 
BRANCH  27  28
ATOM     28  C   UNL     1       5.927   4.656  15.255  0.00  0.00    +0.000 C 
ATOM     29  S   UNL     1       5.707   3.849  13.636  0.00  0.00    +0.000 S 
ATOM     30  C   UNL     1       7.120   4.617  12.952  0.00  0.00    +0.000 C 
ATOM     31  O   UNL     1       7.478   4.465  11.797  0.00  0.00    +0.000 OA
ATOM     32  N   UNL     1       7.716   5.412  13.870  0.00  0.00    +0.000 N 
ATOM     33  C   UNL     1       7.154   5.530  15.105  0.00  0.00    +0.000 C 
ATOM     34  O   UNL     1       7.586   6.263  15.985  0.00  0.00    +0.000 OA
ATOM     35  H   UNL     1       8.559   5.910  13.629  0.00  0.00    +0.000 HD
ENDBRANCH  27  28
ENDBRANCH  25  27
ENDBRANCH   1  22
TORSDOF 6
ENDMDL
MODEL 7
REMARK VINA RESULT:      -8.5      1.151      1.701
REMARK  Name = 
REMARK  8 active torsions:
REMARK  status: ('A' for Active; 'I' for Inactive)
REMARK    1  A    between atoms: C_1  and  C_2
REMARK    2  A    between atoms: N_4  and  C_5
REMARK    3  A    between atoms: C_5  and  C_6
REMARK    4  A    between atoms: C_5  and  C_19
REMARK    5  A    between atoms: C_9  and  C_10
REMARK    6  A    between atoms: C_10  and  C_11
REMARK    7  A    between atoms: C_24  and  C_25
REMARK    8  A    between atoms: N_29  and  C_30
REMARK                            x       y       z     vdW  Elec       q    Type
REMARK                         _______ _______ _______ _____ _____    ______ ____
ROOT
ATOM      1  C   UNL     1       3.802   4.829  19.460  0.00  0.00    +0.000 C 
ENDROOT
BRANCH   1   2
ATOM      2  C   UNL     1       3.118   6.170  19.350  0.00  0.00    +0.000 A 
ATOM      3  N   UNL     1       3.181   6.973  18.306  0.00  0.00    +0.000 NA
ATOM      4  C   UNL     1       2.403   8.099  18.526  0.00  0.00    +0.000 A 
ATOM      5  C   UNL     1       2.253   9.191  17.653  0.00  0.00    +0.000 A 
ATOM      6  C   UNL     1       1.428  10.267  18.017  0.00  0.00    +0.000 A 
ATOM      7  C   UNL     1       0.706  10.266  19.213  0.00  0.00    +0.000 A 
ATOM      8  C   UNL     1       0.860   9.177  20.090  0.00  0.00    +0.000 A 
ATOM      9  C   UNL     1       1.717   8.120  19.737  0.00  0.00    +0.000 A 
ATOM     10  S   UNL     1       2.106   6.706  20.633  0.00  0.00    +0.000 S 
BRANCH   7  11
ATOM     11  C   UNL     1      -0.181  11.374  19.609  0.00  0.00    +0.000 A 
ATOM     12  C   UNL     1      -1.569  11.393  19.662  0.00  0.00    +0.000 A 
ATOM     13  C   UNL     1      -1.926  12.691  20.052  0.00  0.00    +0.000 A 
ATOM     14  N   UNL     1      -0.860  13.464  20.246  0.00  0.00    +0.000 NA
ATOM     15  N   UNL     1       0.185  12.659  19.965  0.00  0.00    +0.000 N 
ATOM     16  C   UNL     1       1.508  13.238  20.028  0.00  0.00    +0.000 C 
ENDBRANCH   7  11
ENDBRANCH   1   2
BRANCH   1  20
ATOM     17  C   UNL     1       2.002   1.754  18.182  0.00  0.00    +0.000 C 
ATOM     18  C   UNL     1       2.747   2.625  19.154  0.00  0.00    +0.000 C 
ATOM     19  O   UNL     1       3.046   2.265  20.289  0.00  0.00    +0.000 OA
ATOM     20  N   UNL     1       3.049   3.868  18.666  0.00  0.00    +0.000 N 
ATOM     21  H   UNL     1       2.875   4.111  17.697  0.00  0.00    +0.000 HD
ENDBRANCH   1  20
BRANCH   1  22
ATOM     22  C   UNL     1       5.218   4.878  18.984  0.00  0.00    +0.000 A 
ATOM     23  N   UNL     1       6.320   5.246  19.609  0.00  0.00    +0.000 NA
ATOM     24  N   UNL     1       7.348   5.141  18.694  0.00  0.00    +0.000 NA
ATOM     25  C   UNL     1       6.805   4.727  17.569  0.00  0.00    +0.000 A 
ATOM     26  O   UNL     1       5.458   4.516  17.679  0.00  0.00    +0.000 OA
BRANCH  25  27
ATOM     27  C   UNL     1       7.451   4.466  16.257  0.00  0.00    +0.000 C 
BRANCH  27  28
ATOM     28  C   UNL     1       6.670   4.967  15.044  0.00  0.00    +0.000 C 
ATOM     29  S   UNL     1       5.309   3.878  14.512  0.00  0.00    +0.000 S 
ATOM     30  C   UNL     1       5.948   3.708  12.894  0.00  0.00    +0.000 C 
ATOM     31  O   UNL     1       5.397   3.068  12.016  0.00  0.00    +0.000 OA
ATOM     32  N   UNL     1       7.098   4.408  12.765  0.00  0.00    +0.000 N 
ATOM     33  C   UNL     1       7.553   5.132  13.826  0.00  0.00    +0.000 C 
ATOM     34  O   UNL     1       8.552   5.839  13.793  0.00  0.00    +0.000 OA
ATOM     35  H   UNL     1       7.598   4.391  11.890  0.00  0.00    +0.000 HD
ENDBRANCH  27  28
ENDBRANCH  25  27
ENDBRANCH   1  22
TORSDOF 6
ENDMDL
MODEL 8
REMARK VINA RESULT:      -8.3      2.558      3.548
REMARK  Name = 
REMARK  8 active torsions:
REMARK  status: ('A' for Active; 'I' for Inactive)
REMARK    1  A    between atoms: C_1  and  C_2
REMARK    2  A    between atoms: N_4  and  C_5
REMARK    3  A    between atoms: C_5  and  C_6
REMARK    4  A    between atoms: C_5  and  C_19
REMARK    5  A    between atoms: C_9  and  C_10
REMARK    6  A    between atoms: C_10  and  C_11
REMARK    7  A    between atoms: C_24  and  C_25
REMARK    8  A    between atoms: N_29  and  C_30
REMARK                            x       y       z     vdW  Elec       q    Type
REMARK                         _______ _______ _______ _____ _____    ______ ____
ROOT
ATOM      1  C   UNL     1       2.896   5.681  19.807  0.00  0.00    +0.000 C 
ENDROOT
BRANCH   1   2
ATOM      2  C   UNL     1       2.254   7.047  19.805  0.00  0.00    +0.000 A 
ATOM      3  N   UNL     1       2.263   7.890  18.792  0.00  0.00    +0.000 NA
ATOM      4  C   UNL     1       1.546   9.032  19.118  0.00  0.00    +0.000 A 
ATOM      5  C   UNL     1       1.366  10.164  18.303  0.00  0.00    +0.000 A 
ATOM      6  C   UNL     1       0.612  11.249  18.774  0.00  0.00    +0.000 A 
ATOM      7  C   UNL     1      -0.011  11.223  20.025  0.00  0.00    +0.000 A 
ATOM      8  C   UNL     1       0.173  10.093  20.843  0.00  0.00    +0.000 A 
ATOM      9  C   UNL     1       0.960   9.024  20.380  0.00  0.00    +0.000 A 
ATOM     10  S   UNL     1       1.368   7.562  21.186  0.00  0.00    +0.000 S 
BRANCH   7  11
ATOM     11  C   UNL     1      -0.824  12.341  20.534  0.00  0.00    +0.000 A 
ATOM     12  C   UNL     1      -0.508  13.256  21.531  0.00  0.00    +0.000 A 
ATOM     13  C   UNL     1      -1.630  14.083  21.670  0.00  0.00    +0.000 A 
ATOM     14  N   UNL     1      -2.606  13.746  20.830  0.00  0.00    +0.000 NA
ATOM     15  N   UNL     1      -2.109  12.687  20.159  0.00  0.00    +0.000 N 
ATOM     16  C   UNL     1      -2.974  12.044  19.195  0.00  0.00    +0.000 C 
ENDBRANCH   7  11
ENDBRANCH   1   2
BRANCH   1  20
ATOM     17  C   UNL     1       1.047   2.612  21.029  0.00  0.00    +0.000 C 
ATOM     18  C   UNL     1       2.219   3.513  20.760  0.00  0.00    +0.000 C 
ATOM     19  O   UNL     1       3.376   3.220  21.051  0.00  0.00    +0.000 OA
ATOM     20  N   UNL     1       1.881   4.703  20.174  0.00  0.00    +0.000 N 
ATOM     21  H   UNL     1       0.934   4.885  19.858  0.00  0.00    +0.000 HD
ENDBRANCH   1  20
BRANCH   1  22
ATOM     22  C   UNL     1       3.478   5.329  18.476  0.00  0.00    +0.000 A 
ATOM     23  N   UNL     1       3.175   4.355  17.639  0.00  0.00    +0.000 NA
ATOM     24  N   UNL     1       4.049   4.461  16.577  0.00  0.00    +0.000 NA
ATOM     25  C   UNL     1       4.834   5.483  16.840  0.00  0.00    +0.000 A 
ATOM     26  O   UNL     1       4.520   6.101  18.019  0.00  0.00    +0.000 OA
BRANCH  25  27
ATOM     27  C   UNL     1       5.963   6.027  16.042  0.00  0.00    +0.000 C 
BRANCH  27  28
ATOM     28  C   UNL     1       7.326   5.961  16.727  0.00  0.00    +0.000 C 
ATOM     29  S   UNL     1       7.533   4.564  17.880  0.00  0.00    +0.000 S 
ATOM     30  C   UNL     1       7.917   5.608  19.228  0.00  0.00    +0.000 C 
ATOM     31  O   UNL     1       8.201   5.196  20.339  0.00  0.00    +0.000 OA
ATOM     32  N   UNL     1       7.886   6.904  18.846  0.00  0.00    +0.000 N 
ATOM     33  C   UNL     1       7.616   7.202  17.543  0.00  0.00    +0.000 C 
ATOM     34  O   UNL     1       7.617   8.338  17.089  0.00  0.00    +0.000 OA
ATOM     35  H   UNL     1       8.068   7.630  19.522  0.00  0.00    +0.000 HD
ENDBRANCH  27  28
ENDBRANCH  25  27
ENDBRANCH   1  22
TORSDOF 6
ENDMDL
MODEL 9
REMARK VINA RESULT:      -8.2      2.305      3.222
REMARK  Name = 
REMARK  8 active torsions:
REMARK  status: ('A' for Active; 'I' for Inactive)
REMARK    1  A    between atoms: C_1  and  C_2
REMARK    2  A    between atoms: N_4  and  C_5
REMARK    3  A    between atoms: C_5  and  C_6
REMARK    4  A    between atoms: C_5  and  C_19
REMARK    5  A    between atoms: C_9  and  C_10
REMARK    6  A    between atoms: C_10  and  C_11
REMARK    7  A    between atoms: C_24  and  C_25
REMARK    8  A    between atoms: N_29  and  C_30
REMARK                            x       y       z     vdW  Elec       q    Type
REMARK                         _______ _______ _______ _____ _____    ______ ____
ROOT
ATOM      1  C   UNL     1       2.965   5.396  19.872  0.00  0.00    +0.000 C 
ENDROOT
BRANCH   1   2
ATOM      2  C   UNL     1       2.378   6.784  19.788  0.00  0.00    +0.000 A 
ATOM      3  N   UNL     1       2.467   7.587  18.747  0.00  0.00    +0.000 NA
ATOM      4  C   UNL     1       1.781   8.766  18.995  0.00  0.00    +0.000 A 
ATOM      5  C   UNL     1       1.684   9.872  18.132  0.00  0.00    +0.000 A 
ATOM      6  C   UNL     1       0.952  11.002  18.526  0.00  0.00    +0.000 A 
ATOM      7  C   UNL     1       0.270  11.047  19.745  0.00  0.00    +0.000 A 
ATOM      8  C   UNL     1       0.372   9.944  20.612  0.00  0.00    +0.000 A 
ATOM      9  C   UNL     1       1.137   8.829  20.227  0.00  0.00    +0.000 A 
ATOM     10  S   UNL     1       1.449   7.386  21.106  0.00  0.00    +0.000 S 
BRANCH   7  11
ATOM     11  C   UNL     1      -0.521  12.214  20.173  0.00  0.00    +0.000 A 
ATOM     12  C   UNL     1      -0.172  13.211  21.076  0.00  0.00    +0.000 A 
ATOM     13  C   UNL     1      -1.284  14.058  21.170  0.00  0.00    +0.000 A 
ATOM     14  N   UNL     1      -2.284  13.657  20.388  0.00  0.00    +0.000 NA
ATOM     15  N   UNL     1      -1.812  12.538  19.801  0.00  0.00    +0.000 N 
ATOM     16  C   UNL     1      -2.706  11.820  18.920  0.00  0.00    +0.000 C 
ENDBRANCH   7  11
ENDBRANCH   1   2
BRANCH   1  20
ATOM     17  C   UNL     1       1.350   2.584  21.825  0.00  0.00    +0.000 C 
ATOM     18  C   UNL     1       2.414   3.300  21.042  0.00  0.00    +0.000 C 
ATOM     19  O   UNL     1       3.502   2.801  20.771  0.00  0.00    +0.000 OA
ATOM     20  N   UNL     1       2.068   4.571  20.671  0.00  0.00    +0.000 N 
ATOM     21  H   UNL     1       1.131   4.930  20.824  0.00  0.00    +0.000 HD
ENDBRANCH   1  20
BRANCH   1  22
ATOM     22  C   UNL     1       3.150   4.780  18.523  0.00  0.00    +0.000 A 
ATOM     23  N   UNL     1       2.260   4.358  17.645  0.00  0.00    +0.000 NA
ATOM     24  N   UNL     1       2.970   3.836  16.583  0.00  0.00    +0.000 NA
ATOM     25  C   UNL     1       4.243   3.964  16.886  0.00  0.00    +0.000 A 
ATOM     26  O   UNL     1       4.440   4.575  18.094  0.00  0.00    +0.000 OA
BRANCH  25  27
ATOM     27  C   UNL     1       5.439   3.550  16.107  0.00  0.00    +0.000 C 
BRANCH  27  28
ATOM     28  C   UNL     1       6.551   4.594  16.031  0.00  0.00    +0.000 C 
ATOM     29  S   UNL     1       7.681   4.609  17.460  0.00  0.00    +0.000 S 
ATOM     30  C   UNL     1       7.367   6.290  17.814  0.00  0.00    +0.000 C 
ATOM     31  O   UNL     1       7.912   6.903  18.716  0.00  0.00    +0.000 OA
ATOM     32  N   UNL     1       6.476   6.800  16.933  0.00  0.00    +0.000 N 
ATOM     33  C   UNL     1       6.006   6.002  15.934  0.00  0.00    +0.000 C 
ATOM     34  O   UNL     1       5.240   6.384  15.059  0.00  0.00    +0.000 OA
ATOM     35  H   UNL     1       6.179   7.759  17.022  0.00  0.00    +0.000 HD
ENDBRANCH  27  28
ENDBRANCH  25  27
ENDBRANCH   1  22
TORSDOF 6
ENDMDL
