MODEL 1
REMARK VINA RESULT:      -8.2      0.000      0.000
REMARK  Name = 
REMARK  15 active torsions:
REMARK  status: ('A' for Active; 'I' for Inactive)
REMARK    1  A    between atoms: C_1  and  C_2
REMARK    2  A    between atoms: C_2  and  C_3
REMARK    3  A    between atoms: C_2  and  C_4
REMARK    4  A    between atoms: C_5  and  C_6
REMARK    5  A    between atoms: C_6  and  C_7
REMARK    6  A    between atoms: N_13  and  C_14
REMARK    7  A    between atoms: C_14  and  O_15
REMARK    8  A    between atoms: O_15  and  C_16
REMARK    9  A    between atoms: C_16  and  C_17
REMARK   10  A    between atoms: C_17  and  C_18
REMARK   11  A    between atoms: C_21  and  C_22
REMARK   12  A    between atoms: C_22  and  C_24
REMARK   13  A    between atoms: C_25  and  O_26
REMARK   14  A    between atoms: C_25  and  C_27
REMARK   15  A    between atoms: C_27  and  O_29
REMARK                            x       y       z     vdW  Elec       q    Type
REMARK                         _______ _______ _______ _____ _____    ______ ____
ROOT
ATOM      1  C   UNL     1      -0.231  11.070  20.680  0.00  0.00    +0.000 C 
ENDROOT
BRANCH   1   4
ATOM      2  C   UNL     1      -3.485  12.569  21.707  0.00  0.00    +0.000 A 
ATOM      3  C   UNL     1      -2.471  12.195  20.870  0.00  0.00    +0.000 A 
ATOM      4  N   UNL     1      -1.353  11.548  21.464  0.00  0.00    +0.000 N 
ATOM      5  C   UNL     1      -1.230  11.299  22.825  0.00  0.00    +0.000 A 
ATOM      6  O   UNL     1      -0.283  10.724  23.359  0.00  0.00    +0.000 OA
ATOM      7  N   UNL     1      -2.226  11.743  23.617  0.00  0.00    +0.000 N 
ATOM      8  C   UNL     1      -3.384  12.264  23.175  0.00  0.00    +0.000 A 
ATOM      9  O   UNL     1      -4.291  12.490  23.982  0.00  0.00    +0.000 OA
ATOM     10  H   UNL     1      -2.155  11.537  24.602  0.00  0.00    +0.000 HD
BRANCH   2  12
ATOM     11  C   UNL     1      -4.625  14.593  20.693  0.00  0.00    +0.000 C 
ATOM     12  C   UNL     1      -4.815  13.260  21.420  0.00  0.00    +0.000 C 
ATOM     13  C   UNL     1      -5.826  12.356  20.736  0.00  0.00    +0.000 C 
ENDBRANCH   2  12
BRANCH   3  14
ATOM     14  C   UNL     1      -2.351  12.569  19.335  0.00  0.00    +0.000 C 
BRANCH  14  15
ATOM     15  C   UNL     1      -2.856  11.649  18.200  0.00  0.00    +0.000 A 
ATOM     16  C   UNL     1      -2.011  10.820  17.462  0.00  0.00    +0.000 A 
ATOM     17  C   UNL     1      -2.419  10.306  16.219  0.00  0.00    +0.000 A 
ATOM     18  C   UNL     1      -3.701  10.551  15.728  0.00  0.00    +0.000 A 
ATOM     19  C   UNL     1      -4.620  11.221  16.523  0.00  0.00    +0.000 A 
ATOM     20  C   UNL     1      -4.199  11.749  17.754  0.00  0.00    +0.000 A 
ENDBRANCH  14  15
ENDBRANCH   3  14
ENDBRANCH   1   4
BRANCH   1  21
ATOM     21  O   UNL     1      -0.482   9.733  20.310  0.00  0.00    +0.000 OA
BRANCH  21  22
ATOM     22  C   UNL     1       0.685   8.918  20.276  0.00  0.00    +0.000 C 
BRANCH  22  23
ATOM     23  C   UNL     1       1.529   9.188  19.028  0.00  0.00    +0.000 C 
BRANCH  23  24
ATOM     24  C   UNL     1       2.447   8.029  18.717  0.00  0.00    +0.000 A 
ATOM     25  C   UNL     1       3.197   8.003  17.534  0.00  0.00    +0.000 A 
ATOM     26  C   UNL     1       3.947   6.875  17.198  0.00  0.00    +0.000 A 
ATOM     27  C   UNL     1       3.972   5.753  18.038  0.00  0.00    +0.000 A 
ATOM     28  C   UNL     1       3.261   5.798  19.244  0.00  0.00    +0.000 A 
ATOM     29  C   UNL     1       2.504   6.925  19.577  0.00  0.00    +0.000 A 
BRANCH  27  30
ATOM     30  C   UNL     1       4.735   4.556  17.572  0.00  0.00    +0.000 C 
ATOM     31  O   UNL     1       5.023   3.645  18.350  0.00  0.00    +0.000 OA
BRANCH  30  32
ATOM     32  C   UNL     1       5.180   4.470  16.160  0.00  0.00    +0.000 C 
ATOM     33  C   UNL     1       6.473   4.605  15.831  0.00  0.00    +0.000 C 
BRANCH  33  34
ATOM     34  O   UNL     1       7.507   4.818  16.736  0.00  0.00    +0.000 OA
ATOM     35  H   UNL     1       8.343   4.590  16.267  0.00  0.00    +0.000 HD
ENDBRANCH  33  34
BRANCH  33  36
ATOM     36  C   UNL     1       6.828   4.511  14.377  0.00  0.00    +0.000 C 
ATOM     37  O   UNL     1       6.301   3.781  13.574  0.00  0.00    +0.000 OA
BRANCH  36  38
ATOM     38  O   UNL     1       7.849   5.351  14.105  0.00  0.00    +0.000 OA
ATOM     39  H   UNL     1       8.670   4.826  13.964  0.00  0.00    +0.000 HD
ENDBRANCH  36  38
ENDBRANCH  33  36
ENDBRANCH  30  32
ENDBRANCH  27  30
ENDBRANCH  23  24
ENDBRANCH  22  23
ENDBRANCH  21  22
ENDBRANCH   1  21
TORSDOF 13
ENDMDL
MODEL 2
REMARK VINA RESULT:      -7.8      3.461     11.060
REMARK  Name = 
REMARK  15 active torsions:
REMARK  status: ('A' for Active; 'I' for Inactive)
REMARK    1  A    between atoms: C_1  and  C_2
REMARK    2  A    between atoms: C_2  and  C_3
REMARK    3  A    between atoms: C_2  and  C_4
REMARK    4  A    between atoms: C_5  and  C_6
REMARK    5  A    between atoms: C_6  and  C_7
REMARK    6  A    between atoms: N_13  and  C_14
REMARK    7  A    between atoms: C_14  and  O_15
REMARK    8  A    between atoms: O_15  and  C_16
REMARK    9  A    between atoms: C_16  and  C_17
REMARK   10  A    between atoms: C_17  and  C_18
REMARK   11  A    between atoms: C_21  and  C_22
REMARK   12  A    between atoms: C_22  and  C_24
REMARK   13  A    between atoms: C_25  and  O_26
REMARK   14  A    between atoms: C_25  and  C_27
REMARK   15  A    between atoms: C_27  and  O_29
REMARK                            x       y       z     vdW  Elec       q    Type
REMARK                         _______ _______ _______ _____ _____    ______ ____
ROOT
ATOM      1  C   UNL     1       2.898   7.547  18.312  0.00  0.00    +0.000 C 
ENDROOT
BRANCH   1   4
ATOM      2  C   UNL     1       2.718   4.084  19.678  0.00  0.00    +0.000 A 
ATOM      3  C   UNL     1       2.959   5.076  18.770  0.00  0.00    +0.000 A 
ATOM      4  N   UNL     1       2.653   6.404  19.171  0.00  0.00    +0.000 N 
ATOM      5  C   UNL     1       2.113   6.740  20.406  0.00  0.00    +0.000 A 
ATOM      6  O   UNL     1       1.859   7.883  20.783  0.00  0.00    +0.000 OA
ATOM      7  N   UNL     1       1.833   5.722  21.244  0.00  0.00    +0.000 N 
ATOM      8  C   UNL     1       2.177   4.439  21.035  0.00  0.00    +0.000 A 
ATOM      9  O   UNL     1       2.014   3.616  21.940  0.00  0.00    +0.000 OA
ATOM     10  H   UNL     1       1.470   5.964  22.153  0.00  0.00    +0.000 HD
BRANCH   2  12
ATOM     11  C   UNL     1       2.226   1.960  18.386  0.00  0.00    +0.000 C 
ATOM     12  C   UNL     1       2.934   2.576  19.595  0.00  0.00    +0.000 C 
ATOM     13  C   UNL     1       4.396   2.172  19.689  0.00  0.00    +0.000 C 
ENDBRANCH   2  12
BRANCH   3  14
ATOM     14  C   UNL     1       3.383   4.863  17.257  0.00  0.00    +0.000 C 
BRANCH  14  15
ATOM     15  C   UNL     1       4.841   4.589  16.820  0.00  0.00    +0.000 A 
ATOM     16  C   UNL     1       5.931   4.737  17.677  0.00  0.00    +0.000 A 
ATOM     17  C   UNL     1       7.234   4.858  17.162  0.00  0.00    +0.000 A 
ATOM     18  C   UNL     1       7.476   4.760  15.793  0.00  0.00    +0.000 A 
ATOM     19  C   UNL     1       6.433   4.433  14.937  0.00  0.00    +0.000 A 
ATOM     20  C   UNL     1       5.132   4.334  15.455  0.00  0.00    +0.000 A 
ENDBRANCH  14  15
ENDBRANCH   3  14
ENDBRANCH   1   4
BRANCH   1  21
ATOM     21  O   UNL     1       1.664   7.990  17.795  0.00  0.00    +0.000 OA
BRANCH  21  22
ATOM     22  C   UNL     1       1.422   9.378  17.996  0.00  0.00    +0.000 C 
BRANCH  22  23
ATOM     23  C   UNL     1      -0.075   9.695  18.018  0.00  0.00    +0.000 C 
BRANCH  23  24
ATOM     24  C   UNL     1      -0.420  10.669  19.120  0.00  0.00    +0.000 A 
ATOM     25  C   UNL     1      -0.476  10.251  20.457  0.00  0.00    +0.000 A 
ATOM     26  C   UNL     1      -0.914  11.126  21.453  0.00  0.00    +0.000 A 
ATOM     27  C   UNL     1      -1.298  12.438  21.138  0.00  0.00    +0.000 A 
ATOM     28  C   UNL     1      -1.196  12.869  19.809  0.00  0.00    +0.000 A 
ATOM     29  C   UNL     1      -0.765  11.990  18.812  0.00  0.00    +0.000 A 
BRANCH  27  30
ATOM     30  C   UNL     1      -1.828  13.289  22.245  0.00  0.00    +0.000 C 
ATOM     31  O   UNL     1      -1.441  14.448  22.396  0.00  0.00    +0.000 OA
BRANCH  30  32
ATOM     32  C   UNL     1      -2.816  12.725  23.198  0.00  0.00    +0.000 C 
ATOM     33  C   UNL     1      -4.067  13.204  23.263  0.00  0.00    +0.000 C 
BRANCH  33  34
ATOM     34  O   UNL     1      -4.569  14.230  22.469  0.00  0.00    +0.000 OA
ATOM     35  H   UNL     1      -5.353  14.594  22.943  0.00  0.00    +0.000 HD
ENDBRANCH  33  34
BRANCH  33  36
ATOM     36  C   UNL     1      -4.994  12.578  24.262  0.00  0.00    +0.000 C 
ATOM     37  O   UNL     1      -6.128  12.231  24.042  0.00  0.00    +0.000 OA
BRANCH  36  38
ATOM     38  O   UNL     1      -4.374  12.485  25.458  0.00  0.00    +0.000 OA
ATOM     39  H   UNL     1      -4.028  11.570  25.572  0.00  0.00    +0.000 HD
ENDBRANCH  36  38
ENDBRANCH  33  36
ENDBRANCH  30  32
ENDBRANCH  27  30
ENDBRANCH  23  24
ENDBRANCH  22  23
ENDBRANCH  21  22
ENDBRANCH   1  21
TORSDOF 13
ENDMDL
MODEL 3
REMARK VINA RESULT:      -7.7      2.042      4.113
REMARK  Name = 
REMARK  15 active torsions:
REMARK  status: ('A' for Active; 'I' for Inactive)
REMARK    1  A    between atoms: C_1  and  C_2
REMARK    2  A    between atoms: C_2  and  C_3
REMARK    3  A    between atoms: C_2  and  C_4
REMARK    4  A    between atoms: C_5  and  C_6
REMARK    5  A    between atoms: C_6  and  C_7
REMARK    6  A    between atoms: N_13  and  C_14
REMARK    7  A    between atoms: C_14  and  O_15
REMARK    8  A    between atoms: O_15  and  C_16
REMARK    9  A    between atoms: C_16  and  C_17
REMARK   10  A    between atoms: C_17  and  C_18
REMARK   11  A    between atoms: C_21  and  C_22
REMARK   12  A    between atoms: C_22  and  C_24
REMARK   13  A    between atoms: C_25  and  O_26
REMARK   14  A    between atoms: C_25  and  C_27
REMARK   15  A    between atoms: C_27  and  O_29
REMARK                            x       y       z     vdW  Elec       q    Type
REMARK                         _______ _______ _______ _____ _____    ______ ____
ROOT
ATOM      1  C   UNL     1      -1.581  11.562  18.634  0.00  0.00    +0.000 C 
ENDROOT
BRANCH   1   4
ATOM      2  C   UNL     1      -5.150  12.351  19.358  0.00  0.00    +0.000 A 
ATOM      3  C   UNL     1      -3.790  12.464  19.424  0.00  0.00    +0.000 A 
ATOM      4  N   UNL     1      -3.030  11.525  18.676  0.00  0.00    +0.000 N 
ATOM      5  C   UNL     1      -3.584  10.505  17.912  0.00  0.00    +0.000 A 
ATOM      6  O   UNL     1      -2.948   9.695  17.241  0.00  0.00    +0.000 OA
ATOM      7  N   UNL     1      -4.928  10.395  17.928  0.00  0.00    +0.000 N 
ATOM      8  C   UNL     1      -5.764  11.281  18.498  0.00  0.00    +0.000 A 
ATOM      9  O   UNL     1      -6.979  11.167  18.316  0.00  0.00    +0.000 OA
ATOM     10  H   UNL     1      -5.335   9.676  17.351  0.00  0.00    +0.000 HD
BRANCH   2  12
ATOM     11  C   UNL     1      -6.533  12.736  21.446  0.00  0.00    +0.000 C 
ATOM     12  C   UNL     1      -6.256  13.178  20.008  0.00  0.00    +0.000 C 
ATOM     13  C   UNL     1      -6.038  14.676  19.885  0.00  0.00    +0.000 C 
ENDBRANCH   2  12
BRANCH   3  14
ATOM     14  C   UNL     1      -2.987  13.430  20.390  0.00  0.00    +0.000 C 
BRANCH  14  15
ATOM     15  C   UNL     1      -3.111  13.377  21.930  0.00  0.00    +0.000 A 
ATOM     16  C   UNL     1      -2.940  12.204  22.665  0.00  0.00    +0.000 A 
ATOM     17  C   UNL     1      -3.428  12.106  23.980  0.00  0.00    +0.000 A 
ATOM     18  C   UNL     1      -4.027  13.198  24.606  0.00  0.00    +0.000 A 
ATOM     19  C   UNL     1      -4.047  14.427  23.961  0.00  0.00    +0.000 A 
ATOM     20  C   UNL     1      -3.577  14.513  22.642  0.00  0.00    +0.000 A 
ENDBRANCH  14  15
ENDBRANCH   3  14
ENDBRANCH   1   4
BRANCH   1  21
ATOM     21  O   UNL     1      -1.083  10.577  19.512  0.00  0.00    +0.000 OA
BRANCH  21  22
ATOM     22  C   UNL     1       0.330  10.616  19.676  0.00  0.00    +0.000 C 
BRANCH  22  23
ATOM     23  C   UNL     1       0.810   9.583  20.699  0.00  0.00    +0.000 C 
BRANCH  23  24
ATOM     24  C   UNL     1       1.436   8.384  20.026  0.00  0.00    +0.000 A 
ATOM     25  C   UNL     1       1.527   7.154  20.690  0.00  0.00    +0.000 A 
ATOM     26  C   UNL     1       2.215   6.087  20.108  0.00  0.00    +0.000 A 
ATOM     27  C   UNL     1       2.818   6.223  18.849  0.00  0.00    +0.000 A 
ATOM     28  C   UNL     1       2.685   7.437  18.166  0.00  0.00    +0.000 A 
ATOM     29  C   UNL     1       2.003   8.507  18.751  0.00  0.00    +0.000 A 
BRANCH  27  30
ATOM     30  C   UNL     1       3.601   5.062  18.328  0.00  0.00    +0.000 C 
ATOM     31  O   UNL     1       3.467   3.937  18.812  0.00  0.00    +0.000 OA
BRANCH  30  32
ATOM     32  C   UNL     1       4.577   5.265  17.230  0.00  0.00    +0.000 C 
ATOM     33  C   UNL     1       5.791   4.696  17.267  0.00  0.00    +0.000 C 
BRANCH  33  34
ATOM     34  O   UNL     1       6.253   3.873  18.288  0.00  0.00    +0.000 OA
ATOM     35  H   UNL     1       7.011   3.362  17.916  0.00  0.00    +0.000 HD
ENDBRANCH  33  34
BRANCH  33  36
ATOM     36  C   UNL     1       6.713   4.964  16.115  0.00  0.00    +0.000 C 
ATOM     37  O   UNL     1       7.843   4.554  16.013  0.00  0.00    +0.000 OA
BRANCH  36  38
ATOM     38  O   UNL     1       6.095   5.760  15.216  0.00  0.00    +0.000 OA
ATOM     39  H   UNL     1       5.890   6.625  15.639  0.00  0.00    +0.000 HD
ENDBRANCH  36  38
ENDBRANCH  33  36
ENDBRANCH  30  32
ENDBRANCH  27  30
ENDBRANCH  23  24
ENDBRANCH  22  23
ENDBRANCH  21  22
ENDBRANCH   1  21
TORSDOF 13
ENDMDL
MODEL 4
REMARK VINA RESULT:      -7.7      0.760      1.228
REMARK  Name = 
REMARK  15 active torsions:
REMARK  status: ('A' for Active; 'I' for Inactive)
REMARK    1  A    between atoms: C_1  and  C_2
REMARK    2  A    between atoms: C_2  and  C_3
REMARK    3  A    between atoms: C_2  and  C_4
REMARK    4  A    between atoms: C_5  and  C_6
REMARK    5  A    between atoms: C_6  and  C_7
REMARK    6  A    between atoms: N_13  and  C_14
REMARK    7  A    between atoms: C_14  and  O_15
REMARK    8  A    between atoms: O_15  and  C_16
REMARK    9  A    between atoms: C_16  and  C_17
REMARK   10  A    between atoms: C_17  and  C_18
REMARK   11  A    between atoms: C_21  and  C_22
REMARK   12  A    between atoms: C_22  and  C_24
REMARK   13  A    between atoms: C_25  and  O_26
REMARK   14  A    between atoms: C_25  and  C_27
REMARK   15  A    between atoms: C_27  and  O_29
REMARK                            x       y       z     vdW  Elec       q    Type
REMARK                         _______ _______ _______ _____ _____    ______ ____
ROOT
ATOM      1  C   UNL     1       0.038  10.221  20.729  0.00  0.00    +0.000 C 
ENDROOT
BRANCH   1   4
ATOM      2  C   UNL     1      -2.621  12.683  21.598  0.00  0.00    +0.000 A 
ATOM      3  C   UNL     1      -1.775  11.960  20.805  0.00  0.00    +0.000 A 
ATOM      4  N   UNL     1      -0.883  11.070  21.460  0.00  0.00    +0.000 N 
ATOM      5  C   UNL     1      -0.811  10.914  22.839  0.00  0.00    +0.000 A 
ATOM      6  O   UNL     1      -0.061  10.136  23.427  0.00  0.00    +0.000 OA
ATOM      7  N   UNL     1      -1.621  11.695  23.582  0.00  0.00    +0.000 N 
ATOM      8  C   UNL     1      -2.586  12.489  23.088  0.00  0.00    +0.000 A 
ATOM      9  O   UNL     1      -3.373  13.037  23.865  0.00  0.00    +0.000 OA
ATOM     10  H   UNL     1      -1.593  11.562  24.582  0.00  0.00    +0.000 HD
BRANCH   2  12
ATOM     11  C   UNL     1      -3.111  14.963  20.605  0.00  0.00    +0.000 C 
ATOM     12  C   UNL     1      -3.700  13.703  21.243  0.00  0.00    +0.000 C 
ATOM     13  C   UNL     1      -4.842  13.113  20.434  0.00  0.00    +0.000 C 
ENDBRANCH   2  12
BRANCH   3  14
ATOM     14  C   UNL     1      -1.581  12.150  19.243  0.00  0.00    +0.000 C 
BRANCH  14  15
ATOM     15  C   UNL     1      -2.330  11.302  18.190  0.00  0.00    +0.000 A 
ATOM     16  C   UNL     1      -1.732  10.247  17.501  0.00  0.00    +0.000 A 
ATOM     17  C   UNL     1      -2.295   9.762  16.307  0.00  0.00    +0.000 A 
ATOM     18  C   UNL     1      -3.499  10.271  15.823  0.00  0.00    +0.000 A 
ATOM     19  C   UNL     1      -4.204  11.193  16.584  0.00  0.00    +0.000 A 
ATOM     20  C   UNL     1      -3.627  11.688  17.764  0.00  0.00    +0.000 A 
ENDBRANCH  14  15
ENDBRANCH   3  14
ENDBRANCH   1   4
BRANCH   1  21
ATOM     21  O   UNL     1      -0.076   8.906  21.225  0.00  0.00    +0.000 OA
BRANCH  21  22
ATOM     22  C   UNL     1       1.035   8.076  20.909  0.00  0.00    +0.000 C 
BRANCH  22  23
ATOM     23  C   UNL     1       1.794   8.586  19.681  0.00  0.00    +0.000 C 
BRANCH  23  24
ATOM     24  C   UNL     1       2.451   7.455  18.925  0.00  0.00    +0.000 A 
ATOM     25  C   UNL     1       2.450   6.151  19.438  0.00  0.00    +0.000 A 
ATOM     26  C   UNL     1       3.163   5.138  18.794  0.00  0.00    +0.000 A 
ATOM     27  C   UNL     1       3.885   5.402  17.622  0.00  0.00    +0.000 A 
ATOM     28  C   UNL     1       3.846   6.694  17.083  0.00  0.00    +0.000 A 
ATOM     29  C   UNL     1       3.138   7.710  17.732  0.00  0.00    +0.000 A 
BRANCH  27  30
ATOM     30  C   UNL     1       4.685   4.285  17.035  0.00  0.00    +0.000 C 
ATOM     31  O   UNL     1       4.856   3.234  17.653  0.00  0.00    +0.000 OA
BRANCH  30  32
ATOM     32  C   UNL     1       5.309   4.449  15.699  0.00  0.00    +0.000 C 
ATOM     33  C   UNL     1       6.634   4.618  15.569  0.00  0.00    +0.000 C 
BRANCH  33  34
ATOM     34  O   UNL     1       7.541   4.644  16.623  0.00  0.00    +0.000 OA
ATOM     35  H   UNL     1       7.131   4.133  17.360  0.00  0.00    +0.000 HD
ENDBRANCH  33  34
BRANCH  33  36
ATOM     36  C   UNL     1       7.175   4.782  14.180  0.00  0.00    +0.000 C 
ATOM     37  O   UNL     1       7.989   5.604  13.839  0.00  0.00    +0.000 OA
BRANCH  36  38
ATOM     38  O   UNL     1       6.589   3.885  13.358  0.00  0.00    +0.000 OA
ATOM     39  H   UNL     1       6.943   2.988  13.555  0.00  0.00    +0.000 HD
ENDBRANCH  36  38
ENDBRANCH  33  36
ENDBRANCH  30  32
ENDBRANCH  27  30
ENDBRANCH  23  24
ENDBRANCH  22  23
ENDBRANCH  21  22
ENDBRANCH   1  21
TORSDOF 13
ENDMDL
MODEL 5
REMARK VINA RESULT:      -7.6      1.200      1.701
REMARK  Name = 
REMARK  15 active torsions:
REMARK  status: ('A' for Active; 'I' for Inactive)
REMARK    1  A    between atoms: C_1  and  C_2
REMARK    2  A    between atoms: C_2  and  C_3
REMARK    3  A    between atoms: C_2  and  C_4
REMARK    4  A    between atoms: C_5  and  C_6
REMARK    5  A    between atoms: C_6  and  C_7
REMARK    6  A    between atoms: N_13  and  C_14
REMARK    7  A    between atoms: C_14  and  O_15
REMARK    8  A    between atoms: O_15  and  C_16
REMARK    9  A    between atoms: C_16  and  C_17
REMARK   10  A    between atoms: C_17  and  C_18
REMARK   11  A    between atoms: C_21  and  C_22
REMARK   12  A    between atoms: C_22  and  C_24
REMARK   13  A    between atoms: C_25  and  O_26
REMARK   14  A    between atoms: C_25  and  C_27
REMARK   15  A    between atoms: C_27  and  O_29
REMARK                            x       y       z     vdW  Elec       q    Type
REMARK                         _______ _______ _______ _____ _____    ______ ____
ROOT
ATOM      1  C   UNL     1       0.449  10.794  20.728  0.00  0.00    +0.000 C 
ENDROOT
BRANCH   1   4
ATOM      2  C   UNL     1      -2.846  12.397  21.409  0.00  0.00    +0.000 A 
ATOM      3  C   UNL     1      -1.764  11.986  20.683  0.00  0.00    +0.000 A 
ATOM      4  N   UNL     1      -0.732  11.312  21.391  0.00  0.00    +0.000 N 
ATOM      5  C   UNL     1      -0.756  11.072  22.759  0.00  0.00    +0.000 A 
ATOM      6  O   UNL     1       0.115  10.474  23.390  0.00  0.00    +0.000 OA
ATOM      7  N   UNL     1      -1.814  11.552  23.443  0.00  0.00    +0.000 N 
ATOM      8  C   UNL     1      -2.904  12.102  22.882  0.00  0.00    +0.000 A 
ATOM      9  O   UNL     1      -3.881  12.361  23.590  0.00  0.00    +0.000 OA
ATOM     10  H   UNL     1      -1.849  11.352  24.431  0.00  0.00    +0.000 HD
BRANCH   2  12
ATOM     11  C   UNL     1      -3.879  14.618  20.759  0.00  0.00    +0.000 C 
ATOM     12  C   UNL     1      -4.119  13.124  20.984  0.00  0.00    +0.000 C 
ATOM     13  C   UNL     1      -4.829  12.460  19.817  0.00  0.00    +0.000 C 
ENDBRANCH   2  12
BRANCH   3  14
ATOM     14  C   UNL     1      -1.477  12.343  19.165  0.00  0.00    +0.000 C 
BRANCH  14  15
ATOM     15  C   UNL     1      -1.936  11.453  17.987  0.00  0.00    +0.000 A 
ATOM     16  C   UNL     1      -2.025  11.918  16.675  0.00  0.00    +0.000 A 
ATOM     17  C   UNL     1      -2.793  11.226  15.722  0.00  0.00    +0.000 A 
ATOM     18  C   UNL     1      -3.424  10.025  16.044  0.00  0.00    +0.000 A 
ATOM     19  C   UNL     1      -3.203   9.451  17.288  0.00  0.00    +0.000 A 
ATOM     20  C   UNL     1      -2.452  10.156  18.241  0.00  0.00    +0.000 A 
ENDBRANCH  14  15
ENDBRANCH   3  14
ENDBRANCH   1   4
BRANCH   1  21
ATOM     21  O   UNL     1       0.275   9.411  20.520  0.00  0.00    +0.000 OA
BRANCH  21  22
ATOM     22  C   UNL     1       1.444   8.641  20.776  0.00  0.00    +0.000 C 
BRANCH  22  23
ATOM     23  C   UNL     1       1.098   7.227  21.251  0.00  0.00    +0.000 C 
BRANCH  23  24
ATOM     24  C   UNL     1       1.697   6.175  20.347  0.00  0.00    +0.000 A 
ATOM     25  C   UNL     1       1.949   4.881  20.820  0.00  0.00    +0.000 A 
ATOM     26  C   UNL     1       2.615   3.952  20.016  0.00  0.00    +0.000 A 
ATOM     27  C   UNL     1       3.035   4.294  18.722  0.00  0.00    +0.000 A 
ATOM     28  C   UNL     1       2.740   5.572  18.233  0.00  0.00    +0.000 A 
ATOM     29  C   UNL     1       2.080   6.503  19.041  0.00  0.00    +0.000 A 
BRANCH  27  30
ATOM     30  C   UNL     1       3.808   3.272  17.954  0.00  0.00    +0.000 C 
ATOM     31  O   UNL     1       3.860   2.100  18.330  0.00  0.00    +0.000 OA
BRANCH  30  32
ATOM     32  C   UNL     1       4.549   3.674  16.733  0.00  0.00    +0.000 C 
ATOM     33  C   UNL     1       5.842   4.024  16.791  0.00  0.00    +0.000 C 
BRANCH  33  34
ATOM     34  O   UNL     1       6.612   4.037  17.949  0.00  0.00    +0.000 OA
ATOM     35  H   UNL     1       7.553   4.099  17.660  0.00  0.00    +0.000 HD
ENDBRANCH  33  34
BRANCH  33  36
ATOM     36  C   UNL     1       6.507   4.423  15.507  0.00  0.00    +0.000 C 
ATOM     37  O   UNL     1       6.035   4.292  14.405  0.00  0.00    +0.000 OA
BRANCH  36  38
ATOM     38  O   UNL     1       7.731   4.929  15.770  0.00  0.00    +0.000 OA
ATOM     39  H   UNL     1       8.402   4.215  15.678  0.00  0.00    +0.000 HD
ENDBRANCH  36  38
ENDBRANCH  33  36
ENDBRANCH  30  32
ENDBRANCH  27  30
ENDBRANCH  23  24
ENDBRANCH  22  23
ENDBRANCH  21  22
ENDBRANCH   1  21
TORSDOF 13
ENDMDL
MODEL 6
REMARK VINA RESULT:      -7.6      1.926      2.988
REMARK  Name = 
REMARK  15 active torsions:
REMARK  status: ('A' for Active; 'I' for Inactive)
REMARK    1  A    between atoms: C_1  and  C_2
REMARK    2  A    between atoms: C_2  and  C_3
REMARK    3  A    between atoms: C_2  and  C_4
REMARK    4  A    between atoms: C_5  and  C_6
REMARK    5  A    between atoms: C_6  and  C_7
REMARK    6  A    between atoms: N_13  and  C_14
REMARK    7  A    between atoms: C_14  and  O_15
REMARK    8  A    between atoms: O_15  and  C_16
REMARK    9  A    between atoms: C_16  and  C_17
REMARK   10  A    between atoms: C_17  and  C_18
REMARK   11  A    between atoms: C_21  and  C_22
REMARK   12  A    between atoms: C_22  and  C_24
REMARK   13  A    between atoms: C_25  and  O_26
REMARK   14  A    between atoms: C_25  and  C_27
REMARK   15  A    between atoms: C_27  and  O_29
REMARK                            x       y       z     vdW  Elec       q    Type
REMARK                         _______ _______ _______ _____ _____    ______ ____
ROOT
ATOM      1  C   UNL     1       0.656  10.867  20.933  0.00  0.00    +0.000 C 
ENDROOT
BRANCH   1   4
ATOM      2  C   UNL     1      -2.576  12.583  21.640  0.00  0.00    +0.000 A 
ATOM      3  C   UNL     1      -1.455  12.232  20.942  0.00  0.00    +0.000 A 
ATOM      4  N   UNL     1      -0.550  11.344  21.583  0.00  0.00    +0.000 N 
ATOM      5  C   UNL     1      -0.730  10.840  22.865  0.00  0.00    +0.000 A 
ATOM      6  O   UNL     1       0.029  10.055  23.432  0.00  0.00    +0.000 OA
ATOM      7  N   UNL     1      -1.818  11.264  23.538  0.00  0.00    +0.000 N 
ATOM      8  C   UNL     1      -2.806  12.008  23.010  0.00  0.00    +0.000 A 
ATOM      9  O   UNL     1      -3.830  12.205  23.669  0.00  0.00    +0.000 OA
ATOM     10  H   UNL     1      -1.968  10.877  24.457  0.00  0.00    +0.000 HD
BRANCH   2  12
ATOM     11  C   UNL     1      -3.333  14.959  21.185  0.00  0.00    +0.000 C 
ATOM     12  C   UNL     1      -3.746  13.488  21.265  0.00  0.00    +0.000 C 
ATOM     13  C   UNL     1      -4.496  13.020  20.030  0.00  0.00    +0.000 C 
ENDBRANCH   2  12
BRANCH   3  14
ATOM     14  C   UNL     1      -0.990  12.857  19.562  0.00  0.00    +0.000 C 
BRANCH  14  15
ATOM     15  C   UNL     1      -0.074  14.098  19.463  0.00  0.00    +0.000 A 
ATOM     16  C   UNL     1      -0.553  15.375  19.170  0.00  0.00    +0.000 A 
ATOM     17  C   UNL     1       0.319  16.379  18.714  0.00  0.00    +0.000 A 
ATOM     18  C   UNL     1       1.690  16.147  18.614  0.00  0.00    +0.000 A 
ATOM     19  C   UNL     1       2.214  14.945  19.070  0.00  0.00    +0.000 A 
ATOM     20  C   UNL     1       1.336  13.940  19.505  0.00  0.00    +0.000 A 
ENDBRANCH  14  15
ENDBRANCH   3  14
ENDBRANCH   1   4
BRANCH   1  21
ATOM     21  O   UNL     1       0.288   9.957  19.921  0.00  0.00    +0.000 OA
BRANCH  21  22
ATOM     22  C   UNL     1       1.375   9.187  19.419  0.00  0.00    +0.000 C 
BRANCH  22  23
ATOM     23  C   UNL     1       1.402   7.782  20.028  0.00  0.00    +0.000 C 
BRANCH  23  24
ATOM     24  C   UNL     1       2.470   6.923  19.393  0.00  0.00    +0.000 A 
ATOM     25  C   UNL     1       2.931   5.763  20.029  0.00  0.00    +0.000 A 
ATOM     26  C   UNL     1       4.002   5.043  19.496  0.00  0.00    +0.000 A 
ATOM     27  C   UNL     1       4.629   5.460  18.313  0.00  0.00    +0.000 A 
ATOM     28  C   UNL     1       4.137   6.592  17.652  0.00  0.00    +0.000 A 
ATOM     29  C   UNL     1       3.069   7.317  18.190  0.00  0.00    +0.000 A 
BRANCH  27  30
ATOM     30  C   UNL     1       5.817   4.682  17.848  0.00  0.00    +0.000 C 
ATOM     31  O   UNL     1       6.676   4.299  18.643  0.00  0.00    +0.000 OA
BRANCH  30  32
ATOM     32  C   UNL     1       5.983   4.386  16.404  0.00  0.00    +0.000 C 
ATOM     33  C   UNL     1       6.835   5.093  15.645  0.00  0.00    +0.000 C 
BRANCH  33  34
ATOM     34  O   UNL     1       7.638   6.131  16.105  0.00  0.00    +0.000 OA
ATOM     35  H   UNL     1       8.572   5.846  15.969  0.00  0.00    +0.000 HD
ENDBRANCH  33  34
BRANCH  33  36
ATOM     36  C   UNL     1       6.932   4.727  14.194  0.00  0.00    +0.000 C 
ATOM     37  O   UNL     1       6.303   3.854  13.649  0.00  0.00    +0.000 OA
BRANCH  36  38
ATOM     38  O   UNL     1       7.853   5.509  13.591  0.00  0.00    +0.000 OA
ATOM     39  H   UNL     1       7.633   5.588  12.635  0.00  0.00    +0.000 HD
ENDBRANCH  36  38
ENDBRANCH  33  36
ENDBRANCH  30  32
ENDBRANCH  27  30
ENDBRANCH  23  24
ENDBRANCH  22  23
ENDBRANCH  21  22
ENDBRANCH   1  21
TORSDOF 13
ENDMDL
MODEL 7
REMARK VINA RESULT:      -7.6      6.454     10.133
REMARK  Name = 
REMARK  15 active torsions:
REMARK  status: ('A' for Active; 'I' for Inactive)
REMARK    1  A    between atoms: C_1  and  C_2
REMARK    2  A    between atoms: C_2  and  C_3
REMARK    3  A    between atoms: C_2  and  C_4
REMARK    4  A    between atoms: C_5  and  C_6
REMARK    5  A    between atoms: C_6  and  C_7
REMARK    6  A    between atoms: N_13  and  C_14
REMARK    7  A    between atoms: C_14  and  O_15
REMARK    8  A    between atoms: O_15  and  C_16
REMARK    9  A    between atoms: C_16  and  C_17
REMARK   10  A    between atoms: C_17  and  C_18
REMARK   11  A    between atoms: C_21  and  C_22
REMARK   12  A    between atoms: C_22  and  C_24
REMARK   13  A    between atoms: C_25  and  O_26
REMARK   14  A    between atoms: C_25  and  C_27
REMARK   15  A    between atoms: C_27  and  O_29
REMARK                            x       y       z     vdW  Elec       q    Type
REMARK                         _______ _______ _______ _____ _____    ______ ____
ROOT
ATOM      1  C   UNL     1       5.999   6.832  17.339  0.00  0.00    +0.000 C 
ENDROOT
BRANCH   1   4
ATOM      2  C   UNL     1       3.454   4.372  18.506  0.00  0.00    +0.000 A 
ATOM      3  C   UNL     1       3.944   5.521  17.950  0.00  0.00    +0.000 A 
ATOM      4  N   UNL     1       5.356   5.675  17.933  0.00  0.00    +0.000 N 
ATOM      5  C   UNL     1       6.247   4.749  18.459  0.00  0.00    +0.000 A 
ATOM      6  O   UNL     1       7.473   4.851  18.438  0.00  0.00    +0.000 OA
ATOM      7  N   UNL     1       5.715   3.661  19.052  0.00  0.00    +0.000 N 
ATOM      8  C   UNL     1       4.410   3.340  19.036  0.00  0.00    +0.000 A 
ATOM      9  O   UNL     1       4.054   2.242  19.472  0.00  0.00    +0.000 OA
ATOM     10  H   UNL     1       6.360   2.972  19.408  0.00  0.00    +0.000 HD
BRANCH   2  12
ATOM     11  C   UNL     1       1.409   4.339  20.002  0.00  0.00    +0.000 C 
ATOM     12  C   UNL     1       2.021   3.875  18.679  0.00  0.00    +0.000 C 
ATOM     13  C   UNL     1       1.133   4.174  17.484  0.00  0.00    +0.000 C 
ENDBRANCH   2  12
BRANCH   3  14
ATOM     14  C   UNL     1       3.079   6.765  17.485  0.00  0.00    +0.000 C 
BRANCH  14  15
ATOM     15  C   UNL     1       2.468   7.785  18.473  0.00  0.00    +0.000 A 
ATOM     16  C   UNL     1       2.260   7.503  19.823  0.00  0.00    +0.000 A 
ATOM     17  C   UNL     1       1.372   8.280  20.587  0.00  0.00    +0.000 A 
ATOM     18  C   UNL     1       0.734   9.391  20.037  0.00  0.00    +0.000 A 
ATOM     19  C   UNL     1       1.062   9.798  18.751  0.00  0.00    +0.000 A 
ATOM     20  C   UNL     1       1.934   9.006  17.987  0.00  0.00    +0.000 A 
ENDBRANCH  14  15
ENDBRANCH   3  14
ENDBRANCH   1   4
BRANCH   1  21
ATOM     21  O   UNL     1       6.984   7.302  18.232  0.00  0.00    +0.000 OA
BRANCH  21  22
ATOM     22  C   UNL     1       7.648   8.479  17.785  0.00  0.00    +0.000 C 
BRANCH  22  23
ATOM     23  C   UNL     1       8.925   8.748  18.586  0.00  0.00    +0.000 C 
BRANCH  23  24
ATOM     24  C   UNL     1       9.154  10.227  18.785  0.00  0.00    +0.000 A 
ATOM     25  C   UNL     1       9.336  11.081  17.689  0.00  0.00    +0.000 A 
ATOM     26  C   UNL     1       9.668  12.423  17.886  0.00  0.00    +0.000 A 
ATOM     27  C   UNL     1       9.818  12.943  19.179  0.00  0.00    +0.000 A 
ATOM     28  C   UNL     1       9.589  12.101  20.275  0.00  0.00    +0.000 A 
ATOM     29  C   UNL     1       9.263  10.756  20.077  0.00  0.00    +0.000 A 
BRANCH  27  30
ATOM     30  C   UNL     1      10.249  14.367  19.306  0.00  0.00    +0.000 C 
ATOM     31  O   UNL     1      11.406  14.705  19.052  0.00  0.00    +0.000 OA
BRANCH  30  32
ATOM     32  C   UNL     1       9.282  15.391  19.773  0.00  0.00    +0.000 C 
ATOM     33  C   UNL     1       8.469  16.019  18.910  0.00  0.00    +0.000 C 
BRANCH  33  34
ATOM     34  O   UNL     1       8.427  15.786  17.541  0.00  0.00    +0.000 OA
ATOM     35  H   UNL     1       8.061  16.602  17.127  0.00  0.00    +0.000 HD
ENDBRANCH  33  34
BRANCH  33  36
ATOM     36  C   UNL     1       7.529  17.045  19.472  0.00  0.00    +0.000 C 
ATOM     37  O   UNL     1       7.296  17.213  20.643  0.00  0.00    +0.000 OA
BRANCH  36  38
ATOM     38  O   UNL     1       6.960  17.738  18.462  0.00  0.00    +0.000 OA
ATOM     39  H   UNL     1       6.064  17.370  18.283  0.00  0.00    +0.000 HD
ENDBRANCH  36  38
ENDBRANCH  33  36
ENDBRANCH  30  32
ENDBRANCH  27  30
ENDBRANCH  23  24
ENDBRANCH  22  23
ENDBRANCH  21  22
ENDBRANCH   1  21
TORSDOF 13
ENDMDL
MODEL 8
REMARK VINA RESULT:      -7.5      1.993      3.746
REMARK  Name = 
REMARK  15 active torsions:
REMARK  status: ('A' for Active; 'I' for Inactive)
REMARK    1  A    between atoms: C_1  and  C_2
REMARK    2  A    between atoms: C_2  and  C_3
REMARK    3  A    between atoms: C_2  and  C_4
REMARK    4  A    between atoms: C_5  and  C_6
REMARK    5  A    between atoms: C_6  and  C_7
REMARK    6  A    between atoms: N_13  and  C_14
REMARK    7  A    between atoms: C_14  and  O_15
REMARK    8  A    between atoms: O_15  and  C_16
REMARK    9  A    between atoms: C_16  and  C_17
REMARK   10  A    between atoms: C_17  and  C_18
REMARK   11  A    between atoms: C_21  and  C_22
REMARK   12  A    between atoms: C_22  and  C_24
REMARK   13  A    between atoms: C_25  and  O_26
REMARK   14  A    between atoms: C_25  and  C_27
REMARK   15  A    between atoms: C_27  and  O_29
REMARK                            x       y       z     vdW  Elec       q    Type
REMARK                         _______ _______ _______ _____ _____    ______ ____
ROOT
ATOM      1  C   UNL     1      -1.463  11.256  17.715  0.00  0.00    +0.000 C 
ENDROOT
BRANCH   1   4
ATOM      2  C   UNL     1      -4.811  12.196  19.055  0.00  0.00    +0.000 A 
ATOM      3  C   UNL     1      -3.451  12.209  18.922  0.00  0.00    +0.000 A 
ATOM      4  N   UNL     1      -2.889  11.312  17.975  0.00  0.00    +0.000 N 
ATOM      5  C   UNL     1      -3.632  10.424  17.206  0.00  0.00    +0.000 A 
ATOM      6  O   UNL     1      -3.169   9.653  16.366  0.00  0.00    +0.000 OA
ATOM      7  N   UNL     1      -4.963  10.403  17.418  0.00  0.00    +0.000 N 
ATOM      8  C   UNL     1      -5.630  11.274  18.195  0.00  0.00    +0.000 A 
ATOM      9  O   UNL     1      -6.864  11.262  18.192  0.00  0.00    +0.000 OA
ATOM     10  H   UNL     1      -5.508   9.783  16.839  0.00  0.00    +0.000 HD
BRANCH   2  12
ATOM     11  C   UNL     1      -5.935  12.369  21.320  0.00  0.00    +0.000 C 
ATOM     12  C   UNL     1      -5.738  13.017  19.948  0.00  0.00    +0.000 C 
ATOM     13  C   UNL     1      -5.343  14.480  20.040  0.00  0.00    +0.000 C 
ENDBRANCH   2  12
BRANCH   3  14
ATOM     14  C   UNL     1      -2.438  13.004  19.846  0.00  0.00    +0.000 C 
BRANCH  14  15
ATOM     15  C   UNL     1      -1.841  12.416  21.146  0.00  0.00    +0.000 A 
ATOM     16  C   UNL     1      -0.594  11.794  21.194  0.00  0.00    +0.000 A 
ATOM     17  C   UNL     1      -0.258  10.949  22.266  0.00  0.00    +0.000 A 
ATOM     18  C   UNL     1      -1.130  10.770  23.339  0.00  0.00    +0.000 A 
ATOM     19  C   UNL     1      -2.298  11.517  23.401  0.00  0.00    +0.000 A 
ATOM     20  C   UNL     1      -2.637  12.343  22.318  0.00  0.00    +0.000 A 
ENDBRANCH  14  15
ENDBRANCH   3  14
ENDBRANCH   1   4
BRANCH   1  21
ATOM     21  O   UNL     1      -0.940  10.104  18.337  0.00  0.00    +0.000 OA
BRANCH  21  22
ATOM     22  C   UNL     1       0.457   9.924  18.131  0.00  0.00    +0.000 C 
BRANCH  22  23
ATOM     23  C   UNL     1       1.140   9.329  19.365  0.00  0.00    +0.000 C 
BRANCH  23  24
ATOM     24  C   UNL     1       2.067   8.196  18.994  0.00  0.00    +0.000 A 
ATOM     25  C   UNL     1       2.753   8.199  17.773  0.00  0.00    +0.000 A 
ATOM     26  C   UNL     1       3.511   7.092  17.385  0.00  0.00    +0.000 A 
ATOM     27  C   UNL     1       3.607   5.963  18.212  0.00  0.00    +0.000 A 
ATOM     28  C   UNL     1       2.960   5.980  19.454  0.00  0.00    +0.000 A 
ATOM     29  C   UNL     1       2.196   7.085  19.838  0.00  0.00    +0.000 A 
BRANCH  27  30
ATOM     30  C   UNL     1       4.372   4.789  17.694  0.00  0.00    +0.000 C 
ATOM     31  O   UNL     1       4.492   3.763  18.364  0.00  0.00    +0.000 OA
BRANCH  30  32
ATOM     32  C   UNL     1       5.024   4.864  16.363  0.00  0.00    +0.000 C 
ATOM     33  C   UNL     1       6.329   4.591  16.214  0.00  0.00    +0.000 C 
BRANCH  33  34
ATOM     34  O   UNL     1       7.184   4.206  17.241  0.00  0.00    +0.000 OA
ATOM     35  H   UNL     1       6.622   4.072  18.040  0.00  0.00    +0.000 HD
ENDBRANCH  33  34
BRANCH  33  36
ATOM     36  C   UNL     1       6.903   4.700  14.833  0.00  0.00    +0.000 C 
ATOM     37  O   UNL     1       7.833   5.398  14.515  0.00  0.00    +0.000 OA
BRANCH  36  38
ATOM     38  O   UNL     1       6.201   3.913  13.988  0.00  0.00    +0.000 OA
ATOM     39  H   UNL     1       6.601   3.967  13.090  0.00  0.00    +0.000 HD
ENDBRANCH  36  38
ENDBRANCH  33  36
ENDBRANCH  30  32
ENDBRANCH  27  30
ENDBRANCH  23  24
ENDBRANCH  22  23
ENDBRANCH  21  22
ENDBRANCH   1  21
TORSDOF 13
ENDMDL
MODEL 9
REMARK VINA RESULT:      -7.5      6.441     10.105
REMARK  Name = 
REMARK  15 active torsions:
REMARK  status: ('A' for Active; 'I' for Inactive)
REMARK    1  A    between atoms: C_1  and  C_2
REMARK    2  A    between atoms: C_2  and  C_3
REMARK    3  A    between atoms: C_2  and  C_4
REMARK    4  A    between atoms: C_5  and  C_6
REMARK    5  A    between atoms: C_6  and  C_7
REMARK    6  A    between atoms: N_13  and  C_14
REMARK    7  A    between atoms: C_14  and  O_15
REMARK    8  A    between atoms: O_15  and  C_16
REMARK    9  A    between atoms: C_16  and  C_17
REMARK   10  A    between atoms: C_17  and  C_18
REMARK   11  A    between atoms: C_21  and  C_22
REMARK   12  A    between atoms: C_22  and  C_24
REMARK   13  A    between atoms: C_25  and  O_26
REMARK   14  A    between atoms: C_25  and  C_27
REMARK   15  A    between atoms: C_27  and  O_29
REMARK                            x       y       z     vdW  Elec       q    Type
REMARK                         _______ _______ _______ _____ _____    ______ ____
ROOT
ATOM      1  C   UNL     1       5.301   6.724  16.963  0.00  0.00    +0.000 C 
ENDROOT
BRANCH   1   4
ATOM      2  C   UNL     1       3.392   4.024  18.683  0.00  0.00    +0.000 A 
ATOM      3  C   UNL     1       3.855   5.285  18.433  0.00  0.00    +0.000 A 
ATOM      4  N   UNL     1       4.766   5.433  17.352  0.00  0.00    +0.000 N 
ATOM      5  C   UNL     1       5.218   4.381  16.565  0.00  0.00    +0.000 A 
ATOM      6  O   UNL     1       5.990   4.488  15.613  0.00  0.00    +0.000 OA
ATOM      7  N   UNL     1       4.782   3.147  16.890  0.00  0.00    +0.000 N 
ATOM      8  C   UNL     1       3.837   2.885  17.809  0.00  0.00    +0.000 A 
ATOM      9  O   UNL     1       3.400   1.735  17.913  0.00  0.00    +0.000 OA
ATOM     10  H   UNL     1       5.084   2.386  16.302  0.00  0.00    +0.000 HD
BRANCH   2  12
ATOM     11  C   UNL     1       2.726   4.053  21.128  0.00  0.00    +0.000 C 
ATOM     12  C   UNL     1       2.412   3.508  19.734  0.00  0.00    +0.000 C 
ATOM     13  C   UNL     1       0.957   3.696  19.342  0.00  0.00    +0.000 C 
ENDBRANCH   2  12
BRANCH   3  14
ATOM     14  C   UNL     1       3.606   6.560  19.341  0.00  0.00    +0.000 C 
BRANCH  14  15
ATOM     15  C   UNL     1       2.421   7.531  19.126  0.00  0.00    +0.000 A 
ATOM     16  C   UNL     1       2.134   8.117  17.894  0.00  0.00    +0.000 A 
ATOM     17  C   UNL     1       1.319   9.260  17.818  0.00  0.00    +0.000 A 
ATOM     18  C   UNL     1       0.721   9.792  18.960  0.00  0.00    +0.000 A 
ATOM     19  C   UNL     1       0.845   9.122  20.169  0.00  0.00    +0.000 A 
ATOM     20  C   UNL     1       1.676   7.993  20.242  0.00  0.00    +0.000 A 
ENDBRANCH  14  15
ENDBRANCH   3  14
ENDBRANCH   1   4
BRANCH   1  21
ATOM     21  O   UNL     1       6.451   6.982  17.736  0.00  0.00    +0.000 OA
BRANCH  21  22
ATOM     22  C   UNL     1       6.966   8.300  17.577  0.00  0.00    +0.000 C 
BRANCH  22  23
ATOM     23  C   UNL     1       8.393   8.420  18.117  0.00  0.00    +0.000 C 
BRANCH  23  24
ATOM     24  C   UNL     1       8.719   9.840  18.514  0.00  0.00    +0.000 A 
ATOM     25  C   UNL     1       8.498  10.903  17.629  0.00  0.00    +0.000 A 
ATOM     26  C   UNL     1       8.914  12.195  17.958  0.00  0.00    +0.000 A 
ATOM     27  C   UNL     1       9.552  12.454  19.179  0.00  0.00    +0.000 A 
ATOM     28  C   UNL     1       9.729  11.400  20.084  0.00  0.00    +0.000 A 
ATOM     29  C   UNL     1       9.319  10.106  19.751  0.00  0.00    +0.000 A 
BRANCH  27  30
ATOM     30  C   UNL     1      10.037  13.845  19.425  0.00  0.00    +0.000 C 
ATOM     31  O   UNL     1      10.938  14.070  20.235  0.00  0.00    +0.000 OA
BRANCH  30  32
ATOM     32  C   UNL     1       9.410  14.982  18.707  0.00  0.00    +0.000 C 
ATOM     33  C   UNL     1       8.872  16.013  19.376  0.00  0.00    +0.000 C 
BRANCH  33  34
ATOM     34  O   UNL     1       8.854  16.140  20.761  0.00  0.00    +0.000 OA
ATOM     35  H   UNL     1       8.711  17.097  20.953  0.00  0.00    +0.000 HD
ENDBRANCH  33  34
BRANCH  33  36
ATOM     36  C   UNL     1       8.254  17.113  18.566  0.00  0.00    +0.000 C 
ATOM     37  O   UNL     1       7.082  17.398  18.553  0.00  0.00    +0.000 OA
BRANCH  36  38
ATOM     38  O   UNL     1       9.208  17.722  17.829  0.00  0.00    +0.000 OA
ATOM     39  H   UNL     1       9.446  18.578  18.254  0.00  0.00    +0.000 HD
ENDBRANCH  36  38
ENDBRANCH  33  36
ENDBRANCH  30  32
ENDBRANCH  27  30
ENDBRANCH  23  24
ENDBRANCH  22  23
ENDBRANCH  21  22
ENDBRANCH   1  21
TORSDOF 13
ENDMDL
