MODEL 1
REMARK VINA RESULT:      -7.7      0.000      0.000
REMARK  Name = 
REMARK  6 active torsions:
REMARK  status: ('A' for Active; 'I' for Inactive)
REMARK    1  A    between atoms: C_1  and  O_2
REMARK    2  A    between atoms: O_2  and  C_3
REMARK    3  A    between atoms: C_3  and  C_4
REMARK    4  A    between atoms: C_7  and  C_8
REMARK    5  A    between atoms: C_8  and  N_9
REMARK    6  A    between atoms: N_12  and  C_13
REMARK                            x       y       z     vdW  Elec       q    Type
REMARK                         _______ _______ _______ _____ _____    ______ ____
ROOT
ATOM      1  N   UNL     1       8.186   7.456  18.389  0.00  0.00    +0.000 N 
ATOM      2  C   UNL     1       8.290   8.824  18.323  0.00  0.00    +0.000 C 
ATOM      3  O   UNL     1       7.674   9.506  17.519  0.00  0.00    +0.000 OA
ATOM      4  N   UNL     1       9.145   9.321  19.270  0.00  0.00    +0.000 N 
ATOM      5  H   UNL     1       9.001   6.955  18.714  0.00  0.00    +0.000 HD
ATOM      6  H   UNL     1       9.358   8.703  20.040  0.00  0.00    +0.000 HD
ENDROOT
BRANCH   4   7
ATOM      7  C   UNL     1       9.433  10.755  19.459  0.00  0.00    +0.000 C 
ATOM      8  C   UNL     1       9.239  11.153  20.931  0.00  0.00    +0.000 C 
ATOM      9  C   UNL     1       9.195  12.659  21.191  0.00  0.00    +0.000 C 
ATOM     10  C   UNL     1      10.507  13.386  20.909  0.00  0.00    +0.000 C 
ATOM     11  C   UNL     1      10.751  13.654  19.443  0.00  0.00    +0.000 A 
ATOM     12  C   UNL     1      10.859  14.989  19.010  0.00  0.00    +0.000 A 
ATOM     13  C   UNL     1      11.135  15.294  17.678  0.00  0.00    +0.000 A 
ATOM     14  C   UNL     1      11.313  14.266  16.760  0.00  0.00    +0.000 A 
ATOM     15  C   UNL     1      11.202  12.937  17.173  0.00  0.00    +0.000 A 
ATOM     16  C   UNL     1      10.914  12.613  18.511  0.00  0.00    +0.000 A 
ATOM     17  C   UNL     1      10.820  11.153  18.911  0.00  0.00    +0.000 C 
ENDBRANCH   4   7
BRANCH   1  18
ATOM     18  C   UNL     1       7.387   6.768  17.397  0.00  0.00    +0.000 C 
BRANCH  18  22
ATOM     19  C   UNL     1       5.074   4.106  18.265  0.00  0.00    +0.000 A 
ATOM     20  N   UNL     1       5.758   4.194  19.387  0.00  0.00    +0.000 NA
ATOM     21  N   UNL     1       6.698   5.189  19.243  0.00  0.00    +0.000 NA
ATOM     22  C   UNL     1       6.569   5.702  18.036  0.00  0.00    +0.000 A 
ATOM     23  N   UNL     1       5.550   5.048  17.390  0.00  0.00    +0.000 N 
ATOM     24  H   UNL     1       5.222   5.198  16.447  0.00  0.00    +0.000 HD
BRANCH  19  25
ATOM     25  C   UNL     1       3.949   3.190  17.948  0.00  0.00    +0.000 C 
BRANCH  25  27
ATOM     26  C   UNL     1       1.929   4.403  17.927  0.00  0.00    +0.000 C 
ATOM     27  O   UNL     1       3.015   3.917  17.145  0.00  0.00    +0.000 OA
ENDBRANCH  25  27
ENDBRANCH  19  25
ENDBRANCH  18  22
ENDBRANCH   1  18
TORSDOF 5
ENDMDL
MODEL 2
REMARK VINA RESULT:      -7.4      6.225      9.411
REMARK  Name = 
REMARK  6 active torsions:
REMARK  status: ('A' for Active; 'I' for Inactive)
REMARK    1  A    between atoms: C_1  and  O_2
REMARK    2  A    between atoms: O_2  and  C_3
REMARK    3  A    between atoms: C_3  and  C_4
REMARK    4  A    between atoms: C_7  and  C_8
REMARK    5  A    between atoms: C_8  and  N_9
REMARK    6  A    between atoms: N_12  and  C_13
REMARK                            x       y       z     vdW  Elec       q    Type
REMARK                         _______ _______ _______ _____ _____    ______ ____
ROOT
ATOM      1  N   UNL     1       0.739  10.365  17.962  0.00  0.00    +0.000 N 
ATOM      2  C   UNL     1       1.476   9.362  18.541  0.00  0.00    +0.000 C 
ATOM      3  O   UNL     1       1.500   9.154  19.744  0.00  0.00    +0.000 OA
ATOM      4  N   UNL     1       2.158   8.623  17.610  0.00  0.00    +0.000 N 
ATOM      5  H   UNL     1       1.101  10.757  17.103  0.00  0.00    +0.000 HD
ATOM      6  H   UNL     1       1.834   8.706  16.657  0.00  0.00    +0.000 HD
ENDROOT
BRANCH   4   7
ATOM      7  C   UNL     1       3.009   7.462  17.932  0.00  0.00    +0.000 C 
ATOM      8  C   UNL     1       2.148   6.208  18.149  0.00  0.00    +0.000 C 
ATOM      9  C   UNL     1       2.877   5.030  18.796  0.00  0.00    +0.000 C 
ATOM     10  C   UNL     1       3.984   4.425  17.937  0.00  0.00    +0.000 C 
ATOM     11  C   UNL     1       5.268   5.218  17.953  0.00  0.00    +0.000 A 
ATOM     12  C   UNL     1       6.434   4.605  18.449  0.00  0.00    +0.000 A 
ATOM     13  C   UNL     1       7.658   5.272  18.440  0.00  0.00    +0.000 A 
ATOM     14  C   UNL     1       7.735   6.562  17.927  0.00  0.00    +0.000 A 
ATOM     15  C   UNL     1       6.586   7.186  17.438  0.00  0.00    +0.000 A 
ATOM     16  C   UNL     1       5.341   6.530  17.449  0.00  0.00    +0.000 A 
ATOM     17  C   UNL     1       4.127   7.247  16.890  0.00  0.00    +0.000 C 
ENDBRANCH   4   7
BRANCH   1  18
ATOM     18  C   UNL     1       0.029  11.293  18.818  0.00  0.00    +0.000 C 
BRANCH  18  22
ATOM     19  C   UNL     1      -3.189  11.275  17.134  0.00  0.00    +0.000 A 
ATOM     20  N   UNL     1      -3.561  11.648  18.341  0.00  0.00    +0.000 NA
ATOM     21  N   UNL     1      -2.439  11.723  19.135  0.00  0.00    +0.000 NA
ATOM     22  C   UNL     1      -1.394  11.402  18.399  0.00  0.00    +0.000 A 
ATOM     23  N   UNL     1      -1.827  11.118  17.127  0.00  0.00    +0.000 N 
ATOM     24  H   UNL     1      -1.270  10.823  16.339  0.00  0.00    +0.000 HD
BRANCH  19  25
ATOM     25  C   UNL     1      -4.042  11.071  15.936  0.00  0.00    +0.000 C 
BRANCH  25  27
ATOM     26  C   UNL     1      -3.181  10.080  13.979  0.00  0.00    +0.000 C 
ATOM     27  O   UNL     1      -3.625   9.853  15.313  0.00  0.00    +0.000 OA
ENDBRANCH  25  27
ENDBRANCH  19  25
ENDBRANCH  18  22
ENDBRANCH   1  18
TORSDOF 5
ENDMDL
MODEL 3
REMARK VINA RESULT:      -7.4      7.090     10.526
REMARK  Name = 
REMARK  6 active torsions:
REMARK  status: ('A' for Active; 'I' for Inactive)
REMARK    1  A    between atoms: C_1  and  O_2
REMARK    2  A    between atoms: O_2  and  C_3
REMARK    3  A    between atoms: C_3  and  C_4
REMARK    4  A    between atoms: C_7  and  C_8
REMARK    5  A    between atoms: C_8  and  N_9
REMARK    6  A    between atoms: N_12  and  C_13
REMARK                            x       y       z     vdW  Elec       q    Type
REMARK                         _______ _______ _______ _____ _____    ______ ____
ROOT
ATOM      1  N   UNL     1       1.029  10.424  19.411  0.00  0.00    +0.000 N 
ATOM      2  C   UNL     1       1.550   9.456  18.590  0.00  0.00    +0.000 C 
ATOM      3  O   UNL     1       1.761   9.626  17.399  0.00  0.00    +0.000 OA
ATOM      4  N   UNL     1       1.816   8.295  19.268  0.00  0.00    +0.000 N 
ATOM      5  H   UNL     1       0.478  10.105  20.197  0.00  0.00    +0.000 HD
ATOM      6  H   UNL     1       1.872   8.375  20.273  0.00  0.00    +0.000 HD
ENDROOT
BRANCH   4   7
ATOM      7  C   UNL     1       2.408   7.091  18.655  0.00  0.00    +0.000 C 
ATOM      8  C   UNL     1       3.740   7.436  17.971  0.00  0.00    +0.000 C 
ATOM      9  C   UNL     1       4.283   6.354  17.036  0.00  0.00    +0.000 C 
ATOM     10  C   UNL     1       4.692   5.062  17.738  0.00  0.00    +0.000 C 
ATOM     11  C   UNL     1       3.528   4.165  18.086  0.00  0.00    +0.000 A 
ATOM     12  C   UNL     1       3.471   2.881  17.514  0.00  0.00    +0.000 A 
ATOM     13  C   UNL     1       2.448   1.992  17.839  0.00  0.00    +0.000 A 
ATOM     14  C   UNL     1       1.469   2.374  18.749  0.00  0.00    +0.000 A 
ATOM     15  C   UNL     1       1.509   3.646  19.321  0.00  0.00    +0.000 A 
ATOM     16  C   UNL     1       2.529   4.559  18.995  0.00  0.00    +0.000 A 
ATOM     17  C   UNL     1       2.535   5.924  19.656  0.00  0.00    +0.000 C 
ENDBRANCH   4   7
BRANCH   1  18
ATOM     18  C   UNL     1       0.611  11.682  18.829  0.00  0.00    +0.000 C 
BRANCH  18  22
ATOM     19  C   UNL     1      -2.812  11.338  17.667  0.00  0.00    +0.000 A 
ATOM     20  N   UNL     1      -3.023  11.873  18.853  0.00  0.00    +0.000 NA
ATOM     21  N   UNL     1      -1.802  12.092  19.450  0.00  0.00    +0.000 NA
ATOM     22  C   UNL     1      -0.862  11.694  18.617  0.00  0.00    +0.000 A 
ATOM     23  N   UNL     1      -1.461  11.216  17.478  0.00  0.00    +0.000 N 
ATOM     24  H   UNL     1      -1.011  10.824  16.664  0.00  0.00    +0.000 HD
BRANCH  19  25
ATOM     25  C   UNL     1      -3.820  10.940  16.652  0.00  0.00    +0.000 C 
BRANCH  25  27
ATOM     26  C   UNL     1      -3.214  10.222  14.491  0.00  0.00    +0.000 C 
ATOM     27  O   UNL     1      -3.252   9.883  15.874  0.00  0.00    +0.000 OA
ENDBRANCH  25  27
ENDBRANCH  19  25
ENDBRANCH  18  22
ENDBRANCH   1  18
TORSDOF 5
ENDMDL
MODEL 4
REMARK VINA RESULT:      -7.3      2.482      2.849
REMARK  Name = 
REMARK  6 active torsions:
REMARK  status: ('A' for Active; 'I' for Inactive)
REMARK    1  A    between atoms: C_1  and  O_2
REMARK    2  A    between atoms: O_2  and  C_3
REMARK    3  A    between atoms: C_3  and  C_4
REMARK    4  A    between atoms: C_7  and  C_8
REMARK    5  A    between atoms: C_8  and  N_9
REMARK    6  A    between atoms: N_12  and  C_13
REMARK                            x       y       z     vdW  Elec       q    Type
REMARK                         _______ _______ _______ _____ _____    ______ ____
ROOT
ATOM      1  N   UNL     1       7.423   7.854  17.250  0.00  0.00    +0.000 N 
ATOM      2  C   UNL     1       8.242   8.579  18.079  0.00  0.00    +0.000 C 
ATOM      3  O   UNL     1       8.872   8.086  19.001  0.00  0.00    +0.000 OA
ATOM      4  N   UNL     1       8.277   9.906  17.736  0.00  0.00    +0.000 N 
ATOM      5  H   UNL     1       6.631   8.343  16.854  0.00  0.00    +0.000 HD
ATOM      6  H   UNL     1       7.954  10.128  16.805  0.00  0.00    +0.000 HD
ENDROOT
BRANCH   4   7
ATOM      7  C   UNL     1       9.093  10.922  18.427  0.00  0.00    +0.000 C 
ATOM      8  C   UNL     1       9.276  10.549  19.906  0.00  0.00    +0.000 C 
ATOM      9  C   UNL     1       9.822  11.670  20.790  0.00  0.00    +0.000 C 
ATOM     10  C   UNL     1      11.252  12.091  20.462  0.00  0.00    +0.000 C 
ATOM     11  C   UNL     1      11.358  12.998  19.259  0.00  0.00    +0.000 A 
ATOM     12  C   UNL     1      11.881  14.294  19.435  0.00  0.00    +0.000 A 
ATOM     13  C   UNL     1      12.050  15.155  18.352  0.00  0.00    +0.000 A 
ATOM     14  C   UNL     1      11.703  14.730  17.075  0.00  0.00    +0.000 A 
ATOM     15  C   UNL     1      11.178  13.451  16.886  0.00  0.00    +0.000 A 
ATOM     16  C   UNL     1      10.992  12.573  17.969  0.00  0.00    +0.000 A 
ATOM     17  C   UNL     1      10.432  11.188  17.708  0.00  0.00    +0.000 C 
ENDBRANCH   4   7
BRANCH   1  18
ATOM     18  C   UNL     1       7.208   6.450  17.534  0.00  0.00    +0.000 C 
BRANCH  18  22
ATOM     19  C   UNL     1       6.439   4.779  14.403  0.00  0.00    +0.000 A 
ATOM     20  N   UNL     1       5.259   4.729  14.989  0.00  0.00    +0.000 NA
ATOM     21  N   UNL     1       5.361   5.343  16.216  0.00  0.00    +0.000 NA
ATOM     22  C   UNL     1       6.600   5.769  16.360  0.00  0.00    +0.000 A 
ATOM     23  N   UNL     1       7.310   5.436  15.233  0.00  0.00    +0.000 N 
ATOM     24  H   UNL     1       8.287   5.608  15.048  0.00  0.00    +0.000 HD
BRANCH  19  25
ATOM     25  C   UNL     1       6.818   4.262  13.064  0.00  0.00    +0.000 C 
BRANCH  25  27
ATOM     26  C   UNL     1       5.149   3.201  11.783  0.00  0.00    +0.000 C 
ATOM     27  O   UNL     1       6.084   3.054  12.847  0.00  0.00    +0.000 OA
ENDBRANCH  25  27
ENDBRANCH  19  25
ENDBRANCH  18  22
ENDBRANCH   1  18
TORSDOF 5
ENDMDL
MODEL 5
REMARK VINA RESULT:      -7.3      7.228     10.525
REMARK  Name = 
REMARK  6 active torsions:
REMARK  status: ('A' for Active; 'I' for Inactive)
REMARK    1  A    between atoms: C_1  and  O_2
REMARK    2  A    between atoms: O_2  and  C_3
REMARK    3  A    between atoms: C_3  and  C_4
REMARK    4  A    between atoms: C_7  and  C_8
REMARK    5  A    between atoms: C_8  and  N_9
REMARK    6  A    between atoms: N_12  and  C_13
REMARK                            x       y       z     vdW  Elec       q    Type
REMARK                         _______ _______ _______ _____ _____    ______ ____
ROOT
ATOM      1  N   UNL     1       0.939  10.901  18.381  0.00  0.00    +0.000 N 
ATOM      2  C   UNL     1       1.224   9.627  18.805  0.00  0.00    +0.000 C 
ATOM      3  O   UNL     1       0.766   9.140  19.827  0.00  0.00    +0.000 OA
ATOM      4  N   UNL     1       2.062   8.972  17.941  0.00  0.00    +0.000 N 
ATOM      5  H   UNL     1       1.655  11.372  17.844  0.00  0.00    +0.000 HD
ATOM      6  H   UNL     1       2.133   9.366  17.013  0.00  0.00    +0.000 HD
ENDROOT
BRANCH   4   7
ATOM      7  C   UNL     1       2.519   7.582  18.118  0.00  0.00    +0.000 C 
ATOM      8  C   UNL     1       3.849   7.355  17.384  0.00  0.00    +0.000 C 
ATOM      9  C   UNL     1       4.256   5.889  17.225  0.00  0.00    +0.000 C 
ATOM     10  C   UNL     1       4.573   5.178  18.538  0.00  0.00    +0.000 C 
ATOM     11  C   UNL     1       3.348   4.746  19.307  0.00  0.00    +0.000 A 
ATOM     12  C   UNL     1       3.153   3.374  19.552  0.00  0.00    +0.000 A 
ATOM     13  C   UNL     1       2.067   2.923  20.301  0.00  0.00    +0.000 A 
ATOM     14  C   UNL     1       1.163   3.841  20.822  0.00  0.00    +0.000 A 
ATOM     15  C   UNL     1       1.339   5.204  20.583  0.00  0.00    +0.000 A 
ATOM     16  C   UNL     1       2.424   5.675  19.821  0.00  0.00    +0.000 A 
ATOM     17  C   UNL     1       2.579   7.168  19.604  0.00  0.00    +0.000 C 
ENDBRANCH   4   7
BRANCH   1  18
ATOM     18  C   UNL     1       0.135  11.756  19.230  0.00  0.00    +0.000 C 
BRANCH  18  22
ATOM     19  C   UNL     1      -3.051  11.408  17.523  0.00  0.00    +0.000 A 
ATOM     20  N   UNL     1      -3.466  11.791  18.714  0.00  0.00    +0.000 NA
ATOM     21  N   UNL     1      -2.363  11.988  19.513  0.00  0.00    +0.000 NA
ATOM     22  C   UNL     1      -1.287  11.730  18.796  0.00  0.00    +0.000 A 
ATOM     23  N   UNL     1      -1.681  11.367  17.533  0.00  0.00    +0.000 N 
ATOM     24  H   UNL     1      -1.093  11.093  16.760  0.00  0.00    +0.000 HD
BRANCH  19  25
ATOM     25  C   UNL     1      -3.871  11.092  16.326  0.00  0.00    +0.000 C 
BRANCH  25  27
ATOM     26  C   UNL     1      -3.168  10.083  14.317  0.00  0.00    +0.000 C 
ATOM     27  O   UNL     1      -3.022  11.205  15.181  0.00  0.00    +0.000 OA
ENDBRANCH  25  27
ENDBRANCH  19  25
ENDBRANCH  18  22
ENDBRANCH   1  18
TORSDOF 5
ENDMDL
MODEL 6
REMARK VINA RESULT:      -7.3      6.010      8.472
REMARK  Name = 
REMARK  6 active torsions:
REMARK  status: ('A' for Active; 'I' for Inactive)
REMARK    1  A    between atoms: C_1  and  O_2
REMARK    2  A    between atoms: O_2  and  C_3
REMARK    3  A    between atoms: C_3  and  C_4
REMARK    4  A    between atoms: C_7  and  C_8
REMARK    5  A    between atoms: C_8  and  N_9
REMARK    6  A    between atoms: N_12  and  C_13
REMARK                            x       y       z     vdW  Elec       q    Type
REMARK                         _______ _______ _______ _____ _____    ______ ____
ROOT
ATOM      1  N   UNL     1       2.990   5.330  20.472  0.00  0.00    +0.000 N 
ATOM      2  C   UNL     1       2.140   6.338  20.091  0.00  0.00    +0.000 C 
ATOM      3  O   UNL     1       1.684   6.443  18.963  0.00  0.00    +0.000 OA
ATOM      4  N   UNL     1       1.856   7.190  21.125  0.00  0.00    +0.000 N 
ATOM      5  H   UNL     1       3.652   5.547  21.206  0.00  0.00    +0.000 HD
ATOM      6  H   UNL     1       2.053   6.840  22.052  0.00  0.00    +0.000 HD
ENDROOT
BRANCH   4   7
ATOM      7  C   UNL     1       0.949   8.349  21.023  0.00  0.00    +0.000 C 
ATOM      8  C   UNL     1       0.948   9.147  22.336  0.00  0.00    +0.000 C 
ATOM      9  C   UNL     1      -0.181  10.171  22.466  0.00  0.00    +0.000 C 
ATOM     10  C   UNL     1      -0.100  11.327  21.472  0.00  0.00    +0.000 C 
ATOM     11  C   UNL     1      -0.590  10.975  20.088  0.00  0.00    +0.000 A 
ATOM     12  C   UNL     1      -1.696  11.672  19.566  0.00  0.00    +0.000 A 
ATOM     13  C   UNL     1      -2.158  11.425  18.275  0.00  0.00    +0.000 A 
ATOM     14  C   UNL     1      -1.516  10.479  17.483  0.00  0.00    +0.000 A 
ATOM     15  C   UNL     1      -0.422   9.775  17.990  0.00  0.00    +0.000 A 
ATOM     16  C   UNL     1       0.051  10.006  19.294  0.00  0.00    +0.000 A 
ATOM     17  C   UNL     1       1.253   9.226  19.791  0.00  0.00    +0.000 C 
ENDBRANCH   4   7
BRANCH   1  18
ATOM     18  C   UNL     1       3.457   4.394  19.470  0.00  0.00    +0.000 C 
BRANCH  18  22
ATOM     19  C   UNL     1       6.455   5.501  17.745  0.00  0.00    +0.000 A 
ATOM     20  N   UNL     1       6.965   5.191  18.920  0.00  0.00    +0.000 NA
ATOM     21  N   UNL     1       5.948   4.728  19.723  0.00  0.00    +0.000 NA
ATOM     22  C   UNL     1       4.830   4.753  19.024  0.00  0.00    +0.000 A 
ATOM     23  N   UNL     1       5.111   5.231  17.768  0.00  0.00    +0.000 N 
ATOM     24  H   UNL     1       4.464   5.385  17.009  0.00  0.00    +0.000 HD
BRANCH  19  25
ATOM     25  C   UNL     1       7.163   6.027  16.550  0.00  0.00    +0.000 C 
BRANCH  25  27
ATOM     26  C   UNL     1       6.948   4.753  14.581  0.00  0.00    +0.000 C 
ATOM     27  O   UNL     1       7.649   4.904  15.810  0.00  0.00    +0.000 OA
ENDBRANCH  25  27
ENDBRANCH  19  25
ENDBRANCH  18  22
ENDBRANCH   1  18
TORSDOF 5
ENDMDL
MODEL 7
REMARK VINA RESULT:      -7.3      6.667      9.629
REMARK  Name = 
REMARK  6 active torsions:
REMARK  status: ('A' for Active; 'I' for Inactive)
REMARK    1  A    between atoms: C_1  and  O_2
REMARK    2  A    between atoms: O_2  and  C_3
REMARK    3  A    between atoms: C_3  and  C_4
REMARK    4  A    between atoms: C_7  and  C_8
REMARK    5  A    between atoms: C_8  and  N_9
REMARK    6  A    between atoms: N_12  and  C_13
REMARK                            x       y       z     vdW  Elec       q    Type
REMARK                         _______ _______ _______ _____ _____    ______ ____
ROOT
ATOM      1  N   UNL     1       0.383  10.113  17.661  0.00  0.00    +0.000 N 
ATOM      2  C   UNL     1       1.189   9.309  18.427  0.00  0.00    +0.000 C 
ATOM      3  O   UNL     1       1.129   9.263  19.646  0.00  0.00    +0.000 OA
ATOM      4  N   UNL     1       2.047   8.562  17.663  0.00  0.00    +0.000 N 
ATOM      5  H   UNL     1       0.769  10.440  16.785  0.00  0.00    +0.000 HD
ATOM      6  H   UNL     1       1.804   8.475  16.686  0.00  0.00    +0.000 HD
ENDROOT
BRANCH   4   7
ATOM      7  C   UNL     1       3.010   7.586  18.207  0.00  0.00    +0.000 C 
ATOM      8  C   UNL     1       2.271   6.411  18.866  0.00  0.00    +0.000 C 
ATOM      9  C   UNL     1       3.144   5.508  19.737  0.00  0.00    +0.000 C 
ATOM     10  C   UNL     1       4.210   4.731  18.969  0.00  0.00    +0.000 C 
ATOM     11  C   UNL     1       5.426   5.554  18.617  0.00  0.00    +0.000 A 
ATOM     12  C   UNL     1       6.676   5.166  19.136  0.00  0.00    +0.000 A 
ATOM     13  C   UNL     1       7.840   5.858  18.802  0.00  0.00    +0.000 A 
ATOM     14  C   UNL     1       7.770   6.945  17.938  0.00  0.00    +0.000 A 
ATOM     15  C   UNL     1       6.537   7.344  17.420  0.00  0.00    +0.000 A 
ATOM     16  C   UNL     1       5.352   6.663  17.755  0.00  0.00    +0.000 A 
ATOM     17  C   UNL     1       4.040   7.129  17.153  0.00  0.00    +0.000 C 
ENDBRANCH   4   7
BRANCH   1  18
ATOM     18  C   UNL     1      -0.520  11.031  18.323  0.00  0.00    +0.000 C 
BRANCH  18  22
ATOM     19  C   UNL     1      -3.979  11.410  17.286  0.00  0.00    +0.000 A 
ATOM     20  N   UNL     1      -3.663  10.306  16.639  0.00  0.00    +0.000 NA
ATOM     21  N   UNL     1      -2.354   9.995  16.932  0.00  0.00    +0.000 NA
ATOM     22  C   UNL     1      -1.891  10.909  17.761  0.00  0.00    +0.000 A 
ATOM     23  N   UNL     1      -2.891  11.816  18.012  0.00  0.00    +0.000 N 
ATOM     24  H   UNL     1      -2.841  12.641  18.592  0.00  0.00    +0.000 HD
BRANCH  19  25
ATOM     25  C   UNL     1      -5.282  12.123  17.295  0.00  0.00    +0.000 C 
BRANCH  25  27
ATOM     26  C   UNL     1      -6.807  10.809  18.518  0.00  0.00    +0.000 C 
ATOM     27  O   UNL     1      -5.888  11.895  18.570  0.00  0.00    +0.000 OA
ENDBRANCH  25  27
ENDBRANCH  19  25
ENDBRANCH  18  22
ENDBRANCH   1  18
TORSDOF 5
ENDMDL
MODEL 8
REMARK VINA RESULT:      -7.2      1.600      1.821
REMARK  Name = 
REMARK  6 active torsions:
REMARK  status: ('A' for Active; 'I' for Inactive)
REMARK    1  A    between atoms: C_1  and  O_2
REMARK    2  A    between atoms: O_2  and  C_3
REMARK    3  A    between atoms: C_3  and  C_4
REMARK    4  A    between atoms: C_7  and  C_8
REMARK    5  A    between atoms: C_8  and  N_9
REMARK    6  A    between atoms: N_12  and  C_13
REMARK                            x       y       z     vdW  Elec       q    Type
REMARK                         _______ _______ _______ _____ _____    ______ ____
ROOT
ATOM      1  N   UNL     1       7.303   7.904  17.101  0.00  0.00    +0.000 N 
ATOM      2  C   UNL     1       8.142   8.580  17.952  0.00  0.00    +0.000 C 
ATOM      3  O   UNL     1       8.764   8.039  18.853  0.00  0.00    +0.000 OA
ATOM      4  N   UNL     1       8.207   9.917  17.657  0.00  0.00    +0.000 N 
ATOM      5  H   UNL     1       6.522   8.425  16.726  0.00  0.00    +0.000 HD
ATOM      6  H   UNL     1       7.886  10.180  16.737  0.00  0.00    +0.000 HD
ENDROOT
BRANCH   4   7
ATOM      7  C   UNL     1       9.048  10.888  18.381  0.00  0.00    +0.000 C 
ATOM      8  C   UNL     1       9.212  10.468  19.850  0.00  0.00    +0.000 C 
ATOM      9  C   UNL     1       9.786  11.547  20.768  0.00  0.00    +0.000 C 
ATOM     10  C   UNL     1      11.230  11.934  20.459  0.00  0.00    +0.000 C 
ATOM     11  C   UNL     1      11.369  12.872  19.284  0.00  0.00    +0.000 A 
ATOM     12  C   UNL     1      11.929  14.145  19.499  0.00  0.00    +0.000 A 
ATOM     13  C   UNL     1      12.130  15.032  18.442  0.00  0.00    +0.000 A 
ATOM     14  C   UNL     1      11.778  14.654  17.151  0.00  0.00    +0.000 A 
ATOM     15  C   UNL     1      11.216  13.397  16.923  0.00  0.00    +0.000 A 
ATOM     16  C   UNL     1      10.998  12.494  17.980  0.00  0.00    +0.000 A 
ATOM     17  C   UNL     1      10.399  11.134  17.676  0.00  0.00    +0.000 C 
ENDBRANCH   4   7
BRANCH   1  18
ATOM     18  C   UNL     1       7.057   6.497  17.335  0.00  0.00    +0.000 C 
BRANCH  18  22
ATOM     19  C   UNL     1       3.914   5.590  18.910  0.00  0.00    +0.000 A 
ATOM     20  N   UNL     1       3.470   6.343  17.924  0.00  0.00    +0.000 NA
ATOM     21  N   UNL     1       4.552   6.777  17.193  0.00  0.00    +0.000 NA
ATOM     22  C   UNL     1       5.642   6.276  17.738  0.00  0.00    +0.000 A 
ATOM     23  N   UNL     1       5.279   5.516  18.822  0.00  0.00    +0.000 N 
ATOM     24  H   UNL     1       5.887   5.017  19.455  0.00  0.00    +0.000 HD
BRANCH  19  25
ATOM     25  C   UNL     1       3.122   4.888  19.953  0.00  0.00    +0.000 C 
BRANCH  25  27
ATOM     26  C   UNL     1       1.004   3.928  20.333  0.00  0.00    +0.000 C 
ATOM     27  O   UNL     1       1.821   4.644  19.412  0.00  0.00    +0.000 OA
ENDBRANCH  25  27
ENDBRANCH  19  25
ENDBRANCH  18  22
ENDBRANCH   1  18
TORSDOF 5
ENDMDL
MODEL 9
REMARK VINA RESULT:      -7.2      0.919      1.233
REMARK  Name = 
REMARK  6 active torsions:
REMARK  status: ('A' for Active; 'I' for Inactive)
REMARK    1  A    between atoms: C_1  and  O_2
REMARK    2  A    between atoms: O_2  and  C_3
REMARK    3  A    between atoms: C_3  and  C_4
REMARK    4  A    between atoms: C_7  and  C_8
REMARK    5  A    between atoms: C_8  and  N_9
REMARK    6  A    between atoms: N_12  and  C_13
REMARK                            x       y       z     vdW  Elec       q    Type
REMARK                         _______ _______ _______ _____ _____    ______ ____
ROOT
ATOM      1  N   UNL     1       8.142   7.412  18.374  0.00  0.00    +0.000 N 
ATOM      2  C   UNL     1       8.309   8.771  18.277  0.00  0.00    +0.000 C 
ATOM      3  O   UNL     1       7.845   9.443  17.369  0.00  0.00    +0.000 OA
ATOM      4  N   UNL     1       9.038   9.276  19.322  0.00  0.00    +0.000 N 
ATOM      5  H   UNL     1       8.881   6.896  18.831  0.00  0.00    +0.000 HD
ATOM      6  H   UNL     1       9.112   8.681  20.135  0.00  0.00    +0.000 HD
ENDROOT
BRANCH   4   7
ATOM      7  C   UNL     1       9.354  10.705  19.503  0.00  0.00    +0.000 C 
ATOM      8  C   UNL     1       9.190  11.109  20.976  0.00  0.00    +0.000 C 
ATOM      9  C   UNL     1       9.175  12.617  21.233  0.00  0.00    +0.000 C 
ATOM     10  C   UNL     1      10.495  13.321  20.927  0.00  0.00    +0.000 C 
ATOM     11  C   UNL     1      10.719  13.582  19.457  0.00  0.00    +0.000 A 
ATOM     12  C   UNL     1      10.842  14.914  19.019  0.00  0.00    +0.000 A 
ATOM     13  C   UNL     1      11.101  15.211  17.682  0.00  0.00    +0.000 A 
ATOM     14  C   UNL     1      11.246  14.177  16.763  0.00  0.00    +0.000 A 
ATOM     15  C   UNL     1      11.120  12.852  17.181  0.00  0.00    +0.000 A 
ATOM     16  C   UNL     1      10.849  12.535  18.525  0.00  0.00    +0.000 A 
ATOM     17  C   UNL     1      10.737  11.078  18.931  0.00  0.00    +0.000 C 
ENDBRANCH   4   7
BRANCH   1  18
ATOM     18  C   UNL     1       7.468   6.714  17.299  0.00  0.00    +0.000 C 
BRANCH  18  22
ATOM     19  C   UNL     1       4.435   5.343  18.750  0.00  0.00    +0.000 A 
ATOM     20  N   UNL     1       3.922   6.301  18.004  0.00  0.00    +0.000 NA
ATOM     21  N   UNL     1       4.953   6.938  17.352  0.00  0.00    +0.000 NA
ATOM     22  C   UNL     1       6.082   6.354  17.702  0.00  0.00    +0.000 A 
ATOM     23  N   UNL     1       5.794   5.338  18.580  0.00  0.00    +0.000 N 
ATOM     24  H   UNL     1       6.446   4.720  19.040  0.00  0.00    +0.000 HD
BRANCH  19  25
ATOM     25  C   UNL     1       3.716   4.379  19.622  0.00  0.00    +0.000 C 
BRANCH  25  27
ATOM     26  C   UNL     1       3.365   2.633  18.080  0.00  0.00    +0.000 C 
ATOM     27  O   UNL     1       2.758   3.696  18.809  0.00  0.00    +0.000 OA
ENDBRANCH  25  27
ENDBRANCH  19  25
ENDBRANCH  18  22
ENDBRANCH   1  18
TORSDOF 5
ENDMDL
