MODEL 1
REMARK VINA RESULT:      -7.3      0.000      0.000
REMARK  Name = 
REMARK  8 active torsions:
REMARK  status: ('A' for Active; 'I' for Inactive)
REMARK    1  A    between atoms: C_4  and  C_5
REMARK    2  A    between atoms: C_5  and  O_6
REMARK    3  A    between atoms: C_5  and  C_7
REMARK    4  A    between atoms: C_7  and  O_8
REMARK    5  A    between atoms: O_8  and  C_9
REMARK    6  A    between atoms: C_16  and  C_17
REMARK    7  A    between atoms: C_20  and  O_21
REMARK    8  A    between atoms: N_24  and  C_25
REMARK                            x       y       z     vdW  Elec       q    Type
REMARK                         _______ _______ _______ _____ _____    ______ ____
ROOT
ATOM      1  O   UNL     1      -0.204  13.755  22.719  0.00  0.00    +0.000 OA
ATOM      2  C   UNL     1       0.040  12.814  21.980  0.00  0.00    +0.000 C 
ATOM      3  O   UNL     1      -0.078  11.517  22.415  0.00  0.00    +0.000 OA
ATOM      4  C   UNL     1       0.577  10.661  21.458  0.00  0.00    +0.000 C 
ATOM      5  C   UNL     1       0.500  11.471  20.155  0.00  0.00    +0.000 C 
ATOM      6  N   UNL     1       0.428  12.831  20.645  0.00  0.00    +0.000 N 
ENDROOT
BRANCH   6   7
ATOM      7  C   UNL     1       0.680  13.983  19.842  0.00  0.00    +0.000 A 
ATOM      8  C   UNL     1       1.961  14.276  19.343  0.00  0.00    +0.000 A 
ATOM      9  C   UNL     1       2.193  15.407  18.547  0.00  0.00    +0.000 A 
ATOM     10  C   UNL     1       1.146  16.262  18.245  0.00  0.00    +0.000 A 
ATOM     11  F   UNL     1       1.365  17.340  17.482  0.00  0.00    +0.000 F 
ATOM     12  C   UNL     1      -0.126  16.009  18.724  0.00  0.00    +0.000 A 
ATOM     13  C   UNL     1      -0.356  14.875  19.512  0.00  0.00    +0.000 A 
ENDBRANCH   6   7
BRANCH   5  14
ATOM     14  C   UNL     1      -0.664  11.113  19.234  0.00  0.00    +0.000 A 
ATOM     15  C   UNL     1      -0.523  10.239  18.143  0.00  0.00    +0.000 A 
ATOM     16  C   UNL     1      -1.577  10.045  17.245  0.00  0.00    +0.000 A 
ATOM     17  C   UNL     1      -2.782  10.709  17.445  0.00  0.00    +0.000 A 
ATOM     18  C   UNL     1      -2.965  11.532  18.545  0.00  0.00    +0.000 A 
ATOM     19  C   UNL     1      -1.915  11.726  19.441  0.00  0.00    +0.000 A 
BRANCH  17  20
ATOM     20  O   UNL     1      -3.818  10.589  16.568  0.00  0.00    +0.000 OA
ATOM     21  H   UNL     1      -3.460  10.523  15.668  0.00  0.00    +0.000 HD
ENDBRANCH  17  20
ENDBRANCH   5  14
BRANCH   4  22
ATOM     22  C   UNL     1      -0.046   9.251  21.487  0.00  0.00    +0.000 C 
BRANCH  22  23
ATOM     23  O   UNL     1      -0.787   9.068  22.707  0.00  0.00    +0.000 OA
ATOM     24  H   UNL     1      -0.213   9.350  23.444  0.00  0.00    +0.000 HD
ENDBRANCH  22  23
BRANCH  22  25
ATOM     25  C   UNL     1       0.977   8.113  21.377  0.00  0.00    +0.000 C 
BRANCH  25  26
ATOM     26  O   UNL     1       1.697   8.226  20.143  0.00  0.00    +0.000 OA
BRANCH  26  27
ATOM     27  C   UNL     1       2.191   7.052  19.634  0.00  0.00    +0.000 A 
ATOM     28  C   UNL     1       2.142   5.805  20.266  0.00  0.00    +0.000 A 
ATOM     29  C   UNL     1       2.661   4.670  19.635  0.00  0.00    +0.000 A 
ATOM     30  C   UNL     1       3.237   4.780  18.373  0.00  0.00    +0.000 A 
ATOM     31 CL   UNL     1       3.870   3.381  17.602  0.00  0.00    +0.000 Cl
ATOM     32  C   UNL     1       3.302   6.018  17.738  0.00  0.00    +0.000 A 
ATOM     33  C   UNL     1       2.779   7.150  18.369  0.00  0.00    +0.000 A 
ENDBRANCH  26  27
ENDBRANCH  25  26
ENDBRANCH  22  25
ENDBRANCH   4  22
TORSDOF 8
ENDMDL
MODEL 2
REMARK VINA RESULT:      -7.2      0.260      1.516
REMARK  Name = 
REMARK  8 active torsions:
REMARK  status: ('A' for Active; 'I' for Inactive)
REMARK    1  A    between atoms: C_4  and  C_5
REMARK    2  A    between atoms: C_5  and  O_6
REMARK    3  A    between atoms: C_5  and  C_7
REMARK    4  A    between atoms: C_7  and  O_8
REMARK    5  A    between atoms: O_8  and  C_9
REMARK    6  A    between atoms: C_16  and  C_17
REMARK    7  A    between atoms: C_20  and  O_21
REMARK    8  A    between atoms: N_24  and  C_25
REMARK                            x       y       z     vdW  Elec       q    Type
REMARK                         _______ _______ _______ _____ _____    ______ ____
ROOT
ATOM      1  O   UNL     1      -0.166  13.696  22.747  0.00  0.00    +0.000 OA
ATOM      2  C   UNL     1       0.084  12.793  21.964  0.00  0.00    +0.000 C 
ATOM      3  O   UNL     1      -0.018  11.477  22.338  0.00  0.00    +0.000 OA
ATOM      4  C   UNL     1       0.641  10.673  21.339  0.00  0.00    +0.000 C 
ATOM      5  C   UNL     1       0.550  11.542  20.076  0.00  0.00    +0.000 C 
ATOM      6  N   UNL     1       0.466  12.877  20.630  0.00  0.00    +0.000 N 
ENDROOT
BRANCH   6   7
ATOM      7  C   UNL     1       0.703  14.068  19.881  0.00  0.00    +0.000 A 
ATOM      8  C   UNL     1      -0.300  15.032  19.678  0.00  0.00    +0.000 A 
ATOM      9  C   UNL     1      -0.050  16.202  18.948  0.00  0.00    +0.000 A 
ATOM     10  C   UNL     1       1.206  16.422  18.409  0.00  0.00    +0.000 A 
ATOM     11  F   UNL     1       1.448  17.542  17.715  0.00  0.00    +0.000 F 
ATOM     12  C   UNL     1       2.216  15.493  18.584  0.00  0.00    +0.000 A 
ATOM     13  C   UNL     1       1.966  14.329  19.319  0.00  0.00    +0.000 A 
ENDBRANCH   6   7
BRANCH   5  14
ATOM     14  C   UNL     1      -0.615  11.216  19.144  0.00  0.00    +0.000 A 
ATOM     15  C   UNL     1      -1.904  11.743  19.332  0.00  0.00    +0.000 A 
ATOM     16  C   UNL     1      -2.972  11.312  18.538  0.00  0.00    +0.000 A 
ATOM     17  C   UNL     1      -2.752  10.367  17.543  0.00  0.00    +0.000 A 
ATOM     18  C   UNL     1      -1.479   9.873  17.301  0.00  0.00    +0.000 A 
ATOM     19  C   UNL     1      -0.413  10.302  18.091  0.00  0.00    +0.000 A 
BRANCH  17  20
ATOM     20  O   UNL     1      -3.771   9.881  16.781  0.00  0.00    +0.000 OA
ATOM     21  H   UNL     1      -4.472   9.552  17.368  0.00  0.00    +0.000 HD
ENDBRANCH  17  20
ENDBRANCH   5  14
BRANCH   4  22
ATOM     22  C   UNL     1       0.033   9.256  21.305  0.00  0.00    +0.000 C 
BRANCH  22  23
ATOM     23  O   UNL     1      -0.748   9.029  22.493  0.00  0.00    +0.000 OA
ATOM     24  H   UNL     1      -1.652   9.350  22.314  0.00  0.00    +0.000 HD
ENDBRANCH  22  23
BRANCH  22  25
ATOM     25  C   UNL     1       1.071   8.133  21.195  0.00  0.00    +0.000 C 
BRANCH  25  26
ATOM     26  O   UNL     1       1.796   8.260  19.965  0.00  0.00    +0.000 OA
BRANCH  26  27
ATOM     27  C   UNL     1       2.286   7.091  19.440  0.00  0.00    +0.000 A 
ATOM     28  C   UNL     1       2.934   6.961  18.208  0.00  0.00    +0.000 A 
ATOM     29  C   UNL     1       3.413   5.716  17.788  0.00  0.00    +0.000 A 
ATOM     30  C   UNL     1       3.238   4.597  18.597  0.00  0.00    +0.000 A 
ATOM     31 CL   UNL     1       3.833   3.070  18.076  0.00  0.00    +0.000 Cl
ATOM     32  C   UNL     1       2.585   4.712  19.821  0.00  0.00    +0.000 A 
ATOM     33  C   UNL     1       2.111   5.958  20.240  0.00  0.00    +0.000 A 
ENDBRANCH  26  27
ENDBRANCH  25  26
ENDBRANCH  22  25
ENDBRANCH   4  22
TORSDOF 8
ENDMDL
MODEL 3
REMARK VINA RESULT:      -7.2      0.910      1.289
REMARK  Name = 
REMARK  8 active torsions:
REMARK  status: ('A' for Active; 'I' for Inactive)
REMARK    1  A    between atoms: C_4  and  C_5
REMARK    2  A    between atoms: C_5  and  O_6
REMARK    3  A    between atoms: C_5  and  C_7
REMARK    4  A    between atoms: C_7  and  O_8
REMARK    5  A    between atoms: O_8  and  C_9
REMARK    6  A    between atoms: C_16  and  C_17
REMARK    7  A    between atoms: C_20  and  O_21
REMARK    8  A    between atoms: N_24  and  C_25
REMARK                            x       y       z     vdW  Elec       q    Type
REMARK                         _______ _______ _______ _____ _____    ______ ____
ROOT
ATOM      1  O   UNL     1      -0.102  13.326  22.771  0.00  0.00    +0.000 OA
ATOM      2  C   UNL     1       0.148  12.526  21.882  0.00  0.00    +0.000 C 
ATOM      3  O   UNL     1       0.240  11.181  22.138  0.00  0.00    +0.000 OA
ATOM      4  C   UNL     1       0.857  10.549  20.999  0.00  0.00    +0.000 C 
ATOM      5  C   UNL     1       0.514  11.500  19.843  0.00  0.00    +0.000 C 
ATOM      6  N   UNL     1       0.351  12.765  20.528  0.00  0.00    +0.000 N 
ENDROOT
BRANCH   6   7
ATOM      7  C   UNL     1       0.360  14.034  19.874  0.00  0.00    +0.000 A 
ATOM      8  C   UNL     1       1.493  14.513  19.196  0.00  0.00    +0.000 A 
ATOM      9  C   UNL     1       1.485  15.758  18.550  0.00  0.00    +0.000 A 
ATOM     10  C   UNL     1       0.343  16.540  18.578  0.00  0.00    +0.000 A 
ATOM     11  F   UNL     1       0.332  17.727  17.958  0.00  0.00    +0.000 F 
ATOM     12  C   UNL     1      -0.790  16.103  19.241  0.00  0.00    +0.000 A 
ATOM     13  C   UNL     1      -0.781  14.857  19.878  0.00  0.00    +0.000 A 
ENDBRANCH   6   7
BRANCH   5  14
ATOM     14  C   UNL     1      -0.713  11.111  19.022  0.00  0.00    +0.000 A 
ATOM     15  C   UNL     1      -0.642  10.232  17.927  0.00  0.00    +0.000 A 
ATOM     16  C   UNL     1      -1.761  10.009  17.119  0.00  0.00    +0.000 A 
ATOM     17  C   UNL     1      -2.960  10.650  17.412  0.00  0.00    +0.000 A 
ATOM     18  C   UNL     1      -3.070  11.479  18.518  0.00  0.00    +0.000 A 
ATOM     19  C   UNL     1      -1.956  11.701  19.325  0.00  0.00    +0.000 A 
BRANCH  17  20
ATOM     20  O   UNL     1      -4.060  10.503  16.623  0.00  0.00    +0.000 OA
ATOM     21  H   UNL     1      -4.096  11.242  15.994  0.00  0.00    +0.000 HD
ENDBRANCH  17  20
ENDBRANCH   5  14
BRANCH   4  22
ATOM     22  C   UNL     1       0.410   9.076  20.898  0.00  0.00    +0.000 C 
BRANCH  22  23
ATOM     23  O   UNL     1      -0.710   8.842  21.771  0.00  0.00    +0.000 OA
ATOM     24  H   UNL     1      -0.602   9.424  22.548  0.00  0.00    +0.000 HD
ENDBRANCH  22  23
BRANCH  22  25
ATOM     25  C   UNL     1       1.507   8.064  21.251  0.00  0.00    +0.000 C 
BRANCH  25  26
ATOM     26  O   UNL     1       2.225   7.693  20.067  0.00  0.00    +0.000 OA
BRANCH  26  27
ATOM     27  C   UNL     1       2.022   6.410  19.626  0.00  0.00    +0.000 A 
ATOM     28  C   UNL     1       2.191   5.965  18.311  0.00  0.00    +0.000 A 
ATOM     29  C   UNL     1       1.976   4.622  17.986  0.00  0.00    +0.000 A 
ATOM     30  C   UNL     1       1.584   3.723  18.973  0.00  0.00    +0.000 A 
ATOM     31 CL   UNL     1       1.325   2.073  18.567  0.00  0.00    +0.000 Cl
ATOM     32  C   UNL     1       1.401   4.157  20.283  0.00  0.00    +0.000 A 
ATOM     33  C   UNL     1       1.621   5.499  20.607  0.00  0.00    +0.000 A 
ENDBRANCH  26  27
ENDBRANCH  25  26
ENDBRANCH  22  25
ENDBRANCH   4  22
TORSDOF 8
ENDMDL
MODEL 4
REMARK VINA RESULT:      -7.2      0.891      1.577
REMARK  Name = 
REMARK  8 active torsions:
REMARK  status: ('A' for Active; 'I' for Inactive)
REMARK    1  A    between atoms: C_4  and  C_5
REMARK    2  A    between atoms: C_5  and  O_6
REMARK    3  A    between atoms: C_5  and  C_7
REMARK    4  A    between atoms: C_7  and  O_8
REMARK    5  A    between atoms: O_8  and  C_9
REMARK    6  A    between atoms: C_16  and  C_17
REMARK    7  A    between atoms: C_20  and  O_21
REMARK    8  A    between atoms: N_24  and  C_25
REMARK                            x       y       z     vdW  Elec       q    Type
REMARK                         _______ _______ _______ _____ _____    ______ ____
ROOT
ATOM      1  O   UNL     1       0.438  14.221  22.549  0.00  0.00    +0.000 OA
ATOM      2  C   UNL     1       0.414  13.154  21.956  0.00  0.00    +0.000 C 
ATOM      3  O   UNL     1      -0.092  12.022  22.544  0.00  0.00    +0.000 OA
ATOM      4  C   UNL     1       0.309  10.887  21.752  0.00  0.00    +0.000 C 
ATOM      5  C   UNL     1       0.511  11.490  20.355  0.00  0.00    +0.000 C 
ATOM      6  N   UNL     1       0.829  12.869  20.660  0.00  0.00    +0.000 N 
ENDROOT
BRANCH   6   7
ATOM      7  C   UNL     1       1.433  13.773  19.736  0.00  0.00    +0.000 A 
ATOM      8  C   UNL     1       0.857  15.018  19.429  0.00  0.00    +0.000 A 
ATOM      9  C   UNL     1       1.467  15.900  18.526  0.00  0.00    +0.000 A 
ATOM     10  C   UNL     1       2.658  15.547  17.916  0.00  0.00    +0.000 A 
ATOM     11  F   UNL     1       3.244  16.390  17.057  0.00  0.00    +0.000 F 
ATOM     12  C   UNL     1       3.251  14.327  18.190  0.00  0.00    +0.000 A 
ATOM     13  C   UNL     1       2.644  13.451  19.097  0.00  0.00    +0.000 A 
ENDBRANCH   6   7
BRANCH   5  14
ATOM     14  C   UNL     1      -0.679  11.354  19.408  0.00  0.00    +0.000 A 
ATOM     15  C   UNL     1      -1.884  12.051  19.604  0.00  0.00    +0.000 A 
ATOM     16  C   UNL     1      -2.995  11.795  18.794  0.00  0.00    +0.000 A 
ATOM     17  C   UNL     1      -2.900  10.855  17.774  0.00  0.00    +0.000 A 
ATOM     18  C   UNL     1      -1.707  10.195  17.525  0.00  0.00    +0.000 A 
ATOM     19  C   UNL     1      -0.598  10.450  18.331  0.00  0.00    +0.000 A 
BRANCH  17  20
ATOM     20  O   UNL     1      -3.971  10.537  16.994  0.00  0.00    +0.000 OA
ATOM     21  H   UNL     1      -4.166  11.288  16.410  0.00  0.00    +0.000 HD
ENDBRANCH  17  20
ENDBRANCH   5  14
BRANCH   4  22
ATOM     22  C   UNL     1      -0.702   9.734  21.919  0.00  0.00    +0.000 C 
BRANCH  22  23
ATOM     23  O   UNL     1      -0.891   9.446  23.316  0.00  0.00    +0.000 OA
ATOM     24  H   UNL     1      -1.739   9.847  23.585  0.00  0.00    +0.000 HD
ENDBRANCH  22  23
BRANCH  22  25
ATOM     25  C   UNL     1      -0.291   8.435  21.216  0.00  0.00    +0.000 C 
BRANCH  25  26
ATOM     26  O   UNL     1       1.105   8.189  21.429  0.00  0.00    +0.000 OA
BRANCH  26  27
ATOM     27  C   UNL     1       1.710   7.363  20.517  0.00  0.00    +0.000 A 
ATOM     28  C   UNL     1       1.946   5.995  20.688  0.00  0.00    +0.000 A 
ATOM     29  C   UNL     1       2.551   5.248  19.672  0.00  0.00    +0.000 A 
ATOM     30  C   UNL     1       2.929   5.869  18.485  0.00  0.00    +0.000 A 
ATOM     31 CL   UNL     1       3.669   4.945  17.239  0.00  0.00    +0.000 Cl
ATOM     32  C   UNL     1       2.709   7.233  18.307  0.00  0.00    +0.000 A 
ATOM     33  C   UNL     1       2.099   7.976  19.322  0.00  0.00    +0.000 A 
ENDBRANCH  26  27
ENDBRANCH  25  26
ENDBRANCH  22  25
ENDBRANCH   4  22
TORSDOF 8
ENDMDL
MODEL 5
REMARK VINA RESULT:      -7.1      0.701      1.140
REMARK  Name = 
REMARK  8 active torsions:
REMARK  status: ('A' for Active; 'I' for Inactive)
REMARK    1  A    between atoms: C_4  and  C_5
REMARK    2  A    between atoms: C_5  and  O_6
REMARK    3  A    between atoms: C_5  and  C_7
REMARK    4  A    between atoms: C_7  and  O_8
REMARK    5  A    between atoms: O_8  and  C_9
REMARK    6  A    between atoms: C_16  and  C_17
REMARK    7  A    between atoms: C_20  and  O_21
REMARK    8  A    between atoms: N_24  and  C_25
REMARK                            x       y       z     vdW  Elec       q    Type
REMARK                         _______ _______ _______ _____ _____    ______ ____
ROOT
ATOM      1  O   UNL     1      -0.060  13.629  22.676  0.00  0.00    +0.000 OA
ATOM      2  C   UNL     1       0.193  12.783  21.832  0.00  0.00    +0.000 C 
ATOM      3  O   UNL     1       0.195  11.446  22.142  0.00  0.00    +0.000 OA
ATOM      4  C   UNL     1       0.837  10.737  21.064  0.00  0.00    +0.000 C 
ATOM      5  C   UNL     1       0.612  11.659  19.856  0.00  0.00    +0.000 C 
ATOM      6  N   UNL     1       0.483  12.957  20.484  0.00  0.00    +0.000 N 
ENDROOT
BRANCH   6   7
ATOM      7  C   UNL     1       0.599  14.196  19.786  0.00  0.00    +0.000 A 
ATOM      8  C   UNL     1       1.816  14.628  19.233  0.00  0.00    +0.000 A 
ATOM      9  C   UNL     1       1.913  15.844  18.542  0.00  0.00    +0.000 A 
ATOM     10  C   UNL     1       0.794  16.646  18.399  0.00  0.00    +0.000 A 
ATOM     11  F   UNL     1       0.884  17.805  17.736  0.00  0.00    +0.000 F 
ATOM     12  C   UNL     1      -0.420  16.256  18.935  0.00  0.00    +0.000 A 
ATOM     13  C   UNL     1      -0.516  15.038  19.618  0.00  0.00    +0.000 A 
ENDBRANCH   6   7
BRANCH   5  14
ATOM     14  C   UNL     1      -0.587  11.305  18.981  0.00  0.00    +0.000 A 
ATOM     15  C   UNL     1      -1.853  11.889  19.160  0.00  0.00    +0.000 A 
ATOM     16  C   UNL     1      -2.956  11.438  18.428  0.00  0.00    +0.000 A 
ATOM     17  C   UNL     1      -2.794  10.414  17.502  0.00  0.00    +0.000 A 
ATOM     18  C   UNL     1      -1.545   9.860  17.266  0.00  0.00    +0.000 A 
ATOM     19  C   UNL     1      -0.445  10.309  17.994  0.00  0.00    +0.000 A 
BRANCH  17  20
ATOM     20  O   UNL     1      -3.850   9.908  16.804  0.00  0.00    +0.000 OA
ATOM     21  H   UNL     1      -3.547   9.141  16.292  0.00  0.00    +0.000 HD
ENDBRANCH  17  20
ENDBRANCH   5  14
BRANCH   4  22
ATOM     22  C   UNL     1       0.315   9.287  20.991  0.00  0.00    +0.000 C 
BRANCH  22  23
ATOM     23  O   UNL     1      -0.768   9.109  21.922  0.00  0.00    +0.000 OA
ATOM     24  H   UNL     1      -1.600   9.270  21.438  0.00  0.00    +0.000 HD
ENDBRANCH  22  23
BRANCH  22  25
ATOM     25  C   UNL     1       1.379   8.224  21.290  0.00  0.00    +0.000 C 
BRANCH  25  26
ATOM     26  O   UNL     1       2.074   7.881  20.084  0.00  0.00    +0.000 OA
BRANCH  26  27
ATOM     27  C   UNL     1       2.059   6.551  19.747  0.00  0.00    +0.000 A 
ATOM     28  C   UNL     1       1.817   5.491  20.626  0.00  0.00    +0.000 A 
ATOM     29  C   UNL     1       1.803   4.173  20.158  0.00  0.00    +0.000 A 
ATOM     30  C   UNL     1       2.038   3.912  18.812  0.00  0.00    +0.000 A 
ATOM     31 CL   UNL     1       2.015   2.290  18.243  0.00  0.00    +0.000 Cl
ATOM     32  C   UNL     1       2.290   4.958  17.929  0.00  0.00    +0.000 A 
ATOM     33  C   UNL     1       2.299   6.275  18.397  0.00  0.00    +0.000 A 
ENDBRANCH  26  27
ENDBRANCH  25  26
ENDBRANCH  22  25
ENDBRANCH   4  22
TORSDOF 8
ENDMDL
MODEL 6
REMARK VINA RESULT:      -7.1      5.513     10.010
REMARK  Name = 
REMARK  8 active torsions:
REMARK  status: ('A' for Active; 'I' for Inactive)
REMARK    1  A    between atoms: C_4  and  C_5
REMARK    2  A    between atoms: C_5  and  O_6
REMARK    3  A    between atoms: C_5  and  C_7
REMARK    4  A    between atoms: C_7  and  O_8
REMARK    5  A    between atoms: O_8  and  C_9
REMARK    6  A    between atoms: C_16  and  C_17
REMARK    7  A    between atoms: C_20  and  O_21
REMARK    8  A    between atoms: N_24  and  C_25
REMARK                            x       y       z     vdW  Elec       q    Type
REMARK                         _______ _______ _______ _____ _____    ______ ____
ROOT
ATOM      1  O   UNL     1       4.417   2.363  16.885  0.00  0.00    +0.000 OA
ATOM      2  C   UNL     1       4.368   3.577  17.013  0.00  0.00    +0.000 C 
ATOM      3  O   UNL     1       3.766   4.155  18.103  0.00  0.00    +0.000 OA
ATOM      4  C   UNL     1       3.574   5.555  17.820  0.00  0.00    +0.000 C 
ATOM      5  C   UNL     1       4.675   5.858  16.792  0.00  0.00    +0.000 C 
ATOM      6  N   UNL     1       4.886   4.563  16.181  0.00  0.00    +0.000 N 
ENDROOT
BRANCH   6   7
ATOM      7  C   UNL     1       5.560   4.367  14.939  0.00  0.00    +0.000 A 
ATOM      8  C   UNL     1       6.865   4.840  14.718  0.00  0.00    +0.000 A 
ATOM      9  C   UNL     1       7.520   4.631  13.496  0.00  0.00    +0.000 A 
ATOM     10  C   UNL     1       6.875   3.950  12.477  0.00  0.00    +0.000 A 
ATOM     11  F   UNL     1       7.500   3.747  11.311  0.00  0.00    +0.000 F 
ATOM     12  C   UNL     1       5.588   3.475  12.657  0.00  0.00    +0.000 A 
ATOM     13  C   UNL     1       4.940   3.678  13.881  0.00  0.00    +0.000 A 
ENDBRANCH   6   7
BRANCH   5  14
ATOM     14  C   UNL     1       5.957   6.454  17.369  0.00  0.00    +0.000 A 
ATOM     15  C   UNL     1       6.750   5.775  18.309  0.00  0.00    +0.000 A 
ATOM     16  C   UNL     1       7.840   6.410  18.913  0.00  0.00    +0.000 A 
ATOM     17  C   UNL     1       8.152   7.720  18.566  0.00  0.00    +0.000 A 
ATOM     18  C   UNL     1       7.418   8.392  17.600  0.00  0.00    +0.000 A 
ATOM     19  C   UNL     1       6.333   7.760  16.997  0.00  0.00    +0.000 A 
BRANCH  17  20
ATOM     20  O   UNL     1       9.172   8.394  19.166  0.00  0.00    +0.000 OA
ATOM     21  H   UNL     1       9.209   9.294  18.801  0.00  0.00    +0.000 HD
ENDBRANCH  17  20
ENDBRANCH   5  14
BRANCH   4  22
ATOM     22  C   UNL     1       3.546   6.367  19.131  0.00  0.00    +0.000 C 
BRANCH  22  23
ATOM     23  O   UNL     1       3.325   5.487  20.248  0.00  0.00    +0.000 OA
ATOM     24  H   UNL     1       4.182   5.079  20.473  0.00  0.00    +0.000 HD
ENDBRANCH  22  23
BRANCH  22  25
ATOM     25  C   UNL     1       2.471   7.460  19.166  0.00  0.00    +0.000 C 
BRANCH  25  26
ATOM     26  O   UNL     1       1.807   7.446  20.437  0.00  0.00    +0.000 OA
BRANCH  26  27
ATOM     27  C   UNL     1       1.104   8.581  20.752  0.00  0.00    +0.000 A 
ATOM     28  C   UNL     1       0.742   9.591  19.855  0.00  0.00    +0.000 A 
ATOM     29  C   UNL     1       0.001  10.693  20.291  0.00  0.00    +0.000 A 
ATOM     30  C   UNL     1      -0.373  10.793  21.628  0.00  0.00    +0.000 A 
ATOM     31 CL   UNL     1      -1.287  12.150  22.157  0.00  0.00    +0.000 Cl
ATOM     32  C   UNL     1      -0.009   9.800  22.533  0.00  0.00    +0.000 A 
ATOM     33  C   UNL     1       0.727   8.696  22.094  0.00  0.00    +0.000 A 
ENDBRANCH  26  27
ENDBRANCH  25  26
ENDBRANCH  22  25
ENDBRANCH   4  22
TORSDOF 8
ENDMDL
MODEL 7
REMARK VINA RESULT:      -7.1      5.492      9.980
REMARK  Name = 
REMARK  8 active torsions:
REMARK  status: ('A' for Active; 'I' for Inactive)
REMARK    1  A    between atoms: C_4  and  C_5
REMARK    2  A    between atoms: C_5  and  O_6
REMARK    3  A    between atoms: C_5  and  C_7
REMARK    4  A    between atoms: C_7  and  O_8
REMARK    5  A    between atoms: O_8  and  C_9
REMARK    6  A    between atoms: C_16  and  C_17
REMARK    7  A    between atoms: C_20  and  O_21
REMARK    8  A    between atoms: N_24  and  C_25
REMARK                            x       y       z     vdW  Elec       q    Type
REMARK                         _______ _______ _______ _____ _____    ______ ____
ROOT
ATOM      1  O   UNL     1       4.389   2.339  16.906  0.00  0.00    +0.000 OA
ATOM      2  C   UNL     1       4.343   3.552  17.035  0.00  0.00    +0.000 C 
ATOM      3  O   UNL     1       3.749   4.131  18.129  0.00  0.00    +0.000 OA
ATOM      4  C   UNL     1       3.557   5.532  17.847  0.00  0.00    +0.000 C 
ATOM      5  C   UNL     1       4.651   5.833  16.812  0.00  0.00    +0.000 C 
ATOM      6  N   UNL     1       4.856   4.537  16.199  0.00  0.00    +0.000 N 
ENDROOT
BRANCH   6   7
ATOM      7  C   UNL     1       5.522   4.340  14.953  0.00  0.00    +0.000 A 
ATOM      8  C   UNL     1       4.910   3.669  13.880  0.00  0.00    +0.000 A 
ATOM      9  C   UNL     1       5.572   3.491  12.658  0.00  0.00    +0.000 A 
ATOM     10  C   UNL     1       6.858   3.979  12.494  0.00  0.00    +0.000 A 
ATOM     11  F   UNL     1       7.491   3.813  11.326  0.00  0.00    +0.000 F 
ATOM     12  C   UNL     1       7.494   4.640  13.530  0.00  0.00    +0.000 A 
ATOM     13  C   UNL     1       6.827   4.823  14.747  0.00  0.00    +0.000 A 
ENDBRANCH   6   7
BRANCH   5  14
ATOM     14  C   UNL     1       5.938   6.427  17.380  0.00  0.00    +0.000 A 
ATOM     15  C   UNL     1       6.739   5.745  18.312  0.00  0.00    +0.000 A 
ATOM     16  C   UNL     1       7.834   6.378  18.909  0.00  0.00    +0.000 A 
ATOM     17  C   UNL     1       8.142   7.689  18.563  0.00  0.00    +0.000 A 
ATOM     18  C   UNL     1       7.401   8.364  17.606  0.00  0.00    +0.000 A 
ATOM     19  C   UNL     1       6.310   7.734  17.009  0.00  0.00    +0.000 A 
BRANCH  17  20
ATOM     20  O   UNL     1       9.168   8.361  19.157  0.00  0.00    +0.000 OA
ATOM     21  H   UNL     1       9.696   7.732  19.675  0.00  0.00    +0.000 HD
ENDBRANCH  17  20
ENDBRANCH   5  14
BRANCH   4  22
ATOM     22  C   UNL     1       3.539   6.344  19.158  0.00  0.00    +0.000 C 
BRANCH  22  23
ATOM     23  O   UNL     1       3.317   5.464  20.276  0.00  0.00    +0.000 OA
ATOM     24  H   UNL     1       3.894   5.766  21.004  0.00  0.00    +0.000 HD
ENDBRANCH  22  23
BRANCH  22  25
ATOM     25  C   UNL     1       2.470   7.443  19.199  0.00  0.00    +0.000 C 
BRANCH  25  26
ATOM     26  O   UNL     1       1.834   7.454  20.483  0.00  0.00    +0.000 OA
BRANCH  26  27
ATOM     27  C   UNL     1       1.092   8.572  20.769  0.00  0.00    +0.000 A 
ATOM     28  C   UNL     1       0.615   8.931  22.034  0.00  0.00    +0.000 A 
ATOM     29  C   UNL     1      -0.113  10.112  22.207  0.00  0.00    +0.000 A 
ATOM     30  C   UNL     1      -0.372  10.934  21.114  0.00  0.00    +0.000 A 
ATOM     31 CL   UNL     1      -1.265  12.386  21.334  0.00  0.00    +0.000 Cl
ATOM     32  C   UNL     1       0.088  10.582  19.848  0.00  0.00    +0.000 A 
ATOM     33  C   UNL     1       0.820   9.403  19.678  0.00  0.00    +0.000 A 
ENDBRANCH  26  27
ENDBRANCH  25  26
ENDBRANCH  22  25
ENDBRANCH   4  22
TORSDOF 8
ENDMDL
MODEL 8
REMARK VINA RESULT:      -7.1      4.335      7.532
REMARK  Name = 
REMARK  8 active torsions:
REMARK  status: ('A' for Active; 'I' for Inactive)
REMARK    1  A    between atoms: C_4  and  C_5
REMARK    2  A    between atoms: C_5  and  O_6
REMARK    3  A    between atoms: C_5  and  C_7
REMARK    4  A    between atoms: C_7  and  O_8
REMARK    5  A    between atoms: O_8  and  C_9
REMARK    6  A    between atoms: C_16  and  C_17
REMARK    7  A    between atoms: C_20  and  O_21
REMARK    8  A    between atoms: N_24  and  C_25
REMARK                            x       y       z     vdW  Elec       q    Type
REMARK                         _______ _______ _______ _____ _____    ______ ____
ROOT
ATOM      1  O   UNL     1       1.696  12.595  19.973  0.00  0.00    +0.000 OA
ATOM      2  C   UNL     1       0.545  12.189  20.022  0.00  0.00    +0.000 C 
ATOM      3  O   UNL     1      -0.499  13.036  20.297  0.00  0.00    +0.000 OA
ATOM      4  C   UNL     1      -1.657  12.236  20.608  0.00  0.00    +0.000 C 
ATOM      5  C   UNL     1      -1.381  10.920  19.866  0.00  0.00    +0.000 C 
ATOM      6  N   UNL     1       0.065  10.903  19.802  0.00  0.00    +0.000 N 
ENDROOT
BRANCH   6   7
ATOM      7  C   UNL     1       0.838   9.739  19.514  0.00  0.00    +0.000 A 
ATOM      8  C   UNL     1       1.149   8.789  20.502  0.00  0.00    +0.000 A 
ATOM      9  C   UNL     1       1.901   7.644  20.203  0.00  0.00    +0.000 A 
ATOM     10  C   UNL     1       2.357   7.438  18.911  0.00  0.00    +0.000 A 
ATOM     11  F   UNL     1       3.072   6.344  18.623  0.00  0.00    +0.000 F 
ATOM     12  C   UNL     1       2.076   8.355  17.914  0.00  0.00    +0.000 A 
ATOM     13  C   UNL     1       1.317   9.493  18.214  0.00  0.00    +0.000 A 
ENDBRANCH   6   7
BRANCH   5  14
ATOM     14  C   UNL     1      -2.033  10.798  18.491  0.00  0.00    +0.000 A 
ATOM     15  C   UNL     1      -2.773   9.668  18.103  0.00  0.00    +0.000 A 
ATOM     16  C   UNL     1      -3.238   9.537  16.790  0.00  0.00    +0.000 A 
ATOM     17  C   UNL     1      -2.981  10.544  15.867  0.00  0.00    +0.000 A 
ATOM     18  C   UNL     1      -2.303  11.694  16.240  0.00  0.00    +0.000 A 
ATOM     19  C   UNL     1      -1.839  11.826  17.547  0.00  0.00    +0.000 A 
BRANCH  17  20
ATOM     20  O   UNL     1      -3.371  10.436  14.565  0.00  0.00    +0.000 OA
ATOM     21  H   UNL     1      -2.912  11.116  14.044  0.00  0.00    +0.000 HD
ENDBRANCH  17  20
ENDBRANCH   5  14
BRANCH   4  22
ATOM     22  C   UNL     1      -2.948  13.012  20.278  0.00  0.00    +0.000 C 
BRANCH  22  23
ATOM     23  O   UNL     1      -2.673  14.424  20.230  0.00  0.00    +0.000 OA
ATOM     24  H   UNL     1      -1.913  14.554  19.631  0.00  0.00    +0.000 HD
ENDBRANCH  22  23
BRANCH  22  25
ATOM     25  C   UNL     1      -4.088  12.783  21.277  0.00  0.00    +0.000 C 
BRANCH  25  26
ATOM     26  O   UNL     1      -5.155  12.068  20.641  0.00  0.00    +0.000 OA
BRANCH  26  27
ATOM     27  C   UNL     1      -5.663  12.644  19.505  0.00  0.00    +0.000 A 
ATOM     28  C   UNL     1      -5.607  12.097  18.219  0.00  0.00    +0.000 A 
ATOM     29  C   UNL     1      -6.184  12.770  17.138  0.00  0.00    +0.000 A 
ATOM     30  C   UNL     1      -6.811  13.996  17.338  0.00  0.00    +0.000 A 
ATOM     31 CL   UNL     1      -7.521  14.816  16.004  0.00  0.00    +0.000 Cl
ATOM     32  C   UNL     1      -6.863  14.556  18.611  0.00  0.00    +0.000 A 
ATOM     33  C   UNL     1      -6.291  13.879  19.692  0.00  0.00    +0.000 A 
ENDBRANCH  26  27
ENDBRANCH  25  26
ENDBRANCH  22  25
ENDBRANCH   4  22
TORSDOF 8
ENDMDL
MODEL 9
REMARK VINA RESULT:      -6.9      7.960     10.592
REMARK  Name = 
REMARK  8 active torsions:
REMARK  status: ('A' for Active; 'I' for Inactive)
REMARK    1  A    between atoms: C_4  and  C_5
REMARK    2  A    between atoms: C_5  and  O_6
REMARK    3  A    between atoms: C_5  and  C_7
REMARK    4  A    between atoms: C_7  and  O_8
REMARK    5  A    between atoms: O_8  and  C_9
REMARK    6  A    between atoms: C_16  and  C_17
REMARK    7  A    between atoms: C_20  and  O_21
REMARK    8  A    between atoms: N_24  and  C_25
REMARK                            x       y       z     vdW  Elec       q    Type
REMARK                         _______ _______ _______ _____ _____    ______ ____
ROOT
ATOM      1  O   UNL     1       5.946   4.400  20.332  0.00  0.00    +0.000 OA
ATOM      2  C   UNL     1       5.792   5.100  19.344  0.00  0.00    +0.000 C 
ATOM      3  O   UNL     1       6.719   6.048  18.989  0.00  0.00    +0.000 OA
ATOM      4  C   UNL     1       6.122   6.915  18.005  0.00  0.00    +0.000 C 
ATOM      5  C   UNL     1       5.053   6.024  17.357  0.00  0.00    +0.000 C 
ATOM      6  N   UNL     1       4.755   5.084  18.418  0.00  0.00    +0.000 N 
ENDROOT
BRANCH   6   7
ATOM      7  C   UNL     1       3.592   4.259  18.450  0.00  0.00    +0.000 A 
ATOM      8  C   UNL     1       2.318   4.779  18.738  0.00  0.00    +0.000 A 
ATOM      9  C   UNL     1       1.182   3.958  18.757  0.00  0.00    +0.000 A 
ATOM     10  C   UNL     1       1.306   2.605  18.492  0.00  0.00    +0.000 A 
ATOM     11  F   UNL     1       0.221   1.820  18.506  0.00  0.00    +0.000 F 
ATOM     12  C   UNL     1       2.545   2.057  18.210  0.00  0.00    +0.000 A 
ATOM     13  C   UNL     1       3.676   2.880  18.184  0.00  0.00    +0.000 A 
ENDBRANCH   6   7
BRANCH   5  14
ATOM     14  C   UNL     1       5.476   5.336  16.062  0.00  0.00    +0.000 A 
ATOM     15  C   UNL     1       5.149   5.845  14.793  0.00  0.00    +0.000 A 
ATOM     16  C   UNL     1       5.437   5.115  13.636  0.00  0.00    +0.000 A 
ATOM     17  C   UNL     1       6.070   3.882  13.741  0.00  0.00    +0.000 A 
ATOM     18  C   UNL     1       6.454   3.383  14.977  0.00  0.00    +0.000 A 
ATOM     19  C   UNL     1       6.168   4.110  16.131  0.00  0.00    +0.000 A 
BRANCH  17  20
ATOM     20  O   UNL     1       6.324   3.113  12.645  0.00  0.00    +0.000 OA
ATOM     21  H   UNL     1       5.497   2.990  12.151  0.00  0.00    +0.000 HD
ENDBRANCH  17  20
ENDBRANCH   5  14
BRANCH   4  22
ATOM     22  C   UNL     1       7.211   7.533  17.105  0.00  0.00    +0.000 C 
BRANCH  22  23
ATOM     23  O   UNL     1       7.954   6.489  16.448  0.00  0.00    +0.000 OA
ATOM     24  H   UNL     1       8.638   6.918  15.899  0.00  0.00    +0.000 HD
ENDBRANCH  22  23
BRANCH  22  25
ATOM     25  C   UNL     1       8.208   8.427  17.852  0.00  0.00    +0.000 C 
BRANCH  25  26
ATOM     26  O   UNL     1       7.725   9.777  17.877  0.00  0.00    +0.000 OA
BRANCH  26  27
ATOM     27  C   UNL     1       8.632  10.725  18.278  0.00  0.00    +0.000 A 
ATOM     28  C   UNL     1       8.807  11.983  17.693  0.00  0.00    +0.000 A 
ATOM     29  C   UNL     1       9.751  12.878  18.208  0.00  0.00    +0.000 A 
ATOM     30  C   UNL     1      10.527  12.513  19.304  0.00  0.00    +0.000 A 
ATOM     31 CL   UNL     1      11.683  13.619  19.933  0.00  0.00    +0.000 Cl
ATOM     32  C   UNL     1      10.369  11.259  19.888  0.00  0.00    +0.000 A 
ATOM     33  C   UNL     1       9.422  10.369  19.375  0.00  0.00    +0.000 A 
ENDBRANCH  26  27
ENDBRANCH  25  26
ENDBRANCH  22  25
ENDBRANCH   4  22
TORSDOF 8
ENDMDL
