MODEL 1
REMARK VINA RESULT:      -8.2      0.000      0.000
REMARK  Name = 
REMARK  4 active torsions:
REMARK  status: ('A' for Active; 'I' for Inactive)
REMARK    1  A    between atoms: C_2  and  O_3
REMARK    2  A    between atoms: C_2  and  C_4
REMARK    3  A    between atoms: N_9  and  S_10
REMARK    4  A    between atoms: S_10  and  C_13
REMARK                            x       y       z     vdW  Elec       q    Type
REMARK                         _______ _______ _______ _____ _____    ______ ____
ROOT
ATOM      1  S   UNL     1       4.151   3.422  18.608  0.00  0.00    +0.000 S 
ATOM      2  O   UNL     1       4.995   3.249  19.769  0.00  0.00    +0.000 OA
ATOM      3  O   UNL     1       3.411   2.304  18.066  0.00  0.00    +0.000 OA
ENDROOT
BRANCH   1   4
ATOM      4  C   UNL     1       5.077   4.108  17.282  0.00  0.00    +0.000 A 
ATOM      5  C   UNL     1       4.820   3.710  15.952  0.00  0.00    +0.000 A 
ATOM      6  C   UNL     1       5.515   4.239  14.839  0.00  0.00    +0.000 A 
ATOM      7  C   UNL     1       6.526   5.206  14.958  0.00  0.00    +0.000 A 
ATOM      8  C   UNL     1       6.837   5.629  16.272  0.00  0.00    +0.000 A 
ATOM      9  N   UNL     1       7.755   6.553  16.594  0.00  0.00    +0.000 NA
ATOM     10  S   UNL     1       7.732   6.687  18.247  0.00  0.00    +0.000 S 
ATOM     11  N   UNL     1       6.536   5.604  18.621  0.00  0.00    +0.000 NA
ATOM     12  C   UNL     1       6.110   5.062  17.469  0.00  0.00    +0.000 A 
ENDBRANCH   1   4
BRANCH   1  18
ATOM     13  C   UNL     1       2.581   4.589  20.490  0.00  0.00    +0.000 C 
ATOM     14  C   UNL     1       1.523   5.679  20.782  0.00  0.00    +0.000 C 
ATOM     15  C   UNL     1       1.955   7.061  20.322  0.00  0.00    +0.000 C 
ATOM     16  C   UNL     1       2.268   7.018  18.843  0.00  0.00    +0.000 C 
ATOM     17  C   UNL     1       3.341   5.981  18.565  0.00  0.00    +0.000 C 
ATOM     18  N   UNL     1       2.930   4.597  18.995  0.00  0.00    +0.000 NA
BRANCH  13  20
ATOM     19  O   UNL     1       2.624   2.733  22.034  0.00  0.00    +0.000 OA
ATOM     20  C   UNL     1       2.015   3.334  21.154  0.00  0.00    +0.000 C 
BRANCH  20  21
ATOM     21  O   UNL     1       0.760   2.972  20.833  0.00  0.00    +0.000 OA
ATOM     22  H   UNL     1       0.069   3.556  21.219  0.00  0.00    +0.000 HD
ENDBRANCH  20  21
ENDBRANCH  13  20
ENDBRANCH   1  18
TORSDOF 4
ENDMDL
MODEL 2
REMARK VINA RESULT:      -7.8      1.629      2.096
REMARK  Name = 
REMARK  4 active torsions:
REMARK  status: ('A' for Active; 'I' for Inactive)
REMARK    1  A    between atoms: C_2  and  O_3
REMARK    2  A    between atoms: C_2  and  C_4
REMARK    3  A    between atoms: N_9  and  S_10
REMARK    4  A    between atoms: S_10  and  C_13
REMARK                            x       y       z     vdW  Elec       q    Type
REMARK                         _______ _______ _______ _____ _____    ______ ____
ROOT
ATOM      1  S   UNL     1       3.479   3.752  18.272  0.00  0.00    +0.000 S 
ATOM      2  O   UNL     1       3.532   2.715  19.277  0.00  0.00    +0.000 OA
ATOM      3  O   UNL     1       2.987   3.462  16.943  0.00  0.00    +0.000 OA
ENDROOT
BRANCH   1   4
ATOM      4  C   UNL     1       5.063   4.488  18.076  0.00  0.00    +0.000 A 
ATOM      5  C   UNL     1       5.763   4.981  19.199  0.00  0.00    +0.000 A 
ATOM      6  C   UNL     1       7.049   5.565  19.112  0.00  0.00    +0.000 A 
ATOM      7  C   UNL     1       7.743   5.709  17.899  0.00  0.00    +0.000 A 
ATOM      8  C   UNL     1       7.079   5.246  16.738  0.00  0.00    +0.000 A 
ATOM      9  N   UNL     1       7.578   5.277  15.493  0.00  0.00    +0.000 NA
ATOM     10  S   UNL     1       6.421   4.621  14.503  0.00  0.00    +0.000 S 
ATOM     11  N   UNL     1       5.253   4.240  15.615  0.00  0.00    +0.000 NA
ATOM     12  C   UNL     1       5.701   4.632  16.818  0.00  0.00    +0.000 A 
ENDBRANCH   1   4
BRANCH   1  18
ATOM     13  C   UNL     1       2.315   5.007  20.379  0.00  0.00    +0.000 C 
ATOM     14  C   UNL     1       1.410   6.174  20.836  0.00  0.00    +0.000 C 
ATOM     15  C   UNL     1       1.883   7.524  20.326  0.00  0.00    +0.000 C 
ATOM     16  C   UNL     1       1.964   7.485  18.817  0.00  0.00    +0.000 C 
ATOM     17  C   UNL     1       2.891   6.370  18.371  0.00  0.00    +0.000 C 
ATOM     18  N   UNL     1       2.434   5.015  18.849  0.00  0.00    +0.000 NA
BRANCH  13  20
ATOM     19  O   UNL     1       2.186   3.429  22.202  0.00  0.00    +0.000 OA
ATOM     20  C   UNL     1       1.752   3.790  21.112  0.00  0.00    +0.000 C 
BRANCH  20  21
ATOM     21  O   UNL     1       0.670   3.191  20.584  0.00  0.00    +0.000 OA
ATOM     22  H   UNL     1       0.410   3.547  19.705  0.00  0.00    +0.000 HD
ENDBRANCH  20  21
ENDBRANCH  13  20
ENDBRANCH   1  18
TORSDOF 4
ENDMDL
MODEL 3
REMARK VINA RESULT:      -7.6      1.568      2.147
REMARK  Name = 
REMARK  4 active torsions:
REMARK  status: ('A' for Active; 'I' for Inactive)
REMARK    1  A    between atoms: C_2  and  O_3
REMARK    2  A    between atoms: C_2  and  C_4
REMARK    3  A    between atoms: N_9  and  S_10
REMARK    4  A    between atoms: S_10  and  C_13
REMARK                            x       y       z     vdW  Elec       q    Type
REMARK                         _______ _______ _______ _____ _____    ______ ____
ROOT
ATOM      1  S   UNL     1       4.367   3.518  18.799  0.00  0.00    +0.000 S 
ATOM      2  O   UNL     1       4.792   2.905  20.037  0.00  0.00    +0.000 OA
ATOM      3  O   UNL     1       3.899   2.703  17.699  0.00  0.00    +0.000 OA
ENDROOT
BRANCH   1   4
ATOM      4  C   UNL     1       5.642   4.544  18.162  0.00  0.00    +0.000 A 
ATOM      5  C   UNL     1       6.393   5.370  19.028  0.00  0.00    +0.000 A 
ATOM      6  C   UNL     1       7.446   6.203  18.582  0.00  0.00    +0.000 A 
ATOM      7  C   UNL     1       7.836   6.286  17.235  0.00  0.00    +0.000 A 
ATOM      8  C   UNL     1       7.106   5.492  16.320  0.00  0.00    +0.000 A 
ATOM      9  N   UNL     1       7.335   5.417  15.000  0.00  0.00    +0.000 NA
ATOM     10  S   UNL     1       6.219   4.357  14.385  0.00  0.00    +0.000 S 
ATOM     11  N   UNL     1       5.420   3.922  15.770  0.00  0.00    +0.000 NA
ATOM     12  C   UNL     1       5.972   4.608  16.784  0.00  0.00    +0.000 A 
ENDBRANCH   1   4
BRANCH   1  18
ATOM     13  C   UNL     1       2.553   4.436  20.598  0.00  0.00    +0.000 C 
ATOM     14  C   UNL     1       1.396   5.427  20.860  0.00  0.00    +0.000 C 
ATOM     15  C   UNL     1       1.763   6.865  20.535  0.00  0.00    +0.000 C 
ATOM     16  C   UNL     1       2.208   6.950  19.092  0.00  0.00    +0.000 C 
ATOM     17  C   UNL     1       3.375   6.012  18.848  0.00  0.00    +0.000 C 
ATOM     18  N   UNL     1       3.032   4.575  19.146  0.00  0.00    +0.000 NA
BRANCH  13  20
ATOM     19  O   UNL     1       1.045   2.551  20.629  0.00  0.00    +0.000 OA
ATOM     20  C   UNL     1       2.026   3.101  21.122  0.00  0.00    +0.000 C 
BRANCH  20  21
ATOM     21  O   UNL     1       2.748   2.474  22.068  0.00  0.00    +0.000 OA
ATOM     22  H   UNL     1       3.657   2.237  21.779  0.00  0.00    +0.000 HD
ENDBRANCH  20  21
ENDBRANCH  13  20
ENDBRANCH   1  18
TORSDOF 4
ENDMDL
MODEL 4
REMARK VINA RESULT:      -7.6      1.868      2.447
REMARK  Name = 
REMARK  4 active torsions:
REMARK  status: ('A' for Active; 'I' for Inactive)
REMARK    1  A    between atoms: C_2  and  O_3
REMARK    2  A    between atoms: C_2  and  C_4
REMARK    3  A    between atoms: N_9  and  S_10
REMARK    4  A    between atoms: S_10  and  C_13
REMARK                            x       y       z     vdW  Elec       q    Type
REMARK                         _______ _______ _______ _____ _____    ______ ____
ROOT
ATOM      1  S   UNL     1       4.454   3.347  18.603  0.00  0.00    +0.000 S 
ATOM      2  O   UNL     1       4.897   2.693  19.813  0.00  0.00    +0.000 OA
ATOM      3  O   UNL     1       4.051   2.567  17.452  0.00  0.00    +0.000 OA
ENDROOT
BRANCH   1   4
ATOM      4  C   UNL     1       5.675   4.480  18.045  0.00  0.00    +0.000 A 
ATOM      5  C   UNL     1       6.336   5.325  18.962  0.00  0.00    +0.000 A 
ATOM      6  C   UNL     1       7.342   6.244  18.581  0.00  0.00    +0.000 A 
ATOM      7  C   UNL     1       7.771   6.399  17.253  0.00  0.00    +0.000 A 
ATOM      8  C   UNL     1       7.130   5.588  16.287  0.00  0.00    +0.000 A 
ATOM      9  N   UNL     1       7.407   5.574  14.975  0.00  0.00    +0.000 NA
ATOM     10  S   UNL     1       6.390   4.460  14.288  0.00  0.00    +0.000 S 
ATOM     11  N   UNL     1       5.577   3.925  15.628  0.00  0.00    +0.000 NA
ATOM     12  C   UNL     1       6.045   4.612  16.682  0.00  0.00    +0.000 A 
ENDBRANCH   1   4
BRANCH   1  18
ATOM     13  C   UNL     1       2.026   3.514  19.805  0.00  0.00    +0.000 C 
ATOM     14  C   UNL     1       0.824   4.424  20.148  0.00  0.00    +0.000 C 
ATOM     15  C   UNL     1       1.235   5.703  20.858  0.00  0.00    +0.000 C 
ATOM     16  C   UNL     1       2.230   6.451  20.000  0.00  0.00    +0.000 C 
ATOM     17  C   UNL     1       3.431   5.572  19.704  0.00  0.00    +0.000 C 
ATOM     18  N   UNL     1       3.053   4.303  18.983  0.00  0.00    +0.000 NA
BRANCH  13  20
ATOM     19  O   UNL     1       0.232   2.236  18.814  0.00  0.00    +0.000 OA
ATOM     20  C   UNL     1       1.383   2.246  19.243  0.00  0.00    +0.000 C 
BRANCH  20  21
ATOM     21  O   UNL     1       2.162   1.158  19.113  0.00  0.00    +0.000 OA
ATOM     22  H   UNL     1       3.125   1.352  19.169  0.00  0.00    +0.000 HD
ENDBRANCH  20  21
ENDBRANCH  13  20
ENDBRANCH   1  18
TORSDOF 4
ENDMDL
MODEL 5
REMARK VINA RESULT:      -7.5      2.271      3.190
REMARK  Name = 
REMARK  4 active torsions:
REMARK  status: ('A' for Active; 'I' for Inactive)
REMARK    1  A    between atoms: C_2  and  O_3
REMARK    2  A    between atoms: C_2  and  C_4
REMARK    3  A    between atoms: N_9  and  S_10
REMARK    4  A    between atoms: S_10  and  C_13
REMARK                            x       y       z     vdW  Elec       q    Type
REMARK                         _______ _______ _______ _____ _____    ______ ____
ROOT
ATOM      1  S   UNL     1       3.819   3.157  17.814  0.00  0.00    +0.000 S 
ATOM      2  O   UNL     1       4.233   1.778  17.682  0.00  0.00    +0.000 OA
ATOM      3  O   UNL     1       2.775   3.694  16.969  0.00  0.00    +0.000 OA
ENDROOT
BRANCH   1   4
ATOM      4  C   UNL     1       5.204   4.224  17.647  0.00  0.00    +0.000 A 
ATOM      5  C   UNL     1       5.728   4.895  18.774  0.00  0.00    +0.000 A 
ATOM      6  C   UNL     1       6.853   5.751  18.711  0.00  0.00    +0.000 A 
ATOM      7  C   UNL     1       7.548   6.012  17.519  0.00  0.00    +0.000 A 
ATOM      8  C   UNL     1       7.055   5.378  16.353  0.00  0.00    +0.000 A 
ATOM      9  N   UNL     1       7.587   5.485  15.127  0.00  0.00    +0.000 NA
ATOM     10  S   UNL     1       6.651   4.557  14.122  0.00  0.00    +0.000 S 
ATOM     11  N   UNL     1       5.551   3.955  15.205  0.00  0.00    +0.000 NA
ATOM     12  C   UNL     1       5.847   4.472  16.408  0.00  0.00    +0.000 A 
ENDBRANCH   1   4
BRANCH   1  18
ATOM     13  C   UNL     1       2.092   4.426  19.479  0.00  0.00    +0.000 C 
ATOM     14  C   UNL     1       1.577   4.564  20.931  0.00  0.00    +0.000 C 
ATOM     15  C   UNL     1       1.145   3.239  21.534  0.00  0.00    +0.000 C 
ATOM     16  C   UNL     1       2.301   2.266  21.479  0.00  0.00    +0.000 C 
ATOM     17  C   UNL     1       2.774   2.095  20.048  0.00  0.00    +0.000 C 
ATOM     18  N   UNL     1       3.226   3.393  19.431  0.00  0.00    +0.000 NA
BRANCH  13  20
ATOM     19  O   UNL     1       2.861   6.697  19.759  0.00  0.00    +0.000 OA
ATOM     20  C   UNL     1       2.327   5.867  19.029  0.00  0.00    +0.000 C 
BRANCH  20  21
ATOM     21  O   UNL     1       2.043   6.175  17.751  0.00  0.00    +0.000 OA
ATOM     22  H   UNL     1       2.553   5.647  17.095  0.00  0.00    +0.000 HD
ENDBRANCH  20  21
ENDBRANCH  13  20
ENDBRANCH   1  18
TORSDOF 4
ENDMDL
MODEL 6
REMARK VINA RESULT:      -7.3      1.055      1.354
REMARK  Name = 
REMARK  4 active torsions:
REMARK  status: ('A' for Active; 'I' for Inactive)
REMARK    1  A    between atoms: C_2  and  O_3
REMARK    2  A    between atoms: C_2  and  C_4
REMARK    3  A    between atoms: N_9  and  S_10
REMARK    4  A    between atoms: S_10  and  C_13
REMARK                            x       y       z     vdW  Elec       q    Type
REMARK                         _______ _______ _______ _____ _____    ______ ____
ROOT
ATOM      1  S   UNL     1       4.315   3.180  18.396  0.00  0.00    +0.000 S 
ATOM      2  O   UNL     1       5.161   2.978  19.550  0.00  0.00    +0.000 OA
ATOM      3  O   UNL     1       3.660   2.057  17.760  0.00  0.00    +0.000 OA
ENDROOT
BRANCH   1   4
ATOM      4  C   UNL     1       5.199   4.030  17.137  0.00  0.00    +0.000 A 
ATOM      5  C   UNL     1       4.965   3.732  15.777  0.00  0.00    +0.000 A 
ATOM      6  C   UNL     1       5.628   4.394  14.716  0.00  0.00    +0.000 A 
ATOM      7  C   UNL     1       6.581   5.405  14.922  0.00  0.00    +0.000 A 
ATOM      8  C   UNL     1       6.866   5.732  16.269  0.00  0.00    +0.000 A 
ATOM      9  N   UNL     1       7.728   6.677  16.673  0.00  0.00    +0.000 NA
ATOM     10  S   UNL     1       7.698   6.668  18.331  0.00  0.00    +0.000 S 
ATOM     11  N   UNL     1       6.568   5.489  18.605  0.00  0.00    +0.000 NA
ATOM     12  C   UNL     1       6.174   5.023  17.409  0.00  0.00    +0.000 A 
ENDBRANCH   1   4
BRANCH   1  18
ATOM     13  C   UNL     1       2.006   3.529  19.780  0.00  0.00    +0.000 C 
ATOM     14  C   UNL     1       0.894   4.522  20.188  0.00  0.00    +0.000 C 
ATOM     15  C   UNL     1       1.437   5.790  20.825  0.00  0.00    +0.000 C 
ATOM     16  C   UNL     1       2.403   6.452  19.869  0.00  0.00    +0.000 C 
ATOM     17  C   UNL     1       3.521   5.492  19.506  0.00  0.00    +0.000 C 
ATOM     18  N   UNL     1       3.010   4.232  18.855  0.00  0.00    +0.000 NA
BRANCH  13  20
ATOM     19  O   UNL     1       0.144   2.370  18.770  0.00  0.00    +0.000 OA
ATOM     20  C   UNL     1       1.244   2.291  19.308  0.00  0.00    +0.000 C 
BRANCH  20  21
ATOM     21  O   UNL     1       1.875   1.105  19.386  0.00  0.00    +0.000 OA
ATOM     22  H   UNL     1       2.698   1.130  19.925  0.00  0.00    +0.000 HD
ENDBRANCH  20  21
ENDBRANCH  13  20
ENDBRANCH   1  18
TORSDOF 4
ENDMDL
MODEL 7
REMARK VINA RESULT:      -7.0      1.871      2.642
REMARK  Name = 
REMARK  4 active torsions:
REMARK  status: ('A' for Active; 'I' for Inactive)
REMARK    1  A    between atoms: C_2  and  O_3
REMARK    2  A    between atoms: C_2  and  C_4
REMARK    3  A    between atoms: N_9  and  S_10
REMARK    4  A    between atoms: S_10  and  C_13
REMARK                            x       y       z     vdW  Elec       q    Type
REMARK                         _______ _______ _______ _____ _____    ______ ____
ROOT
ATOM      1  S   UNL     1       3.568   2.906  17.599  0.00  0.00    +0.000 S 
ATOM      2  O   UNL     1       4.032   1.537  17.580  0.00  0.00    +0.000 OA
ATOM      3  O   UNL     1       2.337   3.273  16.932  0.00  0.00    +0.000 OA
ENDROOT
BRANCH   1   4
ATOM      4  C   UNL     1       4.816   3.977  16.983  0.00  0.00    +0.000 A 
ATOM      5  C   UNL     1       4.879   4.282  15.606  0.00  0.00    +0.000 A 
ATOM      6  C   UNL     1       5.846   5.154  15.050  0.00  0.00    +0.000 A 
ATOM      7  C   UNL     1       6.832   5.791  15.819  0.00  0.00    +0.000 A 
ATOM      8  C   UNL     1       6.827   5.508  17.206  0.00  0.00    +0.000 A 
ATOM      9  N   UNL     1       7.671   6.028  18.109  0.00  0.00    +0.000 NA
ATOM     10  S   UNL     1       7.248   5.385  19.577  0.00  0.00    +0.000 S 
ATOM     11  N   UNL     1       5.957   4.447  19.136  0.00  0.00    +0.000 NA
ATOM     12  C   UNL     1       5.807   4.569  17.808  0.00  0.00    +0.000 A 
ENDBRANCH   1   4
BRANCH   1  18
ATOM     13  C   UNL     1       2.272   4.491  19.381  0.00  0.00    +0.000 C 
ATOM     14  C   UNL     1       2.057   4.833  20.873  0.00  0.00    +0.000 C 
ATOM     15  C   UNL     1       1.673   3.624  21.708  0.00  0.00    +0.000 C 
ATOM     16  C   UNL     1       2.737   2.561  21.564  0.00  0.00    +0.000 C 
ATOM     17  C   UNL     1       2.914   2.191  20.103  0.00  0.00    +0.000 C 
ATOM     18  N   UNL     1       3.314   3.371  19.254  0.00  0.00    +0.000 NA
BRANCH  13  20
ATOM     19  O   UNL     1       3.307   6.661  19.159  0.00  0.00    +0.000 OA
ATOM     20  C   UNL     1       2.500   5.849  18.717  0.00  0.00    +0.000 C 
BRANCH  20  21
ATOM     21  O   UNL     1       1.876   6.083  17.549  0.00  0.00    +0.000 OA
ATOM     22  H   UNL     1       1.015   6.549  17.647  0.00  0.00    +0.000 HD
ENDBRANCH  20  21
ENDBRANCH  13  20
ENDBRANCH   1  18
TORSDOF 4
ENDMDL
MODEL 8
REMARK VINA RESULT:      -6.9      2.325      3.212
REMARK  Name = 
REMARK  4 active torsions:
REMARK  status: ('A' for Active; 'I' for Inactive)
REMARK    1  A    between atoms: C_2  and  O_3
REMARK    2  A    between atoms: C_2  and  C_4
REMARK    3  A    between atoms: N_9  and  S_10
REMARK    4  A    between atoms: S_10  and  C_13
REMARK                            x       y       z     vdW  Elec       q    Type
REMARK                         _______ _______ _______ _____ _____    ______ ____
ROOT
ATOM      1  S   UNL     1       4.476   2.761  18.625  0.00  0.00    +0.000 S 
ATOM      2  O   UNL     1       5.224   1.718  19.289  0.00  0.00    +0.000 OA
ATOM      3  O   UNL     1       3.705   2.467  17.437  0.00  0.00    +0.000 OA
ENDROOT
BRANCH   1   4
ATOM      4  C   UNL     1       5.534   4.104  18.224  0.00  0.00    +0.000 A 
ATOM      5  C   UNL     1       5.969   4.994  19.229  0.00  0.00    +0.000 A 
ATOM      6  C   UNL     1       6.838   6.083  18.976  0.00  0.00    +0.000 A 
ATOM      7  C   UNL     1       7.342   6.376  17.699  0.00  0.00    +0.000 A 
ATOM      8  C   UNL     1       6.925   5.524  16.648  0.00  0.00    +0.000 A 
ATOM      9  N   UNL     1       7.308   5.626  15.367  0.00  0.00    +0.000 NA
ATOM     10  S   UNL     1       6.548   4.401  14.547  0.00  0.00    +0.000 S 
ATOM     11  N   UNL     1       5.728   3.671  15.788  0.00  0.00    +0.000 NA
ATOM     12  C   UNL     1       5.988   4.367  16.906  0.00  0.00    +0.000 A 
ENDBRANCH   1   4
BRANCH   1  18
ATOM     13  C   UNL     1       1.928   3.570  19.100  0.00  0.00    +0.000 C 
ATOM     14  C   UNL     1       0.924   4.092  20.153  0.00  0.00    +0.000 C 
ATOM     15  C   UNL     1       0.846   3.209  21.386  0.00  0.00    +0.000 C 
ATOM     16  C   UNL     1       2.224   3.082  21.995  0.00  0.00    +0.000 C 
ATOM     17  C   UNL     1       3.198   2.524  20.975  0.00  0.00    +0.000 C 
ATOM     18  N   UNL     1       3.309   3.392  19.748  0.00  0.00    +0.000 NA
BRANCH  13  20
ATOM     19  O   UNL     1       0.924   4.274  17.020  0.00  0.00    +0.000 OA
ATOM     20  C   UNL     1       1.739   4.507  17.908  0.00  0.00    +0.000 C 
BRANCH  20  21
ATOM     21  O   UNL     1       2.410   5.673  17.920  0.00  0.00    +0.000 OA
ATOM     22  H   UNL     1       2.933   5.819  18.740  0.00  0.00    +0.000 HD
ENDBRANCH  20  21
ENDBRANCH  13  20
ENDBRANCH   1  18
TORSDOF 4
ENDMDL
MODEL 9
REMARK VINA RESULT:      -6.9      2.433      5.530
REMARK  Name = 
REMARK  4 active torsions:
REMARK  status: ('A' for Active; 'I' for Inactive)
REMARK    1  A    between atoms: C_2  and  O_3
REMARK    2  A    between atoms: C_2  and  C_4
REMARK    3  A    between atoms: N_9  and  S_10
REMARK    4  A    between atoms: S_10  and  C_13
REMARK                            x       y       z     vdW  Elec       q    Type
REMARK                         _______ _______ _______ _____ _____    ______ ____
ROOT
ATOM      1  S   UNL     1       4.182   3.741  17.999  0.00  0.00    +0.000 S 
ATOM      2  O   UNL     1       3.733   3.836  16.628  0.00  0.00    +0.000 OA
ATOM      3  O   UNL     1       4.278   2.454  18.652  0.00  0.00    +0.000 OA
ENDROOT
BRANCH   1   4
ATOM      4  C   UNL     1       3.193   4.761  19.032  0.00  0.00    +0.000 A 
ATOM      5  C   UNL     1       2.648   4.248  20.229  0.00  0.00    +0.000 A 
ATOM      6  C   UNL     1       1.861   5.022  21.115  0.00  0.00    +0.000 A 
ATOM      7  C   UNL     1       1.549   6.370  20.879  0.00  0.00    +0.000 A 
ATOM      8  C   UNL     1       2.056   6.932  19.684  0.00  0.00    +0.000 A 
ATOM      9  N   UNL     1       1.885   8.202  19.288  0.00  0.00    +0.000 NA
ATOM     10  S   UNL     1       2.670   8.356  17.836  0.00  0.00    +0.000 S 
ATOM     11  N   UNL     1       3.287   6.829  17.663  0.00  0.00    +0.000 NA
ATOM     12  C   UNL     1       2.887   6.111  18.725  0.00  0.00    +0.000 A 
ENDBRANCH   1   4
BRANCH   1  18
ATOM     13  C   UNL     1       6.136   5.246  16.864  0.00  0.00    +0.000 C 
ATOM     14  C   UNL     1       7.560   5.828  17.019  0.00  0.00    +0.000 C 
ATOM     15  C   UNL     1       7.742   6.609  18.309  0.00  0.00    +0.000 C 
ATOM     16  C   UNL     1       7.411   5.717  19.483  0.00  0.00    +0.000 C 
ATOM     17  C   UNL     1       5.996   5.185  19.353  0.00  0.00    +0.000 C 
ATOM     18  N   UNL     1       5.792   4.389  18.090  0.00  0.00    +0.000 NA
BRANCH  13  20
ATOM     19  O   UNL     1       6.106   5.337  14.451  0.00  0.00    +0.000 OA
ATOM     20  C   UNL     1       6.133   4.640  15.461  0.00  0.00    +0.000 C 
BRANCH  20  21
ATOM     21  O   UNL     1       6.288   3.307  15.358  0.00  0.00    +0.000 OA
ATOM     22  H   UNL     1       6.176   2.830  16.210  0.00  0.00    +0.000 HD
ENDBRANCH  20  21
ENDBRANCH  13  20
ENDBRANCH   1  18
TORSDOF 4
ENDMDL
