MODEL 1
REMARK VINA RESULT:      -7.5      0.000      0.000
REMARK  Name = 
REMARK  3 active torsions:
REMARK  status: ('A' for Active; 'I' for Inactive)
REMARK    1  A    between atoms: N_10  and  C_11
REMARK    2  A    between atoms: C_16  and  C_17
REMARK    3  A    between atoms: C_17  and  O_18
REMARK                            x       y       z     vdW  Elec       q    Type
REMARK                         _______ _______ _______ _____ _____    ______ ____
ROOT
ATOM      1  N   UNL     1       4.908   1.863  19.612  0.00  0.00    +0.000 N 
ATOM      2  C   UNL     1       4.140   2.973  19.640  0.00  0.00    +0.000 A 
ATOM      3  N   UNL     1       3.126   3.101  20.457  0.00  0.00    +0.000 NA
ATOM      4  C   UNL     1       2.709   4.391  20.327  0.00  0.00    +0.000 A 
ATOM      5  C   UNL     1       1.672   5.047  21.010  0.00  0.00    +0.000 A 
ATOM      6  C   UNL     1       1.404   6.389  20.725  0.00  0.00    +0.000 A 
ATOM      7  C   UNL     1       2.142   7.061  19.756  0.00  0.00    +0.000 A 
ATOM      8  C   UNL     1       3.164   6.416  19.048  0.00  0.00    +0.000 A 
ATOM      9  C   UNL     1       3.460   5.076  19.369  0.00  0.00    +0.000 A 
ATOM     10  N   UNL     1       4.373   4.125  18.884  0.00  0.00    +0.000 N 
ATOM     11  H   UNL     1       4.693   1.186  20.339  0.00  0.00    +0.000 HD
ATOM     12  H   UNL     1       5.910   1.963  19.466  0.00  0.00    +0.000 HD
ENDROOT
BRANCH  10  13
ATOM     13  C   UNL     1       5.352   4.340  17.846  0.00  0.00    +0.000 A 
ATOM     14  C   UNL     1       5.060   3.814  16.568  0.00  0.00    +0.000 A 
ATOM     15  C   UNL     1       5.967   3.907  15.510  0.00  0.00    +0.000 A 
ATOM     16  C   UNL     1       7.162   4.579  15.689  0.00  0.00    +0.000 A 
ATOM     17  C   UNL     1       7.450   5.148  16.927  0.00  0.00    +0.000 A 
ATOM     18  C   UNL     1       6.582   5.016  18.039  0.00  0.00    +0.000 A 
BRANCH  18  19
ATOM     19  C   UNL     1       7.070   5.602  19.348  0.00  0.00    +0.000 C 
BRANCH  19  20
ATOM     20  O   UNL     1       8.424   5.230  19.609  0.00  0.00    +0.000 OA
ATOM     21  H   UNL     1       8.531   4.324  19.268  0.00  0.00    +0.000 HD
ENDBRANCH  19  20
ENDBRANCH  18  19
ENDBRANCH  10  13
TORSDOF 3
ENDMDL
MODEL 2
REMARK VINA RESULT:      -7.5      2.154      2.932
REMARK  Name = 
REMARK  3 active torsions:
REMARK  status: ('A' for Active; 'I' for Inactive)
REMARK    1  A    between atoms: N_10  and  C_11
REMARK    2  A    between atoms: C_16  and  C_17
REMARK    3  A    between atoms: C_17  and  O_18
REMARK                            x       y       z     vdW  Elec       q    Type
REMARK                         _______ _______ _______ _____ _____    ______ ____
ROOT
ATOM      1  N   UNL     1       5.177   2.940  16.364  0.00  0.00    +0.000 N 
ATOM      2  C   UNL     1       4.300   3.445  17.259  0.00  0.00    +0.000 A 
ATOM      3  N   UNL     1       3.112   2.926  17.442  0.00  0.00    +0.000 NA
ATOM      4  C   UNL     1       2.591   3.576  18.520  0.00  0.00    +0.000 A 
ATOM      5  C   UNL     1       1.351   3.369  19.148  0.00  0.00    +0.000 A 
ATOM      6  C   UNL     1       1.003   4.151  20.252  0.00  0.00    +0.000 A 
ATOM      7  C   UNL     1       1.867   5.140  20.712  0.00  0.00    +0.000 A 
ATOM      8  C   UNL     1       3.096   5.376  20.083  0.00  0.00    +0.000 A 
ATOM      9  C   UNL     1       3.462   4.558  18.996  0.00  0.00    +0.000 A 
ATOM     10  N   UNL     1       4.570   4.501  18.133  0.00  0.00    +0.000 N 
ATOM     11  H   UNL     1       4.875   2.075  15.925  0.00  0.00    +0.000 HD
ATOM     12  H   UNL     1       6.166   2.926  16.603  0.00  0.00    +0.000 HD
ENDROOT
BRANCH  10  13
ATOM     13  C   UNL     1       5.734   5.349  18.191  0.00  0.00    +0.000 A 
ATOM     14  C   UNL     1       6.625   5.146  19.268  0.00  0.00    +0.000 A 
ATOM     15  C   UNL     1       7.748   5.955  19.457  0.00  0.00    +0.000 A 
ATOM     16  C   UNL     1       8.039   6.949  18.540  0.00  0.00    +0.000 A 
ATOM     17  C   UNL     1       7.200   7.136  17.444  0.00  0.00    +0.000 A 
ATOM     18  C   UNL     1       6.019   6.377  17.258  0.00  0.00    +0.000 A 
BRANCH  18  19
ATOM     19  C   UNL     1       5.153   6.757  16.074  0.00  0.00    +0.000 C 
BRANCH  19  20
ATOM     20  O   UNL     1       5.439   5.939  14.939  0.00  0.00    +0.000 OA
ATOM     21  H   UNL     1       4.583   5.593  14.627  0.00  0.00    +0.000 HD
ENDBRANCH  19  20
ENDBRANCH  18  19
ENDBRANCH  10  13
TORSDOF 3
ENDMDL
MODEL 3
REMARK VINA RESULT:      -7.4      1.227      1.501
REMARK  Name = 
REMARK  3 active torsions:
REMARK  status: ('A' for Active; 'I' for Inactive)
REMARK    1  A    between atoms: N_10  and  C_11
REMARK    2  A    between atoms: C_16  and  C_17
REMARK    3  A    between atoms: C_17  and  O_18
REMARK                            x       y       z     vdW  Elec       q    Type
REMARK                         _______ _______ _______ _____ _____    ______ ____
ROOT
ATOM      1  N   UNL     1       5.170   3.129  19.323  0.00  0.00    +0.000 N 
ATOM      2  C   UNL     1       4.418   4.230  19.109  0.00  0.00    +0.000 A 
ATOM      3  N   UNL     1       3.521   4.642  19.969  0.00  0.00    +0.000 NA
ATOM      4  C   UNL     1       3.096   5.851  19.506  0.00  0.00    +0.000 A 
ATOM      5  C   UNL     1       2.162   6.727  20.082  0.00  0.00    +0.000 A 
ATOM      6  C   UNL     1       1.864   7.931  19.440  0.00  0.00    +0.000 A 
ATOM      7  C   UNL     1       2.470   8.249  18.229  0.00  0.00    +0.000 A 
ATOM      8  C   UNL     1       3.386   7.376  17.628  0.00  0.00    +0.000 A 
ATOM      9  C   UNL     1       3.716   6.182  18.300  0.00  0.00    +0.000 A 
ATOM     10  N   UNL     1       4.553   5.090  18.016  0.00  0.00    +0.000 N 
ATOM     11  H   UNL     1       5.050   2.712  20.242  0.00  0.00    +0.000 HD
ATOM     12  H   UNL     1       6.144   3.137  19.029  0.00  0.00    +0.000 HD
ENDROOT
BRANCH  10  13
ATOM     13  C   UNL     1       5.386   4.940  16.848  0.00  0.00    +0.000 A 
ATOM     14  C   UNL     1       4.784   4.392  15.694  0.00  0.00    +0.000 A 
ATOM     15  C   UNL     1       5.515   4.143  14.531  0.00  0.00    +0.000 A 
ATOM     16  C   UNL     1       6.853   4.488  14.475  0.00  0.00    +0.000 A 
ATOM     17  C   UNL     1       7.456   5.074  15.585  0.00  0.00    +0.000 A 
ATOM     18  C   UNL     1       6.761   5.282  16.801  0.00  0.00    +0.000 A 
BRANCH  18  19
ATOM     19  C   UNL     1       7.571   5.837  17.954  0.00  0.00    +0.000 C 
BRANCH  19  20
ATOM     20  O   UNL     1       7.867   4.823  18.915  0.00  0.00    +0.000 OA
ATOM     21  H   UNL     1       8.104   5.287  19.739  0.00  0.00    +0.000 HD
ENDBRANCH  19  20
ENDBRANCH  18  19
ENDBRANCH  10  13
TORSDOF 3
ENDMDL
MODEL 4
REMARK VINA RESULT:      -7.3      1.486      2.549
REMARK  Name = 
REMARK  3 active torsions:
REMARK  status: ('A' for Active; 'I' for Inactive)
REMARK    1  A    between atoms: N_10  and  C_11
REMARK    2  A    between atoms: C_16  and  C_17
REMARK    3  A    between atoms: C_17  and  O_18
REMARK                            x       y       z     vdW  Elec       q    Type
REMARK                         _______ _______ _______ _____ _____    ______ ____
ROOT
ATOM      1  N   UNL     1       3.443   7.603  17.716  0.00  0.00    +0.000 N 
ATOM      2  C   UNL     1       3.181   6.498  18.447  0.00  0.00    +0.000 A 
ATOM      3  N   UNL     1       2.204   6.451  19.317  0.00  0.00    +0.000 NA
ATOM      4  C   UNL     1       2.136   5.152  19.723  0.00  0.00    +0.000 A 
ATOM      5  C   UNL     1       1.234   4.565  20.626  0.00  0.00    +0.000 A 
ATOM      6  C   UNL     1       1.336   3.201  20.908  0.00  0.00    +0.000 A 
ATOM      7  C   UNL     1       2.337   2.435  20.318  0.00  0.00    +0.000 A 
ATOM      8  C   UNL     1       3.260   3.008  19.434  0.00  0.00    +0.000 A 
ATOM      9  C   UNL     1       3.128   4.376  19.119  0.00  0.00    +0.000 A 
ATOM     10  N   UNL     1       3.845   5.276  18.313  0.00  0.00    +0.000 N 
ATOM     11  H   UNL     1       2.763   8.350  17.829  0.00  0.00    +0.000 HD
ATOM     12  H   UNL     1       3.736   7.492  16.749  0.00  0.00    +0.000 HD
ENDROOT
BRANCH  10  13
ATOM     13  C   UNL     1       4.998   4.959  17.507  0.00  0.00    +0.000 A 
ATOM     14  C   UNL     1       4.758   4.492  16.196  0.00  0.00    +0.000 A 
ATOM     15  C   UNL     1       5.799   4.095  15.354  0.00  0.00    +0.000 A 
ATOM     16  C   UNL     1       7.109   4.210  15.783  0.00  0.00    +0.000 A 
ATOM     17  C   UNL     1       7.372   4.714  17.054  0.00  0.00    +0.000 A 
ATOM     18  C   UNL     1       6.338   5.065  17.956  0.00  0.00    +0.000 A 
BRANCH  18  19
ATOM     19  C   UNL     1       6.771   5.505  19.340  0.00  0.00    +0.000 C 
BRANCH  19  20
ATOM     20  O   UNL     1       8.150   5.212  19.569  0.00  0.00    +0.000 OA
ATOM     21  H   UNL     1       8.176   4.347  20.018  0.00  0.00    +0.000 HD
ENDBRANCH  19  20
ENDBRANCH  18  19
ENDBRANCH  10  13
TORSDOF 3
ENDMDL
MODEL 5
REMARK VINA RESULT:      -7.3      1.848      5.314
REMARK  Name = 
REMARK  3 active torsions:
REMARK  status: ('A' for Active; 'I' for Inactive)
REMARK    1  A    between atoms: N_10  and  C_11
REMARK    2  A    between atoms: C_16  and  C_17
REMARK    3  A    between atoms: C_17  and  O_18
REMARK                            x       y       z     vdW  Elec       q    Type
REMARK                         _______ _______ _______ _____ _____    ______ ____
ROOT
ATOM      1  N   UNL     1       7.069   5.306  19.848  0.00  0.00    +0.000 N 
ATOM      2  C   UNL     1       6.721   5.186  18.548  0.00  0.00    +0.000 A 
ATOM      3  N   UNL     1       7.603   5.222  17.582  0.00  0.00    +0.000 NA
ATOM      4  C   UNL     1       6.919   4.899  16.449  0.00  0.00    +0.000 A 
ATOM      5  C   UNL     1       7.412   4.765  15.140  0.00  0.00    +0.000 A 
ATOM      6  C   UNL     1       6.534   4.423  14.108  0.00  0.00    +0.000 A 
ATOM      7  C   UNL     1       5.180   4.240  14.371  0.00  0.00    +0.000 A 
ATOM      8  C   UNL     1       4.667   4.394  15.665  0.00  0.00    +0.000 A 
ATOM      9  C   UNL     1       5.563   4.697  16.711  0.00  0.00    +0.000 A 
ATOM     10  N   UNL     1       5.426   4.932  18.089  0.00  0.00    +0.000 N 
ATOM     11  H   UNL     1       8.072   5.327  20.012  0.00  0.00    +0.000 HD
ATOM     12  H   UNL     1       6.579   4.745  20.540  0.00  0.00    +0.000 HD
ENDROOT
BRANCH  10  13
ATOM     13  C   UNL     1       4.196   4.880  18.841  0.00  0.00    +0.000 A 
ATOM     14  C   UNL     1       3.550   6.108  19.104  0.00  0.00    +0.000 A 
ATOM     15  C   UNL     1       2.391   6.178  19.878  0.00  0.00    +0.000 A 
ATOM     16  C   UNL     1       1.817   5.016  20.361  0.00  0.00    +0.000 A 
ATOM     17  C   UNL     1       2.410   3.789  20.073  0.00  0.00    +0.000 A 
ATOM     18  C   UNL     1       3.621   3.687  19.346  0.00  0.00    +0.000 A 
BRANCH  18  19
ATOM     19  C   UNL     1       4.201   2.296  19.194  0.00  0.00    +0.000 C 
BRANCH  19  20
ATOM     20  O   UNL     1       5.208   2.044  20.175  0.00  0.00    +0.000 OA
ATOM     21  H   UNL     1       5.982   2.576  19.917  0.00  0.00    +0.000 HD
ENDBRANCH  19  20
ENDBRANCH  18  19
ENDBRANCH  10  13
TORSDOF 3
ENDMDL
MODEL 6
REMARK VINA RESULT:      -7.0      2.417      5.418
REMARK  Name = 
REMARK  3 active torsions:
REMARK  status: ('A' for Active; 'I' for Inactive)
REMARK    1  A    between atoms: N_10  and  C_11
REMARK    2  A    between atoms: C_16  and  C_17
REMARK    3  A    between atoms: C_17  and  O_18
REMARK                            x       y       z     vdW  Elec       q    Type
REMARK                         _______ _______ _______ _____ _____    ______ ____
ROOT
ATOM      1  N   UNL     1       5.956   4.582  19.602  0.00  0.00    +0.000 N 
ATOM      2  C   UNL     1       5.957   4.600  18.252  0.00  0.00    +0.000 A 
ATOM      3  N   UNL     1       6.989   5.008  17.559  0.00  0.00    +0.000 NA
ATOM      4  C   UNL     1       6.695   4.723  16.259  0.00  0.00    +0.000 A 
ATOM      5  C   UNL     1       7.489   4.932  15.119  0.00  0.00    +0.000 A 
ATOM      6  C   UNL     1       6.996   4.564  13.864  0.00  0.00    +0.000 A 
ATOM      7  C   UNL     1       5.722   4.018  13.743  0.00  0.00    +0.000 A 
ATOM      8  C   UNL     1       4.908   3.826  14.866  0.00  0.00    +0.000 A 
ATOM      9  C   UNL     1       5.425   4.158  16.135  0.00  0.00    +0.000 A 
ATOM     10  N   UNL     1       4.920   4.120  17.446  0.00  0.00    +0.000 N 
ATOM     11  H   UNL     1       6.850   4.818  20.025  0.00  0.00    +0.000 HD
ATOM     12  H   UNL     1       5.495   3.813  20.082  0.00  0.00    +0.000 HD
ENDROOT
BRANCH  10  13
ATOM     13  C   UNL     1       3.616   3.649  17.840  0.00  0.00    +0.000 A 
ATOM     14  C   UNL     1       2.531   4.535  17.663  0.00  0.00    +0.000 A 
ATOM     15  C   UNL     1       1.237   4.204  18.072  0.00  0.00    +0.000 A 
ATOM     16  C   UNL     1       0.987   2.958  18.615  0.00  0.00    +0.000 A 
ATOM     17  C   UNL     1       2.033   2.049  18.755  0.00  0.00    +0.000 A 
ATOM     18  C   UNL     1       3.368   2.375  18.411  0.00  0.00    +0.000 A 
BRANCH  18  19
ATOM     19  C   UNL     1       4.417   1.324  18.710  0.00  0.00    +0.000 C 
BRANCH  19  20
ATOM     20  O   UNL     1       5.126   1.627  19.912  0.00  0.00    +0.000 OA
ATOM     21  H   UNL     1       5.176   2.598  19.965  0.00  0.00    +0.000 HD
ENDBRANCH  19  20
ENDBRANCH  18  19
ENDBRANCH  10  13
TORSDOF 3
ENDMDL
MODEL 7
REMARK VINA RESULT:      -6.9      2.174      5.390
REMARK  Name = 
REMARK  3 active torsions:
REMARK  status: ('A' for Active; 'I' for Inactive)
REMARK    1  A    between atoms: N_10  and  C_11
REMARK    2  A    between atoms: C_16  and  C_17
REMARK    3  A    between atoms: C_17  and  O_18
REMARK                            x       y       z     vdW  Elec       q    Type
REMARK                         _______ _______ _______ _____ _____    ______ ____
ROOT
ATOM      1  N   UNL     1       7.274   5.330  19.746  0.00  0.00    +0.000 N 
ATOM      2  C   UNL     1       6.869   5.169  18.468  0.00  0.00    +0.000 A 
ATOM      3  N   UNL     1       7.661   5.395  17.450  0.00  0.00    +0.000 NA
ATOM      4  C   UNL     1       6.978   4.967  16.352  0.00  0.00    +0.000 A 
ATOM      5  C   UNL     1       7.399   4.956  15.012  0.00  0.00    +0.000 A 
ATOM      6  C   UNL     1       6.538   4.469  14.025  0.00  0.00    +0.000 A 
ATOM      7  C   UNL     1       5.265   4.021  14.366  0.00  0.00    +0.000 A 
ATOM      8  C   UNL     1       4.819   4.047  15.693  0.00  0.00    +0.000 A 
ATOM      9  C   UNL     1       5.707   4.499  16.690  0.00  0.00    +0.000 A 
ATOM     10  N   UNL     1       5.620   4.676  18.081  0.00  0.00    +0.000 N 
ATOM     11  H   UNL     1       8.263   5.543  19.848  0.00  0.00    +0.000 HD
ATOM     12  H   UNL     1       6.948   4.672  20.449  0.00  0.00    +0.000 HD
ENDROOT
BRANCH  10  13
ATOM     13  C   UNL     1       4.477   4.372  18.906  0.00  0.00    +0.000 A 
ATOM     14  C   UNL     1       4.466   3.116  19.553  0.00  0.00    +0.000 A 
ATOM     15  C   UNL     1       3.378   2.694  20.320  0.00  0.00    +0.000 A 
ATOM     16  C   UNL     1       2.300   3.540  20.506  0.00  0.00    +0.000 A 
ATOM     17  C   UNL     1       2.310   4.801  19.917  0.00  0.00    +0.000 A 
ATOM     18  C   UNL     1       3.367   5.236  19.080  0.00  0.00    +0.000 A 
BRANCH  18  19
ATOM     19  C   UNL     1       3.196   6.593  18.429  0.00  0.00    +0.000 C 
BRANCH  19  20
ATOM     20  O   UNL     1       2.409   7.464  19.242  0.00  0.00    +0.000 OA
ATOM     21  H   UNL     1       2.375   8.319  18.776  0.00  0.00    +0.000 HD
ENDBRANCH  19  20
ENDBRANCH  18  19
ENDBRANCH  10  13
TORSDOF 3
ENDMDL
MODEL 8
REMARK VINA RESULT:      -6.9      2.199      5.374
REMARK  Name = 
REMARK  3 active torsions:
REMARK  status: ('A' for Active; 'I' for Inactive)
REMARK    1  A    between atoms: N_10  and  C_11
REMARK    2  A    between atoms: C_16  and  C_17
REMARK    3  A    between atoms: C_17  and  O_18
REMARK                            x       y       z     vdW  Elec       q    Type
REMARK                         _______ _______ _______ _____ _____    ______ ____
ROOT
ATOM      1  N   UNL     1       6.035   4.851  19.607  0.00  0.00    +0.000 N 
ATOM      2  C   UNL     1       6.027   4.826  18.257  0.00  0.00    +0.000 A 
ATOM      3  N   UNL     1       7.042   5.243  17.543  0.00  0.00    +0.000 NA
ATOM      4  C   UNL     1       6.748   4.908  16.256  0.00  0.00    +0.000 A 
ATOM      5  C   UNL     1       7.528   5.104  15.104  0.00  0.00    +0.000 A 
ATOM      6  C   UNL     1       7.038   4.682  13.865  0.00  0.00    +0.000 A 
ATOM      7  C   UNL     1       5.779   4.095  13.771  0.00  0.00    +0.000 A 
ATOM      8  C   UNL     1       4.979   3.915  14.906  0.00  0.00    +0.000 A 
ATOM      9  C   UNL     1       5.494   4.302  16.159  0.00  0.00    +0.000 A 
ATOM     10  N   UNL     1       5.000   4.291  17.475  0.00  0.00    +0.000 N 
ATOM     11  H   UNL     1       6.925   5.127  20.015  0.00  0.00    +0.000 HD
ATOM     12  H   UNL     1       5.601   4.084  20.114  0.00  0.00    +0.000 HD
ENDROOT
BRANCH  10  13
ATOM     13  C   UNL     1       3.713   3.794  17.893  0.00  0.00    +0.000 A 
ATOM     14  C   UNL     1       3.502   2.400  17.806  0.00  0.00    +0.000 A 
ATOM     15  C   UNL     1       2.272   1.821  18.123  0.00  0.00    +0.000 A 
ATOM     16  C   UNL     1       1.240   2.615  18.589  0.00  0.00    +0.000 A 
ATOM     17  C   UNL     1       1.440   3.986  18.729  0.00  0.00    +0.000 A 
ATOM     18  C   UNL     1       2.654   4.614  18.356  0.00  0.00    +0.000 A 
BRANCH  18  19
ATOM     19  C   UNL     1       2.694   6.124  18.470  0.00  0.00    +0.000 C 
BRANCH  19  20
ATOM     20  O   UNL     1       3.238   6.535  19.724  0.00  0.00    +0.000 OA
ATOM     21  H   UNL     1       4.075   6.993  19.524  0.00  0.00    +0.000 HD
ENDBRANCH  19  20
ENDBRANCH  18  19
ENDBRANCH  10  13
TORSDOF 3
ENDMDL
MODEL 9
REMARK VINA RESULT:      -6.9      1.286      1.465
REMARK  Name = 
REMARK  3 active torsions:
REMARK  status: ('A' for Active; 'I' for Inactive)
REMARK    1  A    between atoms: N_10  and  C_11
REMARK    2  A    between atoms: C_16  and  C_17
REMARK    3  A    between atoms: C_17  and  O_18
REMARK                            x       y       z     vdW  Elec       q    Type
REMARK                         _______ _______ _______ _____ _____    ______ ____
ROOT
ATOM      1  N   UNL     1       4.210   1.725  17.821  0.00  0.00    +0.000 N 
ATOM      2  C   UNL     1       3.721   2.952  18.104  0.00  0.00    +0.000 A 
ATOM      3  N   UNL     1       2.821   3.148  19.034  0.00  0.00    +0.000 NA
ATOM      4  C   UNL     1       2.703   4.500  19.151  0.00  0.00    +0.000 A 
ATOM      5  C   UNL     1       1.893   5.232  20.034  0.00  0.00    +0.000 A 
ATOM      6  C   UNL     1       1.920   6.628  19.993  0.00  0.00    +0.000 A 
ATOM      7  C   UNL     1       2.725   7.287  19.068  0.00  0.00    +0.000 A 
ATOM      8  C   UNL     1       3.521   6.573  18.164  0.00  0.00    +0.000 A 
ATOM      9  C   UNL     1       3.523   5.165  18.238  0.00  0.00    +0.000 A 
ATOM     10  N   UNL     1       4.159   4.141  17.516  0.00  0.00    +0.000 N 
ATOM     11  H   UNL     1       3.895   0.993  18.452  0.00  0.00    +0.000 HD
ATOM     12  H   UNL     1       5.195   1.632  17.587  0.00  0.00    +0.000 HD
ENDROOT
BRANCH  10  13
ATOM     13  C   UNL     1       5.087   4.321  16.427  0.00  0.00    +0.000 A 
ATOM     14  C   UNL     1       4.573   4.203  15.117  0.00  0.00    +0.000 A 
ATOM     15  C   UNL     1       5.396   4.293  13.993  0.00  0.00    +0.000 A 
ATOM     16  C   UNL     1       6.744   4.559  14.149  0.00  0.00    +0.000 A 
ATOM     17  C   UNL     1       7.264   4.727  15.430  0.00  0.00    +0.000 A 
ATOM     18  C   UNL     1       6.471   4.579  16.593  0.00  0.00    +0.000 A 
BRANCH  18  19
ATOM     19  C   UNL     1       7.193   4.691  17.921  0.00  0.00    +0.000 C 
BRANCH  19  20
ATOM     20  O   UNL     1       8.456   4.028  17.882  0.00  0.00    +0.000 OA
ATOM     21  H   UNL     1       8.526   3.521  18.711  0.00  0.00    +0.000 HD
ENDBRANCH  19  20
ENDBRANCH  18  19
ENDBRANCH  10  13
TORSDOF 3
ENDMDL
