MODEL 1
REMARK VINA RESULT:      -7.6      0.000      0.000
REMARK  Name = 
REMARK  8 active torsions:
REMARK  status: ('A' for Active; 'I' for Inactive)
REMARK    1  A    between atoms: C_1  and  O_2
REMARK    2  A    between atoms: O_2  and  C_3
REMARK    3  A    between atoms: C_7  and  C_8
REMARK    4  A    between atoms: C_8  and  N_9
REMARK    5  A    between atoms: N_9  and  C_10
REMARK    6  A    between atoms: C_12  and  C_13
REMARK    7  A    between atoms: C_18  and  O_19
REMARK    8  A    between atoms: O_19  and  C_20
REMARK                            x       y       z     vdW  Elec       q    Type
REMARK                         _______ _______ _______ _____ _____    ______ ____
ROOT
ATOM      1  C   UNL     1       3.063   5.852  17.853  0.00  0.00    +0.000 A 
ATOM      2  C   UNL     1       2.535   4.555  17.824  0.00  0.00    +0.000 A 
ATOM      3  C   UNL     1       3.245   3.668  18.608  0.00  0.00    +0.000 A 
ATOM      4  C   UNL     1       3.017   3.652  20.108  0.00  0.00    +0.000 C 
ATOM      5  N   UNL     1       4.554   3.563  18.378  0.00  0.00    +0.000 NA
ATOM      6  C   UNL     1       5.173   4.686  18.057  0.00  0.00    +0.000 A 
ATOM      7  C   UNL     1       6.542   4.614  18.196  0.00  0.00    +0.000 A 
ATOM      8  C   UNL     1       7.349   5.674  17.896  0.00  0.00    +0.000 A 
ATOM      9  C   UNL     1       6.795   6.812  17.327  0.00  0.00    +0.000 A 
ATOM     10  C   UNL     1       5.390   6.965  17.280  0.00  0.00    +0.000 A 
ATOM     11  C   UNL     1       4.515   5.907  17.727  0.00  0.00    +0.000 A 
ENDROOT
BRANCH   1  12
ATOM     12  N   UNL     1       2.271   6.617  18.729  0.00  0.00    +0.000 N 
ATOM     13  H   UNL     1       1.300   6.618  18.425  0.00  0.00    +0.000 HD
BRANCH  12  14
ATOM     14  C   UNL     1       2.347   7.097  20.097  0.00  0.00    +0.000 C 
BRANCH  14  19
ATOM     15  C   UNL     1       0.421   9.890  21.881  0.00  0.00    +0.000 A 
ATOM     16  C   UNL     1       0.125  10.740  20.818  0.00  0.00    +0.000 A 
ATOM     17  C   UNL     1       0.506  10.396  19.518  0.00  0.00    +0.000 A 
ATOM     18  C   UNL     1       1.211   9.211  19.280  0.00  0.00    +0.000 A 
ATOM     19  C   UNL     1       1.557   8.364  20.346  0.00  0.00    +0.000 A 
ATOM     20  C   UNL     1       1.123   8.712  21.634  0.00  0.00    +0.000 A 
BRANCH  15  22
ATOM     21  C   UNL     1      -1.237  11.031  23.127  0.00  0.00    +0.000 C 
ATOM     22  O   UNL     1      -0.015  10.296  23.113  0.00  0.00    +0.000 OA
ENDBRANCH  15  22
ENDBRANCH  14  19
ENDBRANCH  12  14
ENDBRANCH   1  12
BRANCH   9  23
ATOM     23  O   UNL     1       7.736   7.727  16.945  0.00  0.00    +0.000 OA
ATOM     24  C   UNL     1       7.993   8.784  17.861  0.00  0.00    +0.000 C 
ENDBRANCH   9  23
TORSDOF 5
ENDMDL
MODEL 2
REMARK VINA RESULT:      -7.4      3.457      4.787
REMARK  Name = 
REMARK  8 active torsions:
REMARK  status: ('A' for Active; 'I' for Inactive)
REMARK    1  A    between atoms: C_1  and  O_2
REMARK    2  A    between atoms: O_2  and  C_3
REMARK    3  A    between atoms: C_7  and  C_8
REMARK    4  A    between atoms: C_8  and  N_9
REMARK    5  A    between atoms: N_9  and  C_10
REMARK    6  A    between atoms: C_12  and  C_13
REMARK    7  A    between atoms: C_18  and  O_19
REMARK    8  A    between atoms: O_19  and  C_20
REMARK                            x       y       z     vdW  Elec       q    Type
REMARK                         _______ _______ _______ _____ _____    ______ ____
ROOT
ATOM      1  C   UNL     1       5.340   4.277  16.765  0.00  0.00    +0.000 A 
ATOM      2  C   UNL     1       6.298   4.744  17.675  0.00  0.00    +0.000 A 
ATOM      3  C   UNL     1       6.992   5.841  17.208  0.00  0.00    +0.000 A 
ATOM      4  C   UNL     1       6.352   7.215  17.283  0.00  0.00    +0.000 C 
ATOM      5  N   UNL     1       7.601   5.722  16.027  0.00  0.00    +0.000 NA
ATOM      6  C   UNL     1       6.958   5.006  15.121  0.00  0.00    +0.000 A 
ATOM      7  C   UNL     1       7.415   5.214  13.837  0.00  0.00    +0.000 A 
ATOM      8  C   UNL     1       6.880   4.549  12.770  0.00  0.00    +0.000 A 
ATOM      9  C   UNL     1       5.938   3.556  12.990  0.00  0.00    +0.000 A 
ATOM     10  C   UNL     1       5.364   3.399  14.273  0.00  0.00    +0.000 A 
ATOM     11  C   UNL     1       5.817   4.194  15.389  0.00  0.00    +0.000 A 
ENDROOT
BRANCH   1  12
ATOM     12  N   UNL     1       4.083   4.747  17.187  0.00  0.00    +0.000 N 
ATOM     13  H   UNL     1       3.480   4.921  16.388  0.00  0.00    +0.000 HD
BRANCH  12  14
ATOM     14  C   UNL     1       3.284   4.721  18.398  0.00  0.00    +0.000 C 
BRANCH  14  19
ATOM     15  C   UNL     1       2.209   8.397  18.247  0.00  0.00    +0.000 A 
ATOM     16  C   UNL     1       1.664   8.576  19.516  0.00  0.00    +0.000 A 
ATOM     17  C   UNL     1       1.681   7.526  20.440  0.00  0.00    +0.000 A 
ATOM     18  C   UNL     1       2.218   6.284  20.086  0.00  0.00    +0.000 A 
ATOM     19  C   UNL     1       2.731   6.073  18.796  0.00  0.00    +0.000 A 
ATOM     20  C   UNL     1       2.741   7.157  17.904  0.00  0.00    +0.000 A 
BRANCH  15  22
ATOM     21  C   UNL     1       1.885  10.734  18.051  0.00  0.00    +0.000 C 
ATOM     22  O   UNL     1       2.173   9.488  17.421  0.00  0.00    +0.000 OA
ENDBRANCH  15  22
ENDBRANCH  14  19
ENDBRANCH  12  14
ENDBRANCH   1  12
BRANCH   9  23
ATOM     23  O   UNL     1       5.603   2.878  11.851  0.00  0.00    +0.000 OA
ATOM     24  C   UNL     1       4.324   3.166  11.301  0.00  0.00    +0.000 C 
ENDBRANCH   9  23
TORSDOF 5
ENDMDL
MODEL 3
REMARK VINA RESULT:      -7.4      1.134      1.413
REMARK  Name = 
REMARK  8 active torsions:
REMARK  status: ('A' for Active; 'I' for Inactive)
REMARK    1  A    between atoms: C_1  and  O_2
REMARK    2  A    between atoms: O_2  and  C_3
REMARK    3  A    between atoms: C_7  and  C_8
REMARK    4  A    between atoms: C_8  and  N_9
REMARK    5  A    between atoms: N_9  and  C_10
REMARK    6  A    between atoms: C_12  and  C_13
REMARK    7  A    between atoms: C_18  and  O_19
REMARK    8  A    between atoms: O_19  and  C_20
REMARK                            x       y       z     vdW  Elec       q    Type
REMARK                         _______ _______ _______ _____ _____    ______ ____
ROOT
ATOM      1  C   UNL     1       2.717   6.429  17.857  0.00  0.00    +0.000 A 
ATOM      2  C   UNL     1       2.008   5.272  18.204  0.00  0.00    +0.000 A 
ATOM      3  C   UNL     1       2.504   4.656  19.334  0.00  0.00    +0.000 A 
ATOM      4  C   UNL     1       2.141   5.204  20.702  0.00  0.00    +0.000 C 
ATOM      5  N   UNL     1       3.799   4.336  19.338  0.00  0.00    +0.000 NA
ATOM      6  C   UNL     1       4.604   5.197  18.738  0.00  0.00    +0.000 A 
ATOM      7  C   UNL     1       5.929   5.034  19.080  0.00  0.00    +0.000 A 
ATOM      8  C   UNL     1       6.908   5.823  18.548  0.00  0.00    +0.000 A 
ATOM      9  C   UNL     1       6.583   6.733  17.552  0.00  0.00    +0.000 A 
ATOM     10  C   UNL     1       5.226   7.007  17.262  0.00  0.00    +0.000 A 
ATOM     11  C   UNL     1       4.167   6.280  17.920  0.00  0.00    +0.000 A 
ENDROOT
BRANCH   1  12
ATOM     12  N   UNL     1       1.971   7.537  18.298  0.00  0.00    +0.000 N 
ATOM     13  H   UNL     1       1.649   7.394  19.252  0.00  0.00    +0.000 HD
BRANCH  12  14
ATOM     14  C   UNL     1       1.825   8.937  17.944  0.00  0.00    +0.000 C 
BRANCH  14  19
ATOM     15  C   UNL     1       0.095  10.517  20.978  0.00  0.00    +0.000 A 
ATOM     16  C   UNL     1      -1.019  11.104  20.383  0.00  0.00    +0.000 A 
ATOM     17  C   UNL     1      -1.240  10.956  19.011  0.00  0.00    +0.000 A 
ATOM     18  C   UNL     1      -0.330  10.243  18.223  0.00  0.00    +0.000 A 
ATOM     19  C   UNL     1       0.822   9.682  18.798  0.00  0.00    +0.000 A 
ATOM     20  C   UNL     1       0.995   9.809  20.185  0.00  0.00    +0.000 A 
BRANCH  15  22
ATOM     21  C   UNL     1      -0.009   9.532  23.129  0.00  0.00    +0.000 C 
ATOM     22  O   UNL     1       0.214  10.692  22.330  0.00  0.00    +0.000 OA
ENDBRANCH  15  22
ENDBRANCH  14  19
ENDBRANCH  12  14
ENDBRANCH   1  12
BRANCH   9  23
ATOM     23  O   UNL     1       7.680   7.344  17.011  0.00  0.00    +0.000 OA
ATOM     24  C   UNL     1       8.115   8.536  17.654  0.00  0.00    +0.000 C 
ENDBRANCH   9  23
TORSDOF 5
ENDMDL
MODEL 4
REMARK VINA RESULT:      -7.4      3.781      5.501
REMARK  Name = 
REMARK  8 active torsions:
REMARK  status: ('A' for Active; 'I' for Inactive)
REMARK    1  A    between atoms: C_1  and  O_2
REMARK    2  A    between atoms: O_2  and  C_3
REMARK    3  A    between atoms: C_7  and  C_8
REMARK    4  A    between atoms: C_8  and  N_9
REMARK    5  A    between atoms: N_9  and  C_10
REMARK    6  A    between atoms: C_12  and  C_13
REMARK    7  A    between atoms: C_18  and  O_19
REMARK    8  A    between atoms: O_19  and  C_20
REMARK                            x       y       z     vdW  Elec       q    Type
REMARK                         _______ _______ _______ _____ _____    ______ ____
ROOT
ATOM      1  C   UNL     1       5.061   5.155  16.793  0.00  0.00    +0.000 A 
ATOM      2  C   UNL     1       6.048   5.163  17.787  0.00  0.00    +0.000 A 
ATOM      3  C   UNL     1       7.240   5.710  17.358  0.00  0.00    +0.000 A 
ATOM      4  C   UNL     1       7.387   7.220  17.297  0.00  0.00    +0.000 C 
ATOM      5  N   UNL     1       7.793   5.187  16.263  0.00  0.00    +0.000 NA
ATOM      6  C   UNL     1       6.948   4.808  15.319  0.00  0.00    +0.000 A 
ATOM      7  C   UNL     1       7.546   4.632  14.090  0.00  0.00    +0.000 A 
ATOM      8  C   UNL     1       6.834   4.227  12.998  0.00  0.00    +0.000 A 
ATOM      9  C   UNL     1       5.502   3.869  13.149  0.00  0.00    +0.000 A 
ATOM     10  C   UNL     1       4.829   4.147  14.361  0.00  0.00    +0.000 A 
ATOM     11  C   UNL     1       5.536   4.711  15.487  0.00  0.00    +0.000 A 
ENDROOT
BRANCH   1  12
ATOM     12  N   UNL     1       4.192   6.232  17.044  0.00  0.00    +0.000 N 
ATOM     13  H   UNL     1       4.045   6.778  16.199  0.00  0.00    +0.000 HD
BRANCH  12  14
ATOM     14  C   UNL     1       3.185   6.587  18.028  0.00  0.00    +0.000 C 
BRANCH  14  19
ATOM     15  C   UNL     1       1.784   3.999  20.485  0.00  0.00    +0.000 A 
ATOM     16  C   UNL     1       1.000   3.217  19.641  0.00  0.00    +0.000 A 
ATOM     17  C   UNL     1       0.955   3.492  18.271  0.00  0.00    +0.000 A 
ATOM     18  C   UNL     1       1.673   4.571  17.744  0.00  0.00    +0.000 A 
ATOM     19  C   UNL     1       2.432   5.399  18.588  0.00  0.00    +0.000 A 
ATOM     20  C   UNL     1       2.495   5.072  19.951  0.00  0.00    +0.000 A 
BRANCH  15  22
ATOM     21  C   UNL     1       1.866   2.238  22.065  0.00  0.00    +0.000 C 
ATOM     22  O   UNL     1       1.787   3.638  21.805  0.00  0.00    +0.000 OA
ENDBRANCH  15  22
ENDBRANCH  14  19
ENDBRANCH  12  14
ENDBRANCH   1  12
BRANCH   9  23
ATOM     23  O   UNL     1       4.959   3.345  12.009  0.00  0.00    +0.000 OA
ATOM     24  C   UNL     1       5.619   2.209  11.464  0.00  0.00    +0.000 C 
ENDBRANCH   9  23
TORSDOF 5
ENDMDL
MODEL 5
REMARK VINA RESULT:      -7.3      1.149      1.588
REMARK  Name = 
REMARK  8 active torsions:
REMARK  status: ('A' for Active; 'I' for Inactive)
REMARK    1  A    between atoms: C_1  and  O_2
REMARK    2  A    between atoms: O_2  and  C_3
REMARK    3  A    between atoms: C_7  and  C_8
REMARK    4  A    between atoms: C_8  and  N_9
REMARK    5  A    between atoms: N_9  and  C_10
REMARK    6  A    between atoms: C_12  and  C_13
REMARK    7  A    between atoms: C_18  and  O_19
REMARK    8  A    between atoms: O_19  and  C_20
REMARK                            x       y       z     vdW  Elec       q    Type
REMARK                         _______ _______ _______ _____ _____    ______ ____
ROOT
ATOM      1  C   UNL     1       3.734   5.715  17.503  0.00  0.00    +0.000 A 
ATOM      2  C   UNL     1       3.402   4.382  17.773  0.00  0.00    +0.000 A 
ATOM      3  C   UNL     1       3.948   3.920  18.952  0.00  0.00    +0.000 A 
ATOM      4  C   UNL     1       3.287   4.279  20.271  0.00  0.00    +0.000 C 
ATOM      5  N   UNL     1       5.269   4.030  19.099  0.00  0.00    +0.000 NA
ATOM      6  C   UNL     1       5.813   5.122  18.589  0.00  0.00    +0.000 A 
ATOM      7  C   UNL     1       7.077   5.380  19.074  0.00  0.00    +0.000 A 
ATOM      8  C   UNL     1       7.801   6.457  18.650  0.00  0.00    +0.000 A 
ATOM      9  C   UNL     1       7.307   7.247  17.622  0.00  0.00    +0.000 A 
ATOM     10  C   UNL     1       5.973   7.084  17.185  0.00  0.00    +0.000 A 
ATOM     11  C   UNL     1       5.140   6.035  17.725  0.00  0.00    +0.000 A 
ENDROOT
BRANCH   1  12
ATOM     12  N   UNL     1       2.630   6.512  17.856  0.00  0.00    +0.000 N 
ATOM     13  H   UNL     1       2.088   6.066  18.592  0.00  0.00    +0.000 HD
BRANCH  12  14
ATOM     14  C   UNL     1       2.238   7.905  17.747  0.00  0.00    +0.000 C 
BRANCH  14  19
ATOM     15  C   UNL     1       0.654  10.334  20.253  0.00  0.00    +0.000 A 
ATOM     16  C   UNL     1       0.683   9.578  21.422  0.00  0.00    +0.000 A 
ATOM     17  C   UNL     1       1.252   8.302  21.418  0.00  0.00    +0.000 A 
ATOM     18  C   UNL     1       1.770   7.765  20.234  0.00  0.00    +0.000 A 
ATOM     19  C   UNL     1       1.708   8.495  19.036  0.00  0.00    +0.000 A 
ATOM     20  C   UNL     1       1.171   9.791  19.080  0.00  0.00    +0.000 A 
BRANCH  15  22
ATOM     21  C   UNL     1      -1.226  11.631  20.878  0.00  0.00    +0.000 C 
ATOM     22  O   UNL     1       0.101  11.582  20.360  0.00  0.00    +0.000 OA
ENDBRANCH  15  22
ENDBRANCH  14  19
ENDBRANCH  12  14
ENDBRANCH   1  12
BRANCH   9  23
ATOM     23  O   UNL     1       8.200   8.194  17.203  0.00  0.00    +0.000 OA
ATOM     24  C   UNL     1       8.415   9.288  18.086  0.00  0.00    +0.000 C 
ENDBRANCH   9  23
TORSDOF 5
ENDMDL
MODEL 6
REMARK VINA RESULT:      -7.3      3.579      5.240
REMARK  Name = 
REMARK  8 active torsions:
REMARK  status: ('A' for Active; 'I' for Inactive)
REMARK    1  A    between atoms: C_1  and  O_2
REMARK    2  A    between atoms: O_2  and  C_3
REMARK    3  A    between atoms: C_7  and  C_8
REMARK    4  A    between atoms: C_8  and  N_9
REMARK    5  A    between atoms: N_9  and  C_10
REMARK    6  A    between atoms: C_12  and  C_13
REMARK    7  A    between atoms: C_18  and  O_19
REMARK    8  A    between atoms: O_19  and  C_20
REMARK                            x       y       z     vdW  Elec       q    Type
REMARK                         _______ _______ _______ _____ _____    ______ ____
ROOT
ATOM      1  C   UNL     1       5.424   3.938  16.260  0.00  0.00    +0.000 A 
ATOM      2  C   UNL     1       6.186   4.487  17.299  0.00  0.00    +0.000 A 
ATOM      3  C   UNL     1       6.742   5.707  16.971  0.00  0.00    +0.000 A 
ATOM      4  C   UNL     1       5.883   6.957  17.034  0.00  0.00    +0.000 C 
ATOM      5  N   UNL     1       7.488   5.762  15.868  0.00  0.00    +0.000 NA
ATOM      6  C   UNL     1       7.074   5.016  14.858  0.00  0.00    +0.000 A 
ATOM      7  C   UNL     1       7.632   5.376  13.650  0.00  0.00    +0.000 A 
ATOM      8  C   UNL     1       7.334   4.709  12.496  0.00  0.00    +0.000 A 
ATOM      9  C   UNL     1       6.545   3.569  12.554  0.00  0.00    +0.000 A 
ATOM     10  C   UNL     1       5.865   3.240  13.750  0.00  0.00    +0.000 A 
ATOM     11  C   UNL     1       6.057   4.021  14.949  0.00  0.00    +0.000 A 
ENDROOT
BRANCH   1  12
ATOM     12  N   UNL     1       4.068   4.179  16.550  0.00  0.00    +0.000 N 
ATOM     13  H   UNL     1       3.622   4.678  15.784  0.00  0.00    +0.000 HD
BRANCH  12  14
ATOM     14  C   UNL     1       3.050   3.633  17.428  0.00  0.00    +0.000 C 
BRANCH  14  19
ATOM     15  C   UNL     1       2.125   6.830  19.329  0.00  0.00    +0.000 A 
ATOM     16  C   UNL     1       1.811   6.320  20.586  0.00  0.00    +0.000 A 
ATOM     17  C   UNL     1       1.938   4.951  20.839  0.00  0.00    +0.000 A 
ATOM     18  C   UNL     1       2.353   4.082  19.824  0.00  0.00    +0.000 A 
ATOM     19  C   UNL     1       2.631   4.574  18.538  0.00  0.00    +0.000 A 
ATOM     20  C   UNL     1       2.538   5.958  18.325  0.00  0.00    +0.000 A 
BRANCH  15  22
ATOM     21  C   UNL     1       2.360   8.709  17.908  0.00  0.00    +0.000 C 
ATOM     22  O   UNL     1       1.997   8.186  19.184  0.00  0.00    +0.000 OA
ENDBRANCH  15  22
ENDBRANCH  14  19
ENDBRANCH  12  14
ENDBRANCH   1  12
BRANCH   9  23
ATOM     23  O   UNL     1       6.454   2.924  11.352  0.00  0.00    +0.000 OA
ATOM     24  C   UNL     1       5.729   1.700  11.349  0.00  0.00    +0.000 C 
ENDBRANCH   9  23
TORSDOF 5
ENDMDL
MODEL 7
REMARK VINA RESULT:      -7.3      3.544      5.499
REMARK  Name = 
REMARK  8 active torsions:
REMARK  status: ('A' for Active; 'I' for Inactive)
REMARK    1  A    between atoms: C_1  and  O_2
REMARK    2  A    between atoms: O_2  and  C_3
REMARK    3  A    between atoms: C_7  and  C_8
REMARK    4  A    between atoms: C_8  and  N_9
REMARK    5  A    between atoms: N_9  and  C_10
REMARK    6  A    between atoms: C_12  and  C_13
REMARK    7  A    between atoms: C_18  and  O_19
REMARK    8  A    between atoms: O_19  and  C_20
REMARK                            x       y       z     vdW  Elec       q    Type
REMARK                         _______ _______ _______ _____ _____    ______ ____
ROOT
ATOM      1  C   UNL     1       5.043   5.888  17.233  0.00  0.00    +0.000 A 
ATOM      2  C   UNL     1       6.038   5.983  18.214  0.00  0.00    +0.000 A 
ATOM      3  C   UNL     1       7.238   6.453  17.720  0.00  0.00    +0.000 A 
ATOM      4  C   UNL     1       7.417   7.943  17.492  0.00  0.00    +0.000 C 
ATOM      5  N   UNL     1       7.770   5.801  16.686  0.00  0.00    +0.000 NA
ATOM      6  C   UNL     1       6.910   5.338  15.795  0.00  0.00    +0.000 A 
ATOM      7  C   UNL     1       7.494   5.014  14.589  0.00  0.00    +0.000 A 
ATOM      8  C   UNL     1       6.763   4.507  13.553  0.00  0.00    +0.000 A 
ATOM      9  C   UNL     1       5.425   4.198  13.750  0.00  0.00    +0.000 A 
ATOM     10  C   UNL     1       4.769   4.623  14.929  0.00  0.00    +0.000 A 
ATOM     11  C   UNL     1       5.497   5.292  15.981  0.00  0.00    +0.000 A 
ENDROOT
BRANCH   1  12
ATOM     12  N   UNL     1       4.199   7.005  17.368  0.00  0.00    +0.000 N 
ATOM     13  H   UNL     1       4.292   7.623  16.566  0.00  0.00    +0.000 HD
BRANCH  12  14
ATOM     14  C   UNL     1       3.004   7.358  18.112  0.00  0.00    +0.000 C 
BRANCH  14  19
ATOM     15  C   UNL     1       1.429   3.914  18.709  0.00  0.00    +0.000 A 
ATOM     16  C   UNL     1       1.141   3.977  20.070  0.00  0.00    +0.000 A 
ATOM     17  C   UNL     1       1.411   5.144  20.790  0.00  0.00    +0.000 A 
ATOM     18  C   UNL     1       1.999   6.244  20.156  0.00  0.00    +0.000 A 
ATOM     19  C   UNL     1       2.338   6.182  18.795  0.00  0.00    +0.000 A 
ATOM     20  C   UNL     1       2.015   5.014  18.087  0.00  0.00    +0.000 A 
BRANCH  15  22
ATOM     21  C   UNL     1       2.203   1.978  17.588  0.00  0.00    +0.000 C 
ATOM     22  O   UNL     1       1.105   2.742  18.082  0.00  0.00    +0.000 OA
ENDBRANCH  15  22
ENDBRANCH  14  19
ENDBRANCH  12  14
ENDBRANCH   1  12
BRANCH   9  23
ATOM     23  O   UNL     1       4.862   3.563  12.678  0.00  0.00    +0.000 OA
ATOM     24  C   UNL     1       5.675   2.599  12.022  0.00  0.00    +0.000 C 
ENDBRANCH   9  23
TORSDOF 5
ENDMDL
MODEL 8
REMARK VINA RESULT:      -7.3      1.088      1.519
REMARK  Name = 
REMARK  8 active torsions:
REMARK  status: ('A' for Active; 'I' for Inactive)
REMARK    1  A    between atoms: C_1  and  O_2
REMARK    2  A    between atoms: O_2  and  C_3
REMARK    3  A    between atoms: C_7  and  C_8
REMARK    4  A    between atoms: C_8  and  N_9
REMARK    5  A    between atoms: N_9  and  C_10
REMARK    6  A    between atoms: C_12  and  C_13
REMARK    7  A    between atoms: C_18  and  O_19
REMARK    8  A    between atoms: O_19  and  C_20
REMARK                            x       y       z     vdW  Elec       q    Type
REMARK                         _______ _______ _______ _____ _____    ______ ____
ROOT
ATOM      1  C   UNL     1       2.825   6.106  17.874  0.00  0.00    +0.000 A 
ATOM      2  C   UNL     1       2.224   4.891  18.229  0.00  0.00    +0.000 A 
ATOM      3  C   UNL     1       2.768   4.334  19.368  0.00  0.00    +0.000 A 
ATOM      4  C   UNL     1       2.347   4.859  20.728  0.00  0.00    +0.000 C 
ATOM      5  N   UNL     1       4.087   4.137  19.381  0.00  0.00    +0.000 NA
ATOM      6  C   UNL     1       4.812   5.063  18.778  0.00  0.00    +0.000 A 
ATOM      7  C   UNL     1       6.144   5.027  19.128  0.00  0.00    +0.000 A 
ATOM      8  C   UNL     1       7.049   5.899  18.594  0.00  0.00    +0.000 A 
ATOM      9  C   UNL     1       6.647   6.765  17.587  0.00  0.00    +0.000 A 
ATOM     10  C   UNL     1       5.273   6.909  17.287  0.00  0.00    +0.000 A 
ATOM     11  C   UNL     1       4.281   6.093  17.947  0.00  0.00    +0.000 A 
ENDROOT
BRANCH   1  12
ATOM     12  N   UNL     1       1.976   7.144  18.301  0.00  0.00    +0.000 N 
ATOM     13  H   UNL     1       1.274   6.789  18.946  0.00  0.00    +0.000 HD
BRANCH  12  14
ATOM     14  C   UNL     1       2.015   8.593  18.379  0.00  0.00    +0.000 C 
BRANCH  14  19
ATOM     15  C   UNL     1       0.154  10.971  20.739  0.00  0.00    +0.000 A 
ATOM     16  C   UNL     1       0.055  10.193  21.890  0.00  0.00    +0.000 A 
ATOM     17  C   UNL     1       0.625   8.917  21.924  0.00  0.00    +0.000 A 
ATOM     18  C   UNL     1       1.273   8.404  20.796  0.00  0.00    +0.000 A 
ATOM     19  C   UNL     1       1.343   9.157  19.612  0.00  0.00    +0.000 A 
ATOM     20  C   UNL     1       0.801  10.451  19.621  0.00  0.00    +0.000 A 
BRANCH  15  22
ATOM     21  C   UNL     1      -1.817  12.248  21.042  0.00  0.00    +0.000 C 
ATOM     22  O   UNL     1      -0.411  12.217  20.808  0.00  0.00    +0.000 OA
ENDBRANCH  15  22
ENDBRANCH  14  19
ENDBRANCH  12  14
ENDBRANCH   1  12
BRANCH   9  23
ATOM     23  O   UNL     1       7.686   7.470  17.046  0.00  0.00    +0.000 OA
ATOM     24  C   UNL     1       7.994   8.711  17.669  0.00  0.00    +0.000 C 
ENDBRANCH   9  23
TORSDOF 5
ENDMDL
MODEL 9
REMARK VINA RESULT:      -7.3      1.397      1.956
REMARK  Name = 
REMARK  8 active torsions:
REMARK  status: ('A' for Active; 'I' for Inactive)
REMARK    1  A    between atoms: C_1  and  O_2
REMARK    2  A    between atoms: O_2  and  C_3
REMARK    3  A    between atoms: C_7  and  C_8
REMARK    4  A    between atoms: C_8  and  N_9
REMARK    5  A    between atoms: N_9  and  C_10
REMARK    6  A    between atoms: C_12  and  C_13
REMARK    7  A    between atoms: C_18  and  O_19
REMARK    8  A    between atoms: O_19  and  C_20
REMARK                            x       y       z     vdW  Elec       q    Type
REMARK                         _______ _______ _______ _____ _____    ______ ____
ROOT
ATOM      1  C   UNL     1       2.970   6.141  18.415  0.00  0.00    +0.000 A 
ATOM      2  C   UNL     1       1.954   5.276  17.989  0.00  0.00    +0.000 A 
ATOM      3  C   UNL     1       2.371   3.966  17.884  0.00  0.00    +0.000 A 
ATOM      4  C   UNL     1       2.476   3.114  19.136  0.00  0.00    +0.000 C 
ATOM      5  N   UNL     1       3.436   3.723  17.118  0.00  0.00    +0.000 NA
ATOM      6  C   UNL     1       4.387   4.641  17.152  0.00  0.00    +0.000 A 
ATOM      7  C   UNL     1       5.595   4.192  16.663  0.00  0.00    +0.000 A 
ATOM      8  C   UNL     1       6.691   5.006  16.606  0.00  0.00    +0.000 A 
ATOM      9  C   UNL     1       6.561   6.347  16.934  0.00  0.00    +0.000 A 
ATOM     10  C   UNL     1       5.374   6.812  17.547  0.00  0.00    +0.000 A 
ATOM     11  C   UNL     1       4.249   5.929  17.748  0.00  0.00    +0.000 A 
ENDROOT
BRANCH   1  12
ATOM     12  N   UNL     1       2.774   6.391  19.785  0.00  0.00    +0.000 N 
ATOM     13  H   UNL     1       3.634   6.721  20.216  0.00  0.00    +0.000 HD
BRANCH  12  14
ATOM     14  C   UNL     1       1.658   6.656  20.675  0.00  0.00    +0.000 C 
BRANCH  14  19
ATOM     15  C   UNL     1       0.933  10.277  19.646  0.00  0.00    +0.000 A 
ATOM     16  C   UNL     1       0.483  10.818  20.847  0.00  0.00    +0.000 A 
ATOM     17  C   UNL     1       0.453  10.031  22.002  0.00  0.00    +0.000 A 
ATOM     18  C   UNL     1       0.847   8.690  21.953  0.00  0.00    +0.000 A 
ATOM     19  C   UNL     1       1.261   8.115  20.740  0.00  0.00    +0.000 A 
ATOM     20  C   UNL     1       1.323   8.940  19.606  0.00  0.00    +0.000 A 
BRANCH  15  22
ATOM     21  C   UNL     1       0.421  12.431  18.808  0.00  0.00    +0.000 C 
ATOM     22  O   UNL     1       0.953  11.129  18.575  0.00  0.00    +0.000 OA
ENDBRANCH  15  22
ENDBRANCH  14  19
ENDBRANCH  12  14
ENDBRANCH   1  12
BRANCH   9  23
ATOM     23  O   UNL     1       7.697   7.068  16.688  0.00  0.00    +0.000 OA
ATOM     24  C   UNL     1       7.955   8.152  17.571  0.00  0.00    +0.000 C 
ENDBRANCH   9  23
TORSDOF 5
ENDMDL
