MODEL 1
REMARK VINA RESULT:      -8.9      0.000      0.000
REMARK  Name = 
REMARK  9 active torsions:
REMARK  status: ('A' for Active; 'I' for Inactive)
REMARK    1  A    between atoms: C_1  and  O_2
REMARK    2  A    between atoms: O_2  and  C_3
REMARK    3  A    between atoms: C_6  and  N_7
REMARK    4  A    between atoms: N_7  and  S_8
REMARK    5  A    between atoms: S_8  and  C_11
REMARK    6  A    between atoms: C_20  and  N_21
REMARK    7  A    between atoms: N_24  and  C_25
REMARK    8  A    between atoms: C_26  and  O_27
REMARK    9  A    between atoms: O_27  and  C_28
REMARK                            x       y       z     vdW  Elec       q    Type
REMARK                         _______ _______ _______ _____ _____    ______ ____
ROOT
ATOM      1  C   UNL     1       2.494   6.726  19.069  0.00  0.00    +0.000 A 
ATOM      2  C   UNL     1       2.723   7.592  18.000  0.00  0.00    +0.000 A 
ATOM      3  C   UNL     1       2.247   8.900  18.018  0.00  0.00    +0.000 A 
ATOM      4  C   UNL     1       1.555   9.337  19.156  0.00  0.00    +0.000 A 
ATOM      5  C   UNL     1       1.328   8.513  20.259  0.00  0.00    +0.000 A 
ATOM      6  C   UNL     1       1.815   7.174  20.220  0.00  0.00    +0.000 A 
ATOM      7  C   UNL     1       0.593   9.291  21.223  0.00  0.00    +0.000 A 
ATOM      8  C   UNL     1       0.062   9.028  22.505  0.00  0.00    +0.000 A 
ATOM      9  C   UNL     1      -0.647  10.032  23.190  0.00  0.00    +0.000 A 
ATOM     10  C   UNL     1      -0.807  11.306  22.650  0.00  0.00    +0.000 A 
ATOM     11  C   UNL     1      -0.313  11.569  21.369  0.00  0.00    +0.000 A 
ATOM     12  C   UNL     1       0.395  10.563  20.680  0.00  0.00    +0.000 A 
ATOM     13  N   UNL     1       0.987  10.566  19.436  0.00  0.00    +0.000 N 
ATOM     14  C   UNL     1       1.029  11.688  18.523  0.00  0.00    +0.000 C 
ENDROOT
BRANCH   1  15
ATOM     15  S   UNL     1       3.228   5.089  18.930  0.00  0.00    +0.000 S 
ATOM     16  O   UNL     1       2.601   4.433  17.828  0.00  0.00    +0.000 OA
ATOM     17  O   UNL     1       3.201   4.521  20.277  0.00  0.00    +0.000 OA
BRANCH  15  18
ATOM     18  N   UNL     1       4.854   5.363  18.555  0.00  0.00    +0.000 N 
ATOM     19  H   UNL     1       5.364   5.925  19.232  0.00  0.00    +0.000 HD
BRANCH  18  23
ATOM     20  C   UNL     1       6.382   4.679  14.691  0.00  0.00    +0.000 A 
ATOM     21  C   UNL     1       5.688   3.659  15.331  0.00  0.00    +0.000 A 
ATOM     22  C   UNL     1       5.171   3.912  16.608  0.00  0.00    +0.000 A 
ATOM     23  C   UNL     1       5.373   5.153  17.229  0.00  0.00    +0.000 A 
ATOM     24  C   UNL     1       6.083   6.125  16.473  0.00  0.00    +0.000 A 
ATOM     25  N   UNL     1       6.553   5.879  15.243  0.00  0.00    +0.000 NA
BRANCH  20  27
ATOM     26  C   UNL     1       6.240   3.527  12.660  0.00  0.00    +0.000 C 
ATOM     27  O   UNL     1       6.975   4.475  13.469  0.00  0.00    +0.000 OA
ENDBRANCH  20  27
BRANCH  24  28
ATOM     28  O   UNL     1       6.337   7.402  16.941  0.00  0.00    +0.000 OA
ATOM     29  C   UNL     1       7.609   7.544  17.641  0.00  0.00    +0.000 C 
ENDBRANCH  24  28
ENDBRANCH  18  23
ENDBRANCH  15  18
ENDBRANCH   1  15
BRANCH  10  30
ATOM     30  N   UNL     1      -1.660  12.235  23.265  0.00  0.00    +0.000 N 
ATOM     31  H   UNL     1      -2.578  12.306  22.840  0.00  0.00    +0.000 HD
ATOM     32  H   UNL     1      -1.702  12.155  24.275  0.00  0.00    +0.000 HD
ENDBRANCH  10  30
TORSDOF 6
ENDMDL
MODEL 2
REMARK VINA RESULT:      -8.8      1.105      1.157
REMARK  Name = 
REMARK  9 active torsions:
REMARK  status: ('A' for Active; 'I' for Inactive)
REMARK    1  A    between atoms: C_1  and  O_2
REMARK    2  A    between atoms: O_2  and  C_3
REMARK    3  A    between atoms: C_6  and  N_7
REMARK    4  A    between atoms: N_7  and  S_8
REMARK    5  A    between atoms: S_8  and  C_11
REMARK    6  A    between atoms: C_20  and  N_21
REMARK    7  A    between atoms: N_24  and  C_25
REMARK    8  A    between atoms: C_26  and  O_27
REMARK    9  A    between atoms: O_27  and  C_28
REMARK                            x       y       z     vdW  Elec       q    Type
REMARK                         _______ _______ _______ _____ _____    ______ ____
ROOT
ATOM      1  C   UNL     1       2.404   7.218  19.083  0.00  0.00    +0.000 A 
ATOM      2  C   UNL     1       2.491   8.085  17.994  0.00  0.00    +0.000 A 
ATOM      3  C   UNL     1       1.870   9.330  18.014  0.00  0.00    +0.000 A 
ATOM      4  C   UNL     1       1.178   9.708  19.174  0.00  0.00    +0.000 A 
ATOM      5  C   UNL     1       1.090   8.883  20.296  0.00  0.00    +0.000 A 
ATOM      6  C   UNL     1       1.724   7.607  20.255  0.00  0.00    +0.000 A 
ATOM      7  C   UNL     1       0.310   9.591  21.279  0.00  0.00    +0.000 A 
ATOM      8  C   UNL     1      -0.137   9.293  22.585  0.00  0.00    +0.000 A 
ATOM      9  C   UNL     1      -0.927  10.223  23.285  0.00  0.00    +0.000 A 
ATOM     10  C   UNL     1      -1.253  11.461  22.734  0.00  0.00    +0.000 A 
ATOM     11  C   UNL     1      -0.842  11.754  21.430  0.00  0.00    +0.000 A 
ATOM     12  C   UNL     1      -0.053  10.823  20.726  0.00  0.00    +0.000 A 
ATOM     13  N   UNL     1       0.486  10.869  19.459  0.00  0.00    +0.000 N 
ATOM     14  C   UNL     1       0.364  11.972  18.530  0.00  0.00    +0.000 C 
ENDROOT
BRANCH   1  15
ATOM     15  S   UNL     1       3.313   5.672  18.938  0.00  0.00    +0.000 S 
ATOM     16  O   UNL     1       2.752   4.950  17.841  0.00  0.00    +0.000 OA
ATOM     17  O   UNL     1       3.361   5.105  20.284  0.00  0.00    +0.000 OA
BRANCH  15  18
ATOM     18  N   UNL     1       4.895   6.124  18.548  0.00  0.00    +0.000 N 
ATOM     19  H   UNL     1       5.250   6.933  19.053  0.00  0.00    +0.000 HD
BRANCH  18  23
ATOM     20  C   UNL     1       6.734   4.756  15.016  0.00  0.00    +0.000 A 
ATOM     21  C   UNL     1       5.572   5.511  14.920  0.00  0.00    +0.000 A 
ATOM     22  C   UNL     1       4.984   5.972  16.106  0.00  0.00    +0.000 A 
ATOM     23  C   UNL     1       5.545   5.658  17.351  0.00  0.00    +0.000 A 
ATOM     24  C   UNL     1       6.744   4.895  17.326  0.00  0.00    +0.000 A 
ATOM     25  N   UNL     1       7.308   4.478  16.185  0.00  0.00    +0.000 NA
BRANCH  20  27
ATOM     26  C   UNL     1       6.341   3.769  12.932  0.00  0.00    +0.000 C 
ATOM     27  O   UNL     1       7.321   4.213  13.899  0.00  0.00    +0.000 OA
ENDBRANCH  20  27
BRANCH  24  28
ATOM     28  O   UNL     1       7.427   4.529  18.472  0.00  0.00    +0.000 OA
ATOM     29  C   UNL     1       7.979   5.649  19.226  0.00  0.00    +0.000 C 
ENDBRANCH  24  28
ENDBRANCH  18  23
ENDBRANCH  15  18
ENDBRANCH   1  15
BRANCH  10  30
ATOM     30  N   UNL     1      -2.180  12.298  23.371  0.00  0.00    +0.000 N 
ATOM     31  H   UNL     1      -2.206  13.246  23.009  0.00  0.00    +0.000 HD
ATOM     32  H   UNL     1      -3.105  11.895  23.472  0.00  0.00    +0.000 HD
ENDBRANCH  10  30
TORSDOF 6
ENDMDL
MODEL 3
REMARK VINA RESULT:      -8.7      3.567      8.786
REMARK  Name = 
REMARK  9 active torsions:
REMARK  status: ('A' for Active; 'I' for Inactive)
REMARK    1  A    between atoms: C_1  and  O_2
REMARK    2  A    between atoms: O_2  and  C_3
REMARK    3  A    between atoms: C_6  and  N_7
REMARK    4  A    between atoms: N_7  and  S_8
REMARK    5  A    between atoms: S_8  and  C_11
REMARK    6  A    between atoms: C_20  and  N_21
REMARK    7  A    between atoms: N_24  and  C_25
REMARK    8  A    between atoms: C_26  and  O_27
REMARK    9  A    between atoms: O_27  and  C_28
REMARK                            x       y       z     vdW  Elec       q    Type
REMARK                         _______ _______ _______ _____ _____    ______ ____
ROOT
ATOM      1  C   UNL     1       1.707   7.261  20.267  0.00  0.00    +0.000 A 
ATOM      2  C   UNL     1       1.445   6.053  20.912  0.00  0.00    +0.000 A 
ATOM      3  C   UNL     1       1.980   4.856  20.444  0.00  0.00    +0.000 A 
ATOM      4  C   UNL     1       2.820   4.899  19.322  0.00  0.00    +0.000 A 
ATOM      5  C   UNL     1       3.131   6.089  18.664  0.00  0.00    +0.000 A 
ATOM      6  C   UNL     1       2.567   7.304  19.151  0.00  0.00    +0.000 A 
ATOM      7  C   UNL     1       4.005   5.750  17.571  0.00  0.00    +0.000 A 
ATOM      8  C   UNL     1       4.639   6.489  16.548  0.00  0.00    +0.000 A 
ATOM      9  C   UNL     1       5.432   5.828  15.593  0.00  0.00    +0.000 A 
ATOM     10  C   UNL     1       5.643   4.452  15.650  0.00  0.00    +0.000 A 
ATOM     11  C   UNL     1       4.996   3.705  16.639  0.00  0.00    +0.000 A 
ATOM     12  C   UNL     1       4.199   4.366  17.595  0.00  0.00    +0.000 A 
ATOM     13  N   UNL     1       3.477   3.878  18.663  0.00  0.00    +0.000 N 
ATOM     14  C   UNL     1       3.400   2.490  19.066  0.00  0.00    +0.000 C 
ENDROOT
BRANCH   1  15
ATOM     15  S   UNL     1       1.001   8.732  21.026  0.00  0.00    +0.000 S 
ATOM     16  O   UNL     1       1.892   9.146  22.062  0.00  0.00    +0.000 OA
ATOM     17  O   UNL     1      -0.398   8.409  21.302  0.00  0.00    +0.000 OA
BRANCH  15  18
ATOM     18  N   UNL     1       0.995   9.900  19.804  0.00  0.00    +0.000 N 
ATOM     19  H   UNL     1       1.862  10.422  19.702  0.00  0.00    +0.000 HD
BRANCH  18  23
ATOM     20  C   UNL     1      -2.561  11.286  18.024  0.00  0.00    +0.000 A 
ATOM     21  C   UNL     1      -1.862  10.251  17.415  0.00  0.00    +0.000 A 
ATOM     22  C   UNL     1      -0.691   9.792  18.032  0.00  0.00    +0.000 A 
ATOM     23  C   UNL     1      -0.229  10.379  19.217  0.00  0.00    +0.000 A 
ATOM     24  C   UNL     1      -1.034  11.418  19.759  0.00  0.00    +0.000 A 
ATOM     25  N   UNL     1      -2.164  11.834  19.172  0.00  0.00    +0.000 NA
BRANCH  20  27
ATOM     26  C   UNL     1      -4.142  11.040  16.318  0.00  0.00    +0.000 C 
ATOM     27  O   UNL     1      -3.676  11.831  17.436  0.00  0.00    +0.000 OA
ENDBRANCH  20  27
BRANCH  24  28
ATOM     28  O   UNL     1      -0.722  12.075  20.936  0.00  0.00    +0.000 OA
ATOM     29  C   UNL     1      -1.616  11.774  22.048  0.00  0.00    +0.000 C 
ENDBRANCH  24  28
ENDBRANCH  18  23
ENDBRANCH  15  18
ENDBRANCH   1  15
BRANCH  10  30
ATOM     30  N   UNL     1       6.289   3.789  14.596  0.00  0.00    +0.000 N 
ATOM     31  H   UNL     1       6.069   2.801  14.525  0.00  0.00    +0.000 HD
ATOM     32  H   UNL     1       6.227   4.267  13.703  0.00  0.00    +0.000 HD
ENDBRANCH  10  30
TORSDOF 6
ENDMDL
MODEL 4
REMARK VINA RESULT:      -8.6      1.030      1.135
REMARK  Name = 
REMARK  9 active torsions:
REMARK  status: ('A' for Active; 'I' for Inactive)
REMARK    1  A    between atoms: C_1  and  O_2
REMARK    2  A    between atoms: O_2  and  C_3
REMARK    3  A    between atoms: C_6  and  N_7
REMARK    4  A    between atoms: N_7  and  S_8
REMARK    5  A    between atoms: S_8  and  C_11
REMARK    6  A    between atoms: C_20  and  N_21
REMARK    7  A    between atoms: N_24  and  C_25
REMARK    8  A    between atoms: C_26  and  O_27
REMARK    9  A    between atoms: O_27  and  C_28
REMARK                            x       y       z     vdW  Elec       q    Type
REMARK                         _______ _______ _______ _____ _____    ______ ____
ROOT
ATOM      1  C   UNL     1       3.001   5.714  18.795  0.00  0.00    +0.000 A 
ATOM      2  C   UNL     1       3.295   6.523  17.698  0.00  0.00    +0.000 A 
ATOM      3  C   UNL     1       2.874   7.848  17.648  0.00  0.00    +0.000 A 
ATOM      4  C   UNL     1       2.171   8.363  18.746  0.00  0.00    +0.000 A 
ATOM      5  C   UNL     1       1.880   7.597  19.876  0.00  0.00    +0.000 A 
ATOM      6  C   UNL     1       2.310   6.239  19.907  0.00  0.00    +0.000 A 
ATOM      7  C   UNL     1       1.154   8.446  20.785  0.00  0.00    +0.000 A 
ATOM      8  C   UNL     1       0.578   8.261  22.061  0.00  0.00    +0.000 A 
ATOM      9  C   UNL     1      -0.105   9.322  22.682  0.00  0.00    +0.000 A 
ATOM     10  C   UNL     1      -0.197  10.577  22.085  0.00  0.00    +0.000 A 
ATOM     11  C   UNL     1       0.342  10.764  20.809  0.00  0.00    +0.000 A 
ATOM     12  C   UNL     1       1.024   9.701  20.183  0.00  0.00    +0.000 A 
ATOM     13  N   UNL     1       1.649   9.625  18.957  0.00  0.00    +0.000 N 
ATOM     14  C   UNL     1       1.763  10.704  18.000  0.00  0.00    +0.000 C 
ENDROOT
BRANCH   1  15
ATOM     15  S   UNL     1       3.667   4.043  18.747  0.00  0.00    +0.000 S 
ATOM     16  O   UNL     1       3.157   3.415  17.570  0.00  0.00    +0.000 OA
ATOM     17  O   UNL     1       3.440   3.481  20.077  0.00  0.00    +0.000 OA
BRANCH  15  18
ATOM     18  N   UNL     1       5.339   4.239  18.585  0.00  0.00    +0.000 N 
ATOM     19  H   UNL     1       5.844   4.373  19.458  0.00  0.00    +0.000 HD
BRANCH  18  23
ATOM     20  C   UNL     1       7.117   5.133  14.874  0.00  0.00    +0.000 A 
ATOM     21  C   UNL     1       6.267   4.038  14.967  0.00  0.00    +0.000 A 
ATOM     22  C   UNL     1       5.671   3.767  16.206  0.00  0.00    +0.000 A 
ATOM     23  C   UNL     1       5.946   4.568  17.322  0.00  0.00    +0.000 A 
ATOM     24  C   UNL     1       6.817   5.670  17.105  0.00  0.00    +0.000 A 
ATOM     25  N   UNL     1       7.363   5.933  15.911  0.00  0.00    +0.000 NA
BRANCH  20  27
ATOM     26  C   UNL     1       7.337   4.588  12.610  0.00  0.00    +0.000 C 
ATOM     27  O   UNL     1       7.789   5.413  13.709  0.00  0.00    +0.000 OA
ENDBRANCH  20  27
BRANCH  24  28
ATOM     28  O   UNL     1       7.162   6.564  18.104  0.00  0.00    +0.000 OA
ATOM     29  C   UNL     1       7.711   7.825  17.619  0.00  0.00    +0.000 C 
ENDBRANCH  24  28
ENDBRANCH  18  23
ENDBRANCH  15  18
ENDBRANCH   1  15
BRANCH  10  30
ATOM     30  N   UNL     1      -1.025  11.566  22.636  0.00  0.00    +0.000 N 
ATOM     31  H   UNL     1      -0.541  12.417  22.904  0.00  0.00    +0.000 HD
ATOM     32  H   UNL     1      -1.868  11.749  22.101  0.00  0.00    +0.000 HD
ENDBRANCH  10  30
TORSDOF 6
ENDMDL
MODEL 5
REMARK VINA RESULT:      -8.5      1.858      3.686
REMARK  Name = 
REMARK  9 active torsions:
REMARK  status: ('A' for Active; 'I' for Inactive)
REMARK    1  A    between atoms: C_1  and  O_2
REMARK    2  A    between atoms: O_2  and  C_3
REMARK    3  A    between atoms: C_6  and  N_7
REMARK    4  A    between atoms: N_7  and  S_8
REMARK    5  A    between atoms: S_8  and  C_11
REMARK    6  A    between atoms: C_20  and  N_21
REMARK    7  A    between atoms: N_24  and  C_25
REMARK    8  A    between atoms: C_26  and  O_27
REMARK    9  A    between atoms: O_27  and  C_28
REMARK                            x       y       z     vdW  Elec       q    Type
REMARK                         _______ _______ _______ _____ _____    ______ ____
ROOT
ATOM      1  C   UNL     1       2.665   4.771  18.992  0.00  0.00    +0.000 A 
ATOM      2  C   UNL     1       2.174   4.605  20.287  0.00  0.00    +0.000 A 
ATOM      3  C   UNL     1       1.674   5.683  21.011  0.00  0.00    +0.000 A 
ATOM      4  C   UNL     1       1.644   6.941  20.392  0.00  0.00    +0.000 A 
ATOM      5  C   UNL     1       2.099   7.146  19.089  0.00  0.00    +0.000 A 
ATOM      6  C   UNL     1       2.617   6.033  18.365  0.00  0.00    +0.000 A 
ATOM      7  C   UNL     1       1.919   8.545  18.795  0.00  0.00    +0.000 A 
ATOM      8  C   UNL     1       2.194   9.361  17.676  0.00  0.00    +0.000 A 
ATOM      9  C   UNL     1       1.911  10.738  17.727  0.00  0.00    +0.000 A 
ATOM     10  C   UNL     1       1.325  11.320  18.848  0.00  0.00    +0.000 A 
ATOM     11  C   UNL     1       1.077  10.528  19.974  0.00  0.00    +0.000 A 
ATOM     12  C   UNL     1       1.362   9.148  19.926  0.00  0.00    +0.000 A 
ATOM     13  N   UNL     1       1.203   8.159  20.872  0.00  0.00    +0.000 N 
ATOM     14  C   UNL     1       0.649   8.339  22.197  0.00  0.00    +0.000 C 
ENDROOT
BRANCH   1  15
ATOM     15  S   UNL     1       3.218   3.275  18.159  0.00  0.00    +0.000 S 
ATOM     16  O   UNL     1       2.880   3.408  16.778  0.00  0.00    +0.000 OA
ATOM     17  O   UNL     1       2.725   2.160  18.965  0.00  0.00    +0.000 OA
BRANCH  15  18
ATOM     18  N   UNL     1       4.901   3.278  18.316  0.00  0.00    +0.000 N 
ATOM     19  H   UNL     1       5.278   2.564  18.936  0.00  0.00    +0.000 HD
BRANCH  18  23
ATOM     20  C   UNL     1       7.216   6.621  17.221  0.00  0.00    +0.000 A 
ATOM     21  C   UNL     1       7.056   6.325  18.569  0.00  0.00    +0.000 A 
ATOM     22  C   UNL     1       6.297   5.199  18.913  0.00  0.00    +0.000 A 
ATOM     23  C   UNL     1       5.699   4.409  17.922  0.00  0.00    +0.000 A 
ATOM     24  C   UNL     1       5.945   4.797  16.577  0.00  0.00    +0.000 A 
ATOM     25  N   UNL     1       6.690   5.863  16.259  0.00  0.00    +0.000 NA
BRANCH  20  27
ATOM     26  C   UNL     1       7.952   8.746  17.864  0.00  0.00    +0.000 C 
ATOM     27  O   UNL     1       7.887   7.749  16.817  0.00  0.00    +0.000 OA
ENDBRANCH  20  27
BRANCH  24  28
ATOM     28  O   UNL     1       5.444   4.102  15.490  0.00  0.00    +0.000 OA
ATOM     29  C   UNL     1       6.358   4.017  14.357  0.00  0.00    +0.000 C 
ENDBRANCH  24  28
ENDBRANCH  18  23
ENDBRANCH  15  18
ENDBRANCH   1  15
BRANCH  10  30
ATOM     30  N   UNL     1       1.211  12.714  18.947  0.00  0.00    +0.000 N 
ATOM     31  H   UNL     1       0.256  13.055  18.977  0.00  0.00    +0.000 HD
ATOM     32  H   UNL     1       1.796  13.130  19.663  0.00  0.00    +0.000 HD
ENDBRANCH  10  30
TORSDOF 6
ENDMDL
MODEL 6
REMARK VINA RESULT:      -8.5      1.422      1.521
REMARK  Name = 
REMARK  9 active torsions:
REMARK  status: ('A' for Active; 'I' for Inactive)
REMARK    1  A    between atoms: C_1  and  O_2
REMARK    2  A    between atoms: O_2  and  C_3
REMARK    3  A    between atoms: C_6  and  N_7
REMARK    4  A    between atoms: N_7  and  S_8
REMARK    5  A    between atoms: S_8  and  C_11
REMARK    6  A    between atoms: C_20  and  N_21
REMARK    7  A    between atoms: N_24  and  C_25
REMARK    8  A    between atoms: C_26  and  O_27
REMARK    9  A    between atoms: O_27  and  C_28
REMARK                            x       y       z     vdW  Elec       q    Type
REMARK                         _______ _______ _______ _____ _____    ______ ____
ROOT
ATOM      1  C   UNL     1       2.141   5.644  19.459  0.00  0.00    +0.000 A 
ATOM      2  C   UNL     1       2.576   6.334  18.328  0.00  0.00    +0.000 A 
ATOM      3  C   UNL     1       2.361   7.702  18.193  0.00  0.00    +0.000 A 
ATOM      4  C   UNL     1       1.721   8.380  19.240  0.00  0.00    +0.000 A 
ATOM      5  C   UNL     1       1.294   7.734  20.401  0.00  0.00    +0.000 A 
ATOM      6  C   UNL     1       1.515   6.331  20.519  0.00  0.00    +0.000 A 
ATOM      7  C   UNL     1       0.686   8.734  21.240  0.00  0.00    +0.000 A 
ATOM      8  C   UNL     1       0.062   8.712  22.507  0.00  0.00    +0.000 A 
ATOM      9  C   UNL     1      -0.466   9.897  23.049  0.00  0.00    +0.000 A 
ATOM     10  C   UNL     1      -0.356  11.115  22.382  0.00  0.00    +0.000 A 
ATOM     11  C   UNL     1       0.232  11.143  21.113  0.00  0.00    +0.000 A 
ATOM     12  C   UNL     1       0.759   9.956  20.567  0.00  0.00    +0.000 A 
ATOM     13  N   UNL     1       1.391   9.716  19.366  0.00  0.00    +0.000 N 
ATOM     14  C   UNL     1       1.686  10.708  18.354  0.00  0.00    +0.000 C 
ENDROOT
BRANCH   1  15
ATOM     15  S   UNL     1       2.549   3.893  19.522  0.00  0.00    +0.000 S 
ATOM     16  O   UNL     1       2.134   3.314  18.285  0.00  0.00    +0.000 OA
ATOM     17  O   UNL     1       2.042   3.407  20.805  0.00  0.00    +0.000 OA
BRANCH  15  18
ATOM     18  N   UNL     1       4.237   3.836  19.618  0.00  0.00    +0.000 N 
ATOM     19  H   UNL     1       4.616   3.842  20.561  0.00  0.00    +0.000 HD
BRANCH  18  23
ATOM     20  C   UNL     1       6.659   4.649  16.271  0.00  0.00    +0.000 A 
ATOM     21  C   UNL     1       5.479   3.939  16.091  0.00  0.00    +0.000 A 
ATOM     22  C   UNL     1       4.678   3.694  17.213  0.00  0.00    +0.000 A 
ATOM     23  C   UNL     1       5.072   4.134  18.484  0.00  0.00    +0.000 A 
ATOM     24  C   UNL     1       6.289   4.865  18.546  0.00  0.00    +0.000 A 
ATOM     25  N   UNL     1       7.036   5.113  17.462  0.00  0.00    +0.000 NA
BRANCH  20  27
ATOM     26  C   UNL     1       6.892   4.649  13.943  0.00  0.00    +0.000 C 
ATOM     27  O   UNL     1       7.526   4.862  15.227  0.00  0.00    +0.000 OA
ENDBRANCH  20  27
BRANCH  24  28
ATOM     28  O   UNL     1       6.795   5.386  19.723  0.00  0.00    +0.000 OA
ATOM     29  C   UNL     1       8.194   5.791  19.650  0.00  0.00    +0.000 C 
ENDBRANCH  24  28
ENDBRANCH  18  23
ENDBRANCH  15  18
ENDBRANCH   1  15
BRANCH  10  30
ATOM     30  N   UNL     1      -1.037  12.247  22.853  0.00  0.00    +0.000 N 
ATOM     31  H   UNL     1      -2.025  12.266  22.626  0.00  0.00    +0.000 HD
ATOM     32  H   UNL     1      -0.855  12.467  23.826  0.00  0.00    +0.000 HD
ENDBRANCH  10  30
TORSDOF 6
ENDMDL
MODEL 7
REMARK VINA RESULT:      -8.5      4.333      8.827
REMARK  Name = 
REMARK  9 active torsions:
REMARK  status: ('A' for Active; 'I' for Inactive)
REMARK    1  A    between atoms: C_1  and  O_2
REMARK    2  A    between atoms: O_2  and  C_3
REMARK    3  A    between atoms: C_6  and  N_7
REMARK    4  A    between atoms: N_7  and  S_8
REMARK    5  A    between atoms: S_8  and  C_11
REMARK    6  A    between atoms: C_20  and  N_21
REMARK    7  A    between atoms: N_24  and  C_25
REMARK    8  A    between atoms: C_26  and  O_27
REMARK    9  A    between atoms: O_27  and  C_28
REMARK                            x       y       z     vdW  Elec       q    Type
REMARK                         _______ _______ _______ _____ _____    ______ ____
ROOT
ATOM      1  C   UNL     1       1.483   8.709  19.792  0.00  0.00    +0.000 A 
ATOM      2  C   UNL     1       2.037   9.069  18.564  0.00  0.00    +0.000 A 
ATOM      3  C   UNL     1       2.850   8.189  17.855  0.00  0.00    +0.000 A 
ATOM      4  C   UNL     1       3.073   6.913  18.393  0.00  0.00    +0.000 A 
ATOM      5  C   UNL     1       2.515   6.502  19.604  0.00  0.00    +0.000 A 
ATOM      6  C   UNL     1       1.693   7.419  20.321  0.00  0.00    +0.000 A 
ATOM      7  C   UNL     1       2.959   5.152  19.835  0.00  0.00    +0.000 A 
ATOM      8  C   UNL     1       2.759   4.211  20.869  0.00  0.00    +0.000 A 
ATOM      9  C   UNL     1       3.376   2.949  20.798  0.00  0.00    +0.000 A 
ATOM     10  C   UNL     1       4.157   2.582  19.705  0.00  0.00    +0.000 A 
ATOM     11  C   UNL     1       4.388   3.516  18.691  0.00  0.00    +0.000 A 
ATOM     12  C   UNL     1       3.773   4.782  18.761  0.00  0.00    +0.000 A 
ATOM     13  N   UNL     1       3.822   5.860  17.905  0.00  0.00    +0.000 N 
ATOM     14  C   UNL     1       4.547   5.911  16.653  0.00  0.00    +0.000 C 
ENDROOT
BRANCH   1  15
ATOM     15  S   UNL     1       0.401   9.926  20.558  0.00  0.00    +0.000 S 
ATOM     16  O   UNL     1       1.168  10.617  21.544  0.00  0.00    +0.000 OA
ATOM     17  O   UNL     1      -0.827   9.212  20.903  0.00  0.00    +0.000 OA
BRANCH  15  18
ATOM     18  N   UNL     1      -0.000  11.003  19.318  0.00  0.00    +0.000 N 
ATOM     19  H   UNL     1       0.625  11.799  19.218  0.00  0.00    +0.000 HD
BRANCH  18  23
ATOM     20  C   UNL     1      -3.785  11.007  17.473  0.00  0.00    +0.000 A 
ATOM     21  C   UNL     1      -2.771  10.231  16.927  0.00  0.00    +0.000 A 
ATOM     22  C   UNL     1      -1.524  10.228  17.565  0.00  0.00    +0.000 A 
ATOM     23  C   UNL     1      -1.304  11.008  18.708  0.00  0.00    +0.000 A 
ATOM     24  C   UNL     1      -2.419  11.749  19.187  0.00  0.00    +0.000 A 
ATOM     25  N   UNL     1      -3.613  11.726  18.581  0.00  0.00    +0.000 NA
BRANCH  20  27
ATOM     26  C   UNL     1      -5.737  12.285  17.288  0.00  0.00    +0.000 C 
ATOM     27  O   UNL     1      -5.009  11.111  16.857  0.00  0.00    +0.000 OA
ENDBRANCH  20  27
BRANCH  24  28
ATOM     28  O   UNL     1      -2.364  12.544  20.318  0.00  0.00    +0.000 OA
ATOM     29  C   UNL     1      -3.558  13.349  20.546  0.00  0.00    +0.000 C 
ENDBRANCH  24  28
ENDBRANCH  18  23
ENDBRANCH  15  18
ENDBRANCH   1  15
BRANCH  10  30
ATOM     30  N   UNL     1       4.902   1.393  19.732  0.00  0.00    +0.000 N 
ATOM     31  H   UNL     1       5.364   1.208  20.616  0.00  0.00    +0.000 HD
ATOM     32  H   UNL     1       4.407   0.584  19.373  0.00  0.00    +0.000 HD
ENDBRANCH  10  30
TORSDOF 6
ENDMDL
MODEL 8
REMARK VINA RESULT:      -8.5      1.473      2.180
REMARK  Name = 
REMARK  9 active torsions:
REMARK  status: ('A' for Active; 'I' for Inactive)
REMARK    1  A    between atoms: C_1  and  O_2
REMARK    2  A    between atoms: O_2  and  C_3
REMARK    3  A    between atoms: C_6  and  N_7
REMARK    4  A    between atoms: N_7  and  S_8
REMARK    5  A    between atoms: S_8  and  C_11
REMARK    6  A    between atoms: C_20  and  N_21
REMARK    7  A    between atoms: N_24  and  C_25
REMARK    8  A    between atoms: C_26  and  O_27
REMARK    9  A    between atoms: O_27  and  C_28
REMARK                            x       y       z     vdW  Elec       q    Type
REMARK                         _______ _______ _______ _____ _____    ______ ____
ROOT
ATOM      1  C   UNL     1       1.770   7.605  19.548  0.00  0.00    +0.000 A 
ATOM      2  C   UNL     1       2.089   8.376  18.431  0.00  0.00    +0.000 A 
ATOM      3  C   UNL     1       1.682   9.703  18.333  0.00  0.00    +0.000 A 
ATOM      4  C   UNL     1       0.967  10.259  19.403  0.00  0.00    +0.000 A 
ATOM      5  C   UNL     1       0.650   9.532  20.551  0.00  0.00    +0.000 A 
ATOM      6  C   UNL     1       1.067   8.171  20.631  0.00  0.00    +0.000 A 
ATOM      7  C   UNL     1      -0.082  10.416  21.421  0.00  0.00    +0.000 A 
ATOM      8  C   UNL     1      -0.680  10.276  22.693  0.00  0.00    +0.000 A 
ATOM      9  C   UNL     1      -1.363  11.362  23.270  0.00  0.00    +0.000 A 
ATOM     10  C   UNL     1      -1.433  12.598  22.632  0.00  0.00    +0.000 A 
ATOM     11  C   UNL     1      -0.872  12.740  21.359  0.00  0.00    +0.000 A 
ATOM     12  C   UNL     1      -0.190  11.652  20.778  0.00  0.00    +0.000 A 
ATOM     13  N   UNL     1       0.454  11.531  19.566  0.00  0.00    +0.000 N 
ATOM     14  C   UNL     1       0.594  12.579  18.577  0.00  0.00    +0.000 C 
ENDROOT
BRANCH   1  15
ATOM     15  S   UNL     1       2.421   5.928  19.563  0.00  0.00    +0.000 S 
ATOM     16  O   UNL     1       2.102   5.336  18.304  0.00  0.00    +0.000 OA
ATOM     17  O   UNL     1       1.977   5.335  20.824  0.00  0.00    +0.000 OA
BRANCH  15  18
ATOM     18  N   UNL     1       4.099   6.106  19.679  0.00  0.00    +0.000 N 
ATOM     19  H   UNL     1       4.417   6.728  20.418  0.00  0.00    +0.000 HD
BRANCH  18  23
ATOM     20  C   UNL     1       6.636   5.031  16.495  0.00  0.00    +0.000 A 
ATOM     21  C   UNL     1       6.069   6.299  16.505  0.00  0.00    +0.000 A 
ATOM     22  C   UNL     1       5.242   6.645  17.582  0.00  0.00    +0.000 A 
ATOM     23  C   UNL     1       4.979   5.725  18.605  0.00  0.00    +0.000 A 
ATOM     24  C   UNL     1       5.626   4.464  18.499  0.00  0.00    +0.000 A 
ATOM     25  N   UNL     1       6.433   4.153  17.475  0.00  0.00    +0.000 NA
BRANCH  20  27
ATOM     26  C   UNL     1       6.625   4.500  14.216  0.00  0.00    +0.000 C 
ATOM     27  O   UNL     1       7.398   4.604  15.435  0.00  0.00    +0.000 OA
ENDBRANCH  20  27
BRANCH  24  28
ATOM     28  O   UNL     1       5.485   3.463  19.443  0.00  0.00    +0.000 OA
ATOM     29  C   UNL     1       4.307   2.623  19.258  0.00  0.00    +0.000 C 
ENDBRANCH  24  28
ENDBRANCH  18  23
ENDBRANCH  15  18
ENDBRANCH   1  15
BRANCH  10  30
ATOM     30  N   UNL     1      -2.260  13.612  23.138  0.00  0.00    +0.000 N 
ATOM     31  H   UNL     1      -2.937  13.296  23.825  0.00  0.00    +0.000 HD
ATOM     32  H   UNL     1      -1.764  14.446  23.434  0.00  0.00    +0.000 HD
ENDBRANCH  10  30
TORSDOF 6
ENDMDL
MODEL 9
REMARK VINA RESULT:      -8.5      4.279      8.768
REMARK  Name = 
REMARK  9 active torsions:
REMARK  status: ('A' for Active; 'I' for Inactive)
REMARK    1  A    between atoms: C_1  and  O_2
REMARK    2  A    between atoms: O_2  and  C_3
REMARK    3  A    between atoms: C_6  and  N_7
REMARK    4  A    between atoms: N_7  and  S_8
REMARK    5  A    between atoms: S_8  and  C_11
REMARK    6  A    between atoms: C_20  and  N_21
REMARK    7  A    between atoms: N_24  and  C_25
REMARK    8  A    between atoms: C_26  and  O_27
REMARK    9  A    between atoms: O_27  and  C_28
REMARK                            x       y       z     vdW  Elec       q    Type
REMARK                         _______ _______ _______ _____ _____    ______ ____
ROOT
ATOM      1  C   UNL     1       1.390   9.037  19.684  0.00  0.00    +0.000 A 
ATOM      2  C   UNL     1       1.024   8.168  20.711  0.00  0.00    +0.000 A 
ATOM      3  C   UNL     1       1.485   6.855  20.741  0.00  0.00    +0.000 A 
ATOM      4  C   UNL     1       2.356   6.434  19.726  0.00  0.00    +0.000 A 
ATOM      5  C   UNL     1       2.770   7.280  18.695  0.00  0.00    +0.000 A 
ATOM      6  C   UNL     1       2.281   8.618  18.675  0.00  0.00    +0.000 A 
ATOM      7  C   UNL     1       3.647   6.513  17.848  0.00  0.00    +0.000 A 
ATOM      8  C   UNL     1       4.360   6.788  16.660  0.00  0.00    +0.000 A 
ATOM      9  C   UNL     1       5.129   5.778  16.054  0.00  0.00    +0.000 A 
ATOM     10  C   UNL     1       5.240   4.510  16.621  0.00  0.00    +0.000 A 
ATOM     11  C   UNL     1       4.514   4.217  17.779  0.00  0.00    +0.000 A 
ATOM     12  C   UNL     1       3.741   5.227  18.386  0.00  0.00    +0.000 A 
ATOM     13  N   UNL     1       2.957   5.208  19.519  0.00  0.00    +0.000 N 
ATOM     14  C   UNL     1       2.771   4.072  20.397  0.00  0.00    +0.000 C 
ENDROOT
BRANCH   1  15
ATOM     15  S   UNL     1       0.769  10.721  19.816  0.00  0.00    +0.000 S 
ATOM     16  O   UNL     1       1.129  11.403  18.614  0.00  0.00    +0.000 OA
ATOM     17  O   UNL     1       1.194  11.205  21.129  0.00  0.00    +0.000 OA
BRANCH  15  18
ATOM     18  N   UNL     1      -0.914  10.568  19.879  0.00  0.00    +0.000 N 
ATOM     19  H   UNL     1      -1.278  10.161  20.737  0.00  0.00    +0.000 HD
BRANCH  18  23
ATOM     20  C   UNL     1      -3.242  10.776  16.377  0.00  0.00    +0.000 A 
ATOM     21  C   UNL     1      -2.251   9.807  16.470  0.00  0.00    +0.000 A 
ATOM     22  C   UNL     1      -1.499   9.742  17.650  0.00  0.00    +0.000 A 
ATOM     23  C   UNL     1      -1.728  10.647  18.695  0.00  0.00    +0.000 A 
ATOM     24  C   UNL     1      -2.779  11.583  18.497  0.00  0.00    +0.000 A 
ATOM     25  N   UNL     1      -3.507  11.621  17.372  0.00  0.00    +0.000 NA
BRANCH  20  27
ATOM     26  C   UNL     1      -3.485  10.095  14.153  0.00  0.00    +0.000 C 
ATOM     27  O   UNL     1      -3.968  10.940  15.223  0.00  0.00    +0.000 OA
ENDBRANCH  20  27
BRANCH  24  28
ATOM     28  O   UNL     1      -3.140  12.521  19.447  0.00  0.00    +0.000 OA
ATOM     29  C   UNL     1      -4.521  12.412  19.905  0.00  0.00    +0.000 C 
ENDBRANCH  24  28
ENDBRANCH  18  23
ENDBRANCH  15  18
ENDBRANCH   1  15
BRANCH  10  30
ATOM     30  N   UNL     1       5.865   3.471  15.916  0.00  0.00    +0.000 N 
ATOM     31  H   UNL     1       5.929   2.597  16.428  0.00  0.00    +0.000 HD
ATOM     32  H   UNL     1       5.523   3.344  14.970  0.00  0.00    +0.000 HD
ENDBRANCH  10  30
TORSDOF 6
ENDMDL
