MODEL 1
REMARK VINA RESULT:      -7.9      0.000      0.000
REMARK  Name = 
REMARK  6 active torsions:
REMARK  status: ('A' for Active; 'I' for Inactive)
REMARK    1  A    between atoms: N_12  and  C_13
REMARK    2  A    between atoms: C_13  and  C_14
REMARK    3  A    between atoms: C_14  and  C_15
REMARK    4  A    between atoms: C_15  and  C_16
REMARK    5  A    between atoms: C_16  and  N_17
REMARK    6  A    between atoms: N_20  and  C_21
REMARK                            x       y       z     vdW  Elec       q    Type
REMARK                         _______ _______ _______ _____ _____    ______ ____
ROOT
ATOM      1  C   UNL     1       7.153   8.036  17.779  0.00  0.00    +0.000 C 
ENDROOT
BRANCH   1   2
ATOM      2  C   UNL     1       7.552   6.578  17.515  0.00  0.00    +0.000 C 
BRANCH   2  14
ATOM      3  O   UNL     1       6.265   5.948  15.145  0.00  0.00    +0.000 OA
ATOM      4  C   UNL     1       5.838   5.446  16.184  0.00  0.00    +0.000 A 
ATOM      5  O   UNL     1       4.734   4.587  16.123  0.00  0.00    +0.000 OA
ATOM      6  C   UNL     1       4.173   4.053  17.285  0.00  0.00    +0.000 A 
ATOM      7  C   UNL     1       3.004   3.303  17.155  0.00  0.00    +0.000 A 
ATOM      8  C   UNL     1       2.401   2.772  18.294  0.00  0.00    +0.000 A 
ATOM      9  C   UNL     1       2.975   2.977  19.549  0.00  0.00    +0.000 A 
ATOM     10  C   UNL     1       4.153   3.718  19.669  0.00  0.00    +0.000 A 
ATOM     11  C   UNL     1       4.748   4.261  18.523  0.00  0.00    +0.000 A 
ATOM     12  C   UNL     1       5.962   5.079  18.609  0.00  0.00    +0.000 A 
ATOM     13  O   UNL     1       6.531   5.191  19.690  0.00  0.00    +0.000 OA
ATOM     14  N   UNL     1       6.393   5.689  17.437  0.00  0.00    +0.000 N 
ENDBRANCH   2  14
ENDBRANCH   1   2
BRANCH   1  15
ATOM     15  C   UNL     1       8.338   9.000  17.612  0.00  0.00    +0.000 C 
BRANCH  15  16
ATOM     16  C   UNL     1       8.945   9.456  18.955  0.00  0.00    +0.000 C 
BRANCH  16  17
ATOM     17  N   UNL     1       8.826  10.895  19.213  0.00  0.00    +0.000 NA
ATOM     18  C   UNL     1       9.704  11.410  20.292  0.00  0.00    +0.000 C 
ATOM     19  C   UNL     1      11.165  11.801  19.932  0.00  0.00    +0.000 C 
ATOM     20  N   UNL     1      11.281  12.487  18.635  0.00  0.00    +0.000 N 
ATOM     21  C   UNL     1      10.515  11.851  17.554  0.00  0.00    +0.000 C 
ATOM     22  C   UNL     1       9.040  11.694  17.984  0.00  0.00    +0.000 C 
BRANCH  20  23
ATOM     23  C   UNL     1      11.633  13.824  18.515  0.00  0.00    +0.000 A 
ATOM     24  C   UNL     1      12.036  14.557  19.647  0.00  0.00    +0.000 A 
ATOM     25  C   UNL     1      12.330  15.925  19.584  0.00  0.00    +0.000 A 
ATOM     26  C   UNL     1      12.238  16.600  18.374  0.00  0.00    +0.000 A 
ATOM     27  C   UNL     1      11.868  15.898  17.230  0.00  0.00    +0.000 A 
ATOM     28  C   UNL     1      11.571  14.529  17.305  0.00  0.00    +0.000 A 
ENDBRANCH  20  23
ENDBRANCH  16  17
ENDBRANCH  15  16
ENDBRANCH   1  15
TORSDOF 6
ENDMDL
MODEL 2
REMARK VINA RESULT:      -7.7      2.936     11.063
REMARK  Name = 
REMARK  6 active torsions:
REMARK  status: ('A' for Active; 'I' for Inactive)
REMARK    1  A    between atoms: N_12  and  C_13
REMARK    2  A    between atoms: C_13  and  C_14
REMARK    3  A    between atoms: C_14  and  C_15
REMARK    4  A    between atoms: C_15  and  C_16
REMARK    5  A    between atoms: C_16  and  N_17
REMARK    6  A    between atoms: N_20  and  C_21
REMARK                            x       y       z     vdW  Elec       q    Type
REMARK                         _______ _______ _______ _____ _____    ______ ____
ROOT
ATOM      1  C   UNL     1       8.655   9.885  18.261  0.00  0.00    +0.000 C 
ENDROOT
BRANCH   1   2
ATOM      2  C   UNL     1       9.576  10.304  19.415  0.00  0.00    +0.000 C 
BRANCH   2  14
ATOM      3  O   UNL     1       8.651  12.131  21.279  0.00  0.00    +0.000 OA
ATOM      4  C   UNL     1       9.379  12.545  20.379  0.00  0.00    +0.000 A 
ATOM      5  O   UNL     1       9.705  13.906  20.336  0.00  0.00    +0.000 OA
ATOM      6  C   UNL     1      10.468  14.431  19.292  0.00  0.00    +0.000 A 
ATOM      7  C   UNL     1      10.651  15.814  19.255  0.00  0.00    +0.000 A 
ATOM      8  C   UNL     1      11.388  16.378  18.214  0.00  0.00    +0.000 A 
ATOM      9  C   UNL     1      11.950  15.562  17.232  0.00  0.00    +0.000 A 
ATOM     10  C   UNL     1      11.773  14.178  17.285  0.00  0.00    +0.000 A 
ATOM     11  C   UNL     1      11.020  13.616  18.323  0.00  0.00    +0.000 A 
ATOM     12  C   UNL     1      10.776  12.171  18.394  0.00  0.00    +0.000 A 
ATOM     13  O   UNL     1      11.339  11.432  17.594  0.00  0.00    +0.000 OA
ATOM     14  N   UNL     1       9.902  11.729  19.379  0.00  0.00    +0.000 N 
ENDBRANCH   2  14
ENDBRANCH   1   2
BRANCH   1  15
ATOM     15  C   UNL     1       8.279   8.397  18.330  0.00  0.00    +0.000 C 
BRANCH  15  16
ATOM     16  C   UNL     1       7.207   7.993  17.298  0.00  0.00    +0.000 C 
BRANCH  16  17
ATOM     17  N   UNL     1       7.061   6.544  17.117  0.00  0.00    +0.000 NA
ATOM     18  C   UNL     1       7.189   5.744  18.358  0.00  0.00    +0.000 C 
ATOM     19  C   UNL     1       5.929   5.555  19.249  0.00  0.00    +0.000 C 
ATOM     20  N   UNL     1       4.697   5.334  18.475  0.00  0.00    +0.000 N 
ATOM     21  C   UNL     1       4.534   6.255  17.341  0.00  0.00    +0.000 C 
ATOM     22  C   UNL     1       5.788   6.199  16.441  0.00  0.00    +0.000 C 
BRANCH  20  23
ATOM     23  C   UNL     1       4.015   4.126  18.466  0.00  0.00    +0.000 A 
ATOM     24  C   UNL     1       4.366   3.105  19.368  0.00  0.00    +0.000 A 
ATOM     25  C   UNL     1       3.753   1.846  19.345  0.00  0.00    +0.000 A 
ATOM     26  C   UNL     1       2.756   1.576  18.417  0.00  0.00    +0.000 A 
ATOM     27  C   UNL     1       2.366   2.573  17.529  0.00  0.00    +0.000 A 
ATOM     28  C   UNL     1       2.990   3.830  17.556  0.00  0.00    +0.000 A 
ENDBRANCH  20  23
ENDBRANCH  16  17
ENDBRANCH  15  16
ENDBRANCH   1  15
TORSDOF 6
ENDMDL
MODEL 3
REMARK VINA RESULT:      -7.7      7.019      9.204
REMARK  Name = 
REMARK  6 active torsions:
REMARK  status: ('A' for Active; 'I' for Inactive)
REMARK    1  A    between atoms: N_12  and  C_13
REMARK    2  A    between atoms: C_13  and  C_14
REMARK    3  A    between atoms: C_14  and  C_15
REMARK    4  A    between atoms: C_15  and  C_16
REMARK    5  A    between atoms: C_16  and  N_17
REMARK    6  A    between atoms: N_20  and  C_21
REMARK                            x       y       z     vdW  Elec       q    Type
REMARK                         _______ _______ _______ _____ _____    ______ ____
ROOT
ATOM      1  C   UNL     1       2.116   5.857  18.662  0.00  0.00    +0.000 C 
ENDROOT
BRANCH   1   2
ATOM      2  C   UNL     1       2.816   7.204  18.882  0.00  0.00    +0.000 C 
BRANCH   2  14
ATOM      3  O   UNL     1       1.945   9.331  17.337  0.00  0.00    +0.000 OA
ATOM      4  C   UNL     1       1.533   9.252  18.493  0.00  0.00    +0.000 A 
ATOM      5  O   UNL     1       0.651  10.228  18.971  0.00  0.00    +0.000 OA
ATOM      6  C   UNL     1       0.215  10.217  20.298  0.00  0.00    +0.000 A 
ATOM      7  C   UNL     1      -0.567  11.288  20.732  0.00  0.00    +0.000 A 
ATOM      8  C   UNL     1      -1.001  11.325  22.057  0.00  0.00    +0.000 A 
ATOM      9  C   UNL     1      -0.671  10.288  22.930  0.00  0.00    +0.000 A 
ATOM     10  C   UNL     1       0.100   9.213  22.483  0.00  0.00    +0.000 A 
ATOM     11  C   UNL     1       0.548   9.187  21.155  0.00  0.00    +0.000 A 
ATOM     12  C   UNL     1       1.393   8.098  20.656  0.00  0.00    +0.000 A 
ATOM     13  O   UNL     1       1.615   7.134  21.382  0.00  0.00    +0.000 OA
ATOM     14  N   UNL     1       1.901   8.235  19.370  0.00  0.00    +0.000 N 
ENDBRANCH   2  14
ENDBRANCH   1   2
BRANCH   1  15
ATOM     15  C   UNL     1       2.880   4.694  19.313  0.00  0.00    +0.000 C 
BRANCH  15  16
ATOM     16  C   UNL     1       4.395   4.956  19.439  0.00  0.00    +0.000 C 
BRANCH  16  17
ATOM     17  N   UNL     1       5.226   4.128  18.559  0.00  0.00    +0.000 NA
ATOM     18  C   UNL     1       4.474   3.327  17.563  0.00  0.00    +0.000 C 
ATOM     19  C   UNL     1       4.080   4.001  16.218  0.00  0.00    +0.000 C 
ATOM     20  N   UNL     1       5.135   4.868  15.671  0.00  0.00    +0.000 N 
ATOM     21  C   UNL     1       5.749   5.759  16.666  0.00  0.00    +0.000 C 
ATOM     22  C   UNL     1       6.260   4.928  17.863  0.00  0.00    +0.000 C 
BRANCH  20  23
ATOM     23  C   UNL     1       5.836   4.568  14.511  0.00  0.00    +0.000 A 
ATOM     24  C   UNL     1       7.070   5.190  14.247  0.00  0.00    +0.000 A 
ATOM     25  C   UNL     1       7.775   4.973  13.056  0.00  0.00    +0.000 A 
ATOM     26  C   UNL     1       7.264   4.110  12.095  0.00  0.00    +0.000 A 
ATOM     27  C   UNL     1       6.059   3.459  12.337  0.00  0.00    +0.000 A 
ATOM     28  C   UNL     1       5.358   3.688  13.531  0.00  0.00    +0.000 A 
ENDBRANCH  20  23
ENDBRANCH  16  17
ENDBRANCH  15  16
ENDBRANCH   1  15
TORSDOF 6
ENDMDL
MODEL 4
REMARK VINA RESULT:      -7.7      3.114     10.854
REMARK  Name = 
REMARK  6 active torsions:
REMARK  status: ('A' for Active; 'I' for Inactive)
REMARK    1  A    between atoms: N_12  and  C_13
REMARK    2  A    between atoms: C_13  and  C_14
REMARK    3  A    between atoms: C_14  and  C_15
REMARK    4  A    between atoms: C_15  and  C_16
REMARK    5  A    between atoms: C_16  and  N_17
REMARK    6  A    between atoms: N_20  and  C_21
REMARK                            x       y       z     vdW  Elec       q    Type
REMARK                         _______ _______ _______ _____ _____    ______ ____
ROOT
ATOM      1  C   UNL     1       8.657   9.849  18.275  0.00  0.00    +0.000 C 
ENDROOT
BRANCH   1   2
ATOM      2  C   UNL     1       9.496  10.016  19.548  0.00  0.00    +0.000 C 
BRANCH   2  14
ATOM      3  O   UNL     1      11.177  11.420  17.854  0.00  0.00    +0.000 OA
ATOM      4  C   UNL     1      10.742  12.002  18.845  0.00  0.00    +0.000 A 
ATOM      5  O   UNL     1      11.110  13.335  19.071  0.00  0.00    +0.000 OA
ATOM      6  C   UNL     1      10.697  14.010  20.221  0.00  0.00    +0.000 A 
ATOM      7  C   UNL     1      11.201  15.294  20.435  0.00  0.00    +0.000 A 
ATOM      8  C   UNL     1      10.831  15.992  21.584  0.00  0.00    +0.000 A 
ATOM      9  C   UNL     1       9.949  15.415  22.499  0.00  0.00    +0.000 A 
ATOM     10  C   UNL     1       9.439  14.135  22.270  0.00  0.00    +0.000 A 
ATOM     11  C   UNL     1       9.826  13.431  21.122  0.00  0.00    +0.000 A 
ATOM     12  C   UNL     1       9.345  12.070  20.864  0.00  0.00    +0.000 A 
ATOM     13  O   UNL     1       8.499  11.585  21.608  0.00  0.00    +0.000 OA
ATOM     14  N   UNL     1       9.895  11.405  19.775  0.00  0.00    +0.000 N 
ENDBRANCH   2  14
ENDBRANCH   1   2
BRANCH   1  15
ATOM     15  C   UNL     1       8.254   8.386  18.035  0.00  0.00    +0.000 C 
BRANCH  15  16
ATOM     16  C   UNL     1       6.884   8.239  17.343  0.00  0.00    +0.000 C 
BRANCH  16  17
ATOM     17  N   UNL     1       6.549   6.865  16.954  0.00  0.00    +0.000 NA
ATOM     18  C   UNL     1       6.818   5.839  17.991  0.00  0.00    +0.000 C 
ATOM     19  C   UNL     1       5.732   5.582  19.074  0.00  0.00    +0.000 C 
ATOM     20  N   UNL     1       4.361   5.601  18.539  0.00  0.00    +0.000 N 
ATOM     21  C   UNL     1       4.092   6.726  17.632  0.00  0.00    +0.000 C 
ATOM     22  C   UNL     1       5.143   6.746  16.502  0.00  0.00    +0.000 C 
BRANCH  20  23
ATOM     23  C   UNL     1       3.561   4.470  18.466  0.00  0.00    +0.000 A 
ATOM     24  C   UNL     1       4.142   3.189  18.454  0.00  0.00    +0.000 A 
ATOM     25  C   UNL     1       3.377   2.024  18.308  0.00  0.00    +0.000 A 
ATOM     26  C   UNL     1       1.998   2.111  18.178  0.00  0.00    +0.000 A 
ATOM     27  C   UNL     1       1.389   3.362  18.212  0.00  0.00    +0.000 A 
ATOM     28  C   UNL     1       2.164   4.523  18.354  0.00  0.00    +0.000 A 
ENDBRANCH  20  23
ENDBRANCH  16  17
ENDBRANCH  15  16
ENDBRANCH   1  15
TORSDOF 6
ENDMDL
MODEL 5
REMARK VINA RESULT:      -7.7      1.403      1.893
REMARK  Name = 
REMARK  6 active torsions:
REMARK  status: ('A' for Active; 'I' for Inactive)
REMARK    1  A    between atoms: N_12  and  C_13
REMARK    2  A    between atoms: C_13  and  C_14
REMARK    3  A    between atoms: C_14  and  C_15
REMARK    4  A    between atoms: C_15  and  C_16
REMARK    5  A    between atoms: C_16  and  N_17
REMARK    6  A    between atoms: N_20  and  C_21
REMARK                            x       y       z     vdW  Elec       q    Type
REMARK                         _______ _______ _______ _____ _____    ______ ____
ROOT
ATOM      1  C   UNL     1       8.000   7.712  18.241  0.00  0.00    +0.000 C 
ENDROOT
BRANCH   1   2
ATOM      2  C   UNL     1       7.286   6.941  17.123  0.00  0.00    +0.000 C 
BRANCH   2  14
ATOM      3  O   UNL     1       8.050   4.469  18.109  0.00  0.00    +0.000 OA
ATOM      4  C   UNL     1       6.852   4.747  18.116  0.00  0.00    +0.000 A 
ATOM      5  O   UNL     1       5.937   3.812  18.616  0.00  0.00    +0.000 OA
ATOM      6  C   UNL     1       4.563   4.057  18.576  0.00  0.00    +0.000 A 
ATOM      7  C   UNL     1       3.710   3.030  18.984  0.00  0.00    +0.000 A 
ATOM      8  C   UNL     1       2.331   3.228  18.935  0.00  0.00    +0.000 A 
ATOM      9  C   UNL     1       1.814   4.450  18.502  0.00  0.00    +0.000 A 
ATOM     10  C   UNL     1       2.676   5.476  18.109  0.00  0.00    +0.000 A 
ATOM     11  C   UNL     1       4.061   5.268  18.144  0.00  0.00    +0.000 A 
ATOM     12  C   UNL     1       5.000   6.305  17.703  0.00  0.00    +0.000 A 
ATOM     13  O   UNL     1       4.567   7.414  17.407  0.00  0.00    +0.000 OA
ATOM     14  N   UNL     1       6.342   5.952  17.642  0.00  0.00    +0.000 N 
ENDBRANCH   2  14
ENDBRANCH   1   2
BRANCH   1  15
ATOM     15  C   UNL     1       8.045   9.223  17.966  0.00  0.00    +0.000 C 
BRANCH  15  16
ATOM     16  C   UNL     1       9.264   9.921  18.602  0.00  0.00    +0.000 C 
BRANCH  16  17
ATOM     17  N   UNL     1       8.941  11.148  19.337  0.00  0.00    +0.000 NA
ATOM     18  C   UNL     1       9.744  11.371  20.563  0.00  0.00    +0.000 C 
ATOM     19  C   UNL     1      11.129  12.062  20.423  0.00  0.00    +0.000 C 
ATOM     20  N   UNL     1      11.133  13.167  19.451  0.00  0.00    +0.000 N 
ATOM     21  C   UNL     1      10.458  12.847  18.185  0.00  0.00    +0.000 C 
ATOM     22  C   UNL     1       9.025  12.347  18.472  0.00  0.00    +0.000 C 
BRANCH  20  23
ATOM     23  C   UNL     1      11.287  14.497  19.816  0.00  0.00    +0.000 A 
ATOM     24  C   UNL     1      10.438  15.071  20.780  0.00  0.00    +0.000 A 
ATOM     25  C   UNL     1      10.510  16.427  21.125  0.00  0.00    +0.000 A 
ATOM     26  C   UNL     1      11.450  17.248  20.516  0.00  0.00    +0.000 A 
ATOM     27  C   UNL     1      12.322  16.705  19.578  0.00  0.00    +0.000 A 
ATOM     28  C   UNL     1      12.238  15.348  19.236  0.00  0.00    +0.000 A 
ENDBRANCH  20  23
ENDBRANCH  16  17
ENDBRANCH  15  16
ENDBRANCH   1  15
TORSDOF 6
ENDMDL
MODEL 6
REMARK VINA RESULT:      -7.6      1.436      1.986
REMARK  Name = 
REMARK  6 active torsions:
REMARK  status: ('A' for Active; 'I' for Inactive)
REMARK    1  A    between atoms: N_12  and  C_13
REMARK    2  A    between atoms: C_13  and  C_14
REMARK    3  A    between atoms: C_14  and  C_15
REMARK    4  A    between atoms: C_15  and  C_16
REMARK    5  A    between atoms: C_16  and  N_17
REMARK    6  A    between atoms: N_20  and  C_21
REMARK                            x       y       z     vdW  Elec       q    Type
REMARK                         _______ _______ _______ _____ _____    ______ ____
ROOT
ATOM      1  C   UNL     1       7.432   7.964  17.609  0.00  0.00    +0.000 C 
ENDROOT
BRANCH   1   2
ATOM      2  C   UNL     1       7.703   6.464  17.786  0.00  0.00    +0.000 C 
BRANCH   2  14
ATOM      3  O   UNL     1       6.597   5.894  15.313  0.00  0.00    +0.000 OA
ATOM      4  C   UNL     1       6.045   5.434  16.311  0.00  0.00    +0.000 A 
ATOM      5  O   UNL     1       4.894   4.651  16.155  0.00  0.00    +0.000 OA
ATOM      6  C   UNL     1       4.195   4.170  17.263  0.00  0.00    +0.000 A 
ATOM      7  C   UNL     1       2.994   3.498  17.031  0.00  0.00    +0.000 A 
ATOM      8  C   UNL     1       2.256   3.023  18.114  0.00  0.00    +0.000 A 
ATOM      9  C   UNL     1       2.727   3.204  19.415  0.00  0.00    +0.000 A 
ATOM     10  C   UNL     1       3.937   3.865  19.637  0.00  0.00    +0.000 A 
ATOM     11  C   UNL     1       4.668   4.354  18.548  0.00  0.00    +0.000 A 
ATOM     12  C   UNL     1       5.923   5.089  18.739  0.00  0.00    +0.000 A 
ATOM     13  O   UNL     1       6.398   5.174  19.867  0.00  0.00    +0.000 OA
ATOM     14  N   UNL     1       6.499   5.654  17.608  0.00  0.00    +0.000 N 
ENDBRANCH   2  14
ENDBRANCH   1   2
BRANCH   1  15
ATOM     15  C   UNL     1       8.515   8.831  18.267  0.00  0.00    +0.000 C 
BRANCH  15  16
ATOM     16  C   UNL     1       8.320  10.340  18.018  0.00  0.00    +0.000 C 
BRANCH  16  17
ATOM     17  N   UNL     1       9.526  11.148  18.230  0.00  0.00    +0.000 NA
ATOM     18  C   UNL     1       9.469  12.517  17.665  0.00  0.00    +0.000 C 
ATOM     19  C   UNL     1       8.814  13.641  18.516  0.00  0.00    +0.000 C 
ATOM     20  N   UNL     1       9.147  13.557  19.946  0.00  0.00    +0.000 N 
ATOM     21  C   UNL     1       9.041  12.202  20.504  0.00  0.00    +0.000 C 
ATOM     22  C   UNL     1       9.892  11.225  19.664  0.00  0.00    +0.000 C 
BRANCH  20  23
ATOM     23  C   UNL     1       9.942  14.492  20.594  0.00  0.00    +0.000 A 
ATOM     24  C   UNL     1       9.710  14.807  21.946  0.00  0.00    +0.000 A 
ATOM     25  C   UNL     1      10.440  15.796  22.618  0.00  0.00    +0.000 A 
ATOM     26  C   UNL     1      11.438  16.495  21.951  0.00  0.00    +0.000 A 
ATOM     27  C   UNL     1      11.710  16.189  20.622  0.00  0.00    +0.000 A 
ATOM     28  C   UNL     1      10.970  15.201  19.956  0.00  0.00    +0.000 A 
ENDBRANCH  20  23
ENDBRANCH  16  17
ENDBRANCH  15  16
ENDBRANCH   1  15
TORSDOF 6
ENDMDL
MODEL 7
REMARK VINA RESULT:      -7.5      7.690      9.926
REMARK  Name = 
REMARK  6 active torsions:
REMARK  status: ('A' for Active; 'I' for Inactive)
REMARK    1  A    between atoms: N_12  and  C_13
REMARK    2  A    between atoms: C_13  and  C_14
REMARK    3  A    between atoms: C_14  and  C_15
REMARK    4  A    between atoms: C_15  and  C_16
REMARK    5  A    between atoms: C_16  and  N_17
REMARK    6  A    between atoms: N_20  and  C_21
REMARK                            x       y       z     vdW  Elec       q    Type
REMARK                         _______ _______ _______ _____ _____    ______ ____
ROOT
ATOM      1  C   UNL     1       1.813   8.766  17.616  0.00  0.00    +0.000 C 
ENDROOT
BRANCH   1   2
ATOM      2  C   UNL     1       2.915   8.227  18.538  0.00  0.00    +0.000 C 
BRANCH   2  14
ATOM      3  O   UNL     1       4.295   6.545  16.826  0.00  0.00    +0.000 OA
ATOM      4  C   UNL     1       3.631   6.033  17.725  0.00  0.00    +0.000 A 
ATOM      5  O   UNL     1       3.603   4.638  17.843  0.00  0.00    +0.000 OA
ATOM      6  C   UNL     1       2.805   4.012  18.803  0.00  0.00    +0.000 A 
ATOM      7  C   UNL     1       2.737   2.619  18.782  0.00  0.00    +0.000 A 
ATOM      8  C   UNL     1       1.933   1.959  19.710  0.00  0.00    +0.000 A 
ATOM      9  C   UNL     1       1.220   2.689  20.662  0.00  0.00    +0.000 A 
ATOM     10  C   UNL     1       1.304   4.083  20.684  0.00  0.00    +0.000 A 
ATOM     11  C   UNL     1       2.101   4.743  19.740  0.00  0.00    +0.000 A 
ATOM     12  C   UNL     1       2.187   6.207  19.703  0.00  0.00    +0.000 A 
ATOM     13  O   UNL     1       1.641   6.858  20.589  0.00  0.00    +0.000 OA
ATOM     14  N   UNL     1       2.889   6.769  18.645  0.00  0.00    +0.000 N 
ENDBRANCH   2  14
ENDBRANCH   1   2
BRANCH   1  15
ATOM     15  C   UNL     1       1.166  10.044  18.172  0.00  0.00    +0.000 C 
BRANCH  15  16
ATOM     16  C   UNL     1       1.090  10.066  19.712  0.00  0.00    +0.000 C 
BRANCH  16  17
ATOM     17  N   UNL     1      -0.242   9.780  20.255  0.00  0.00    +0.000 NA
ATOM     18  C   UNL     1      -0.326   9.776  21.735  0.00  0.00    +0.000 C 
ATOM     19  C   UNL     1      -0.542  11.131  22.467  0.00  0.00    +0.000 C 
ATOM     20  N   UNL     1      -1.492  12.019  21.779  0.00  0.00    +0.000 N 
ATOM     21  C   UNL     1      -1.275  12.113  20.328  0.00  0.00    +0.000 C 
ATOM     22  C   UNL     1      -1.268  10.699  19.710  0.00  0.00    +0.000 C 
BRANCH  20  23
ATOM     23  C   UNL     1      -2.740  12.338  22.296  0.00  0.00    +0.000 A 
ATOM     24  C   UNL     1      -3.752  12.834  21.453  0.00  0.00    +0.000 A 
ATOM     25  C   UNL     1      -5.000  13.238  21.944  0.00  0.00    +0.000 A 
ATOM     26  C   UNL     1      -5.275  13.145  23.302  0.00  0.00    +0.000 A 
ATOM     27  C   UNL     1      -4.305  12.633  24.159  0.00  0.00    +0.000 A 
ATOM     28  C   UNL     1      -3.056  12.237  23.658  0.00  0.00    +0.000 A 
ENDBRANCH  20  23
ENDBRANCH  16  17
ENDBRANCH  15  16
ENDBRANCH   1  15
TORSDOF 6
ENDMDL
MODEL 8
REMARK VINA RESULT:      -7.4      1.377      2.440
REMARK  Name = 
REMARK  6 active torsions:
REMARK  status: ('A' for Active; 'I' for Inactive)
REMARK    1  A    between atoms: N_12  and  C_13
REMARK    2  A    between atoms: C_13  and  C_14
REMARK    3  A    between atoms: C_14  and  C_15
REMARK    4  A    between atoms: C_15  and  C_16
REMARK    5  A    between atoms: C_16  and  N_17
REMARK    6  A    between atoms: N_20  and  C_21
REMARK                            x       y       z     vdW  Elec       q    Type
REMARK                         _______ _______ _______ _____ _____    ______ ____
ROOT
ATOM      1  C   UNL     1       7.662   8.973  17.933  0.00  0.00    +0.000 C 
ENDROOT
BRANCH   1   2
ATOM      2  C   UNL     1       8.037   7.584  17.401  0.00  0.00    +0.000 C 
BRANCH   2  14
ATOM      3  O   UNL     1       8.431   6.163  19.745  0.00  0.00    +0.000 OA
ATOM      4  C   UNL     1       7.434   5.903  19.074  0.00  0.00    +0.000 A 
ATOM      5  O   UNL     1       6.551   4.911  19.520  0.00  0.00    +0.000 OA
ATOM      6  C   UNL     1       5.446   4.534  18.755  0.00  0.00    +0.000 A 
ATOM      7  C   UNL     1       4.681   3.458  19.207  0.00  0.00    +0.000 A 
ATOM      8  C   UNL     1       3.583   3.037  18.457  0.00  0.00    +0.000 A 
ATOM      9  C   UNL     1       3.247   3.699  17.277  0.00  0.00    +0.000 A 
ATOM     10  C   UNL     1       4.010   4.783  16.839  0.00  0.00    +0.000 A 
ATOM     11  C   UNL     1       5.121   5.195  17.587  0.00  0.00    +0.000 A 
ATOM     12  C   UNL     1       5.973   6.302  17.142  0.00  0.00    +0.000 A 
ATOM     13  O   UNL     1       5.638   6.954  16.157  0.00  0.00    +0.000 OA
ATOM     14  N   UNL     1       7.128   6.541  17.876  0.00  0.00    +0.000 N 
ENDBRANCH   2  14
ENDBRANCH   1   2
BRANCH   1  15
ATOM     15  C   UNL     1       8.793   9.601  18.763  0.00  0.00    +0.000 C 
BRANCH  15  16
ATOM     16  C   UNL     1       9.667  10.582  17.956  0.00  0.00    +0.000 C 
BRANCH  16  17
ATOM     17  N   UNL     1      10.329  11.608  18.768  0.00  0.00    +0.000 NA
ATOM     18  C   UNL     1      11.610  12.111  18.217  0.00  0.00    +0.000 C 
ATOM     19  C   UNL     1      11.563  13.260  17.170  0.00  0.00    +0.000 C 
ATOM     20  N   UNL     1      10.556  14.288  17.478  0.00  0.00    +0.000 N 
ATOM     21  C   UNL     1       9.250  13.742  17.873  0.00  0.00    +0.000 C 
ATOM     22  C   UNL     1       9.432  12.754  19.046  0.00  0.00    +0.000 C 
BRANCH  20  23
ATOM     23  C   UNL     1      10.886  15.583  17.852  0.00  0.00    +0.000 A 
ATOM     24  C   UNL     1      11.516  15.827  19.086  0.00  0.00    +0.000 A 
ATOM     25  C   UNL     1      11.800  17.123  19.535  0.00  0.00    +0.000 A 
ATOM     26  C   UNL     1      11.469  18.218  18.748  0.00  0.00    +0.000 A 
ATOM     27  C   UNL     1      10.870  18.010  17.510  0.00  0.00    +0.000 A 
ATOM     28  C   UNL     1      10.584  16.708  17.072  0.00  0.00    +0.000 A 
ENDBRANCH  20  23
ENDBRANCH  16  17
ENDBRANCH  15  16
ENDBRANCH   1  15
TORSDOF 6
ENDMDL
MODEL 9
REMARK VINA RESULT:      -7.4      0.971      1.080
REMARK  Name = 
REMARK  6 active torsions:
REMARK  status: ('A' for Active; 'I' for Inactive)
REMARK    1  A    between atoms: N_12  and  C_13
REMARK    2  A    between atoms: C_13  and  C_14
REMARK    3  A    between atoms: C_14  and  C_15
REMARK    4  A    between atoms: C_15  and  C_16
REMARK    5  A    between atoms: C_16  and  N_17
REMARK    6  A    between atoms: N_20  and  C_21
REMARK                            x       y       z     vdW  Elec       q    Type
REMARK                         _______ _______ _______ _____ _____    ______ ____
ROOT
ATOM      1  C   UNL     1       7.464   7.424  17.380  0.00  0.00    +0.000 C 
ENDROOT
BRANCH   1   2
ATOM      2  C   UNL     1       7.524   5.900  17.543  0.00  0.00    +0.000 C 
BRANCH   2  14
ATOM      3  O   UNL     1       6.241   5.126  15.214  0.00  0.00    +0.000 OA
ATOM      4  C   UNL     1       5.662   4.934  16.282  0.00  0.00    +0.000 A 
ATOM      5  O   UNL     1       4.394   4.339  16.273  0.00  0.00    +0.000 OA
ATOM      6  C   UNL     1       3.672   4.168  17.456  0.00  0.00    +0.000 A 
ATOM      7  C   UNL     1       2.369   3.677  17.354  0.00  0.00    +0.000 A 
ATOM      8  C   UNL     1       1.607   3.515  18.510  0.00  0.00    +0.000 A 
ATOM      9  C   UNL     1       2.153   3.824  19.756  0.00  0.00    +0.000 A 
ATOM     10  C   UNL     1       3.462   4.301  19.850  0.00  0.00    +0.000 A 
ATOM     11  C   UNL     1       4.219   4.477  18.685  0.00  0.00    +0.000 A 
ATOM     12  C   UNL     1       5.583   5.014  18.735  0.00  0.00    +0.000 A 
ATOM     13  O   UNL     1       6.111   5.202  19.827  0.00  0.00    +0.000 OA
ATOM     14  N   UNL     1       6.198   5.283  17.518  0.00  0.00    +0.000 N 
ENDBRANCH   2  14
ENDBRANCH   1   2
BRANCH   1  15
ATOM     15  C   UNL     1       8.294   8.154  18.448  0.00  0.00    +0.000 C 
BRANCH  15  16
ATOM     16  C   UNL     1       8.924   9.465  17.936  0.00  0.00    +0.000 C 
BRANCH  16  17
ATOM     17  N   UNL     1       8.615  10.642  18.755  0.00  0.00    +0.000 NA
ATOM     18  C   UNL     1       9.434  10.780  19.983  0.00  0.00    +0.000 C 
ATOM     19  C   UNL     1      10.821  11.474  19.872  0.00  0.00    +0.000 C 
ATOM     20  N   UNL     1      10.818  12.641  18.975  0.00  0.00    +0.000 N 
ATOM     21  C   UNL     1      10.125  12.409  17.700  0.00  0.00    +0.000 C 
ATOM     22  C   UNL     1       8.694  11.896  17.970  0.00  0.00    +0.000 C 
BRANCH  20  23
ATOM     23  C   UNL     1      10.982  13.943  19.426  0.00  0.00    +0.000 A 
ATOM     24  C   UNL     1      10.703  14.271  20.765  0.00  0.00    +0.000 A 
ATOM     25  C   UNL     1      10.785  15.585  21.244  0.00  0.00    +0.000 A 
ATOM     26  C   UNL     1      11.162  16.613  20.389  0.00  0.00    +0.000 A 
ATOM     27  C   UNL     1      11.470  16.317  19.065  0.00  0.00    +0.000 A 
ATOM     28  C   UNL     1      11.380  14.999  18.594  0.00  0.00    +0.000 A 
ENDBRANCH  20  23
ENDBRANCH  16  17
ENDBRANCH  15  16
ENDBRANCH   1  15
TORSDOF 6
ENDMDL
