MODEL 1
REMARK VINA RESULT:      -8.5      0.000      0.000
REMARK  Name = 
REMARK  7 active torsions:
REMARK  status: ('A' for Active; 'I' for Inactive)
REMARK    1  A    between atoms: C_2  and  O_3
REMARK    2  A    between atoms: C_2  and  C_4
REMARK    3  A    between atoms: C_8  and  O_9
REMARK    4  A    between atoms: O_9  and  C_10
REMARK    5  A    between atoms: C_16  and  N_17
REMARK    6  A    between atoms: N_17  and  S_18
REMARK    7  A    between atoms: S_18  and  C_21
REMARK                            x       y       z     vdW  Elec       q    Type
REMARK                         _______ _______ _______ _____ _____    ______ ____
ROOT
ATOM      1  C   UNL     1       3.202   3.408  17.910  0.00  0.00    +0.000 A 
ATOM      2  N   UNL     1       3.308   2.156  18.429  0.00  0.00    +0.000 NA
ATOM      3  C   UNL     1       2.696   1.924  19.606  0.00  0.00    +0.000 A 
ATOM      4  C   UNL     1       1.948   2.871  20.277  0.00  0.00    +0.000 A 
ATOM      5 CL   UNL     1       1.206   2.484  21.775  0.00  0.00    +0.000 Cl
ATOM      6  C   UNL     1       1.799   4.137  19.707  0.00  0.00    +0.000 A 
ATOM      7  C   UNL     1       2.431   4.422  18.488  0.00  0.00    +0.000 A 
ENDROOT
BRANCH   7   8
ATOM      8  N   UNL     1       2.215   5.706  17.884  0.00  0.00    +0.000 N 
ATOM      9  H   UNL     1       1.594   5.800  17.081  0.00  0.00    +0.000 HD
BRANCH   8  10
ATOM     10  S   UNL     1       3.122   7.031  18.342  0.00  0.00    +0.000 S 
ATOM     11  O   UNL     1       3.897   6.641  19.509  0.00  0.00    +0.000 OA
ATOM     12  O   UNL     1       3.746   7.594  17.168  0.00  0.00    +0.000 OA
BRANCH  10  13
ATOM     13  C   UNL     1       1.894   8.186  18.912  0.00  0.00    +0.000 A 
ATOM     14  C   UNL     1       1.325   9.092  18.012  0.00  0.00    +0.000 A 
ATOM     15  C   UNL     1       0.421  10.051  18.480  0.00  0.00    +0.000 A 
ATOM     16  C   UNL     1       0.073  10.090  19.836  0.00  0.00    +0.000 A 
ATOM     17 CL   UNL     1      -1.021  11.323  20.352  0.00  0.00    +0.000 Cl
ATOM     18  C   UNL     1       0.627   9.159  20.725  0.00  0.00    +0.000 A 
ATOM     19 CL   UNL     1       0.283   9.181  22.419  0.00  0.00    +0.000 Cl
ATOM     20  C   UNL     1       1.532   8.199  20.261  0.00  0.00    +0.000 A 
ENDBRANCH  10  13
ENDBRANCH   8  10
ENDBRANCH   7   8
BRANCH   1  21
ATOM     21  O   UNL     1       3.851   3.649  16.716  0.00  0.00    +0.000 OA
BRANCH  21  26
ATOM     22  C   UNL     1       6.889   5.445  17.851  0.00  0.00    +0.000 A 
ATOM     23  C   UNL     1       7.248   5.968  16.617  0.00  0.00    +0.000 A 
ATOM     24  N   UNL     1       6.555   5.735  15.476  0.00  0.00    +0.000 NA
ATOM     25  C   UNL     1       5.467   4.933  15.580  0.00  0.00    +0.000 A 
ATOM     26  C   UNL     1       5.041   4.341  16.760  0.00  0.00    +0.000 A 
ATOM     27  C   UNL     1       5.787   4.589  17.914  0.00  0.00    +0.000 A 
BRANCH  22  29
ATOM     28  O   UNL     1       7.456   5.164  20.133  0.00  0.00    +0.000 OA
ATOM     29  C   UNL     1       7.612   5.783  19.093  0.00  0.00    +0.000 C 
BRANCH  29  30
ATOM     30  O   UNL     1       8.396   6.874  18.993  0.00  0.00    +0.000 OA
ATOM     31  H   UNL     1       7.964   7.708  18.726  0.00  0.00    +0.000 HD
ENDBRANCH  29  30
ENDBRANCH  22  29
ENDBRANCH  21  26
ENDBRANCH   1  21
TORSDOF 7
ENDMDL
MODEL 2
REMARK VINA RESULT:      -8.0      0.599      1.305
REMARK  Name = 
REMARK  7 active torsions:
REMARK  status: ('A' for Active; 'I' for Inactive)
REMARK    1  A    between atoms: C_2  and  O_3
REMARK    2  A    between atoms: C_2  and  C_4
REMARK    3  A    between atoms: C_8  and  O_9
REMARK    4  A    between atoms: O_9  and  C_10
REMARK    5  A    between atoms: C_16  and  N_17
REMARK    6  A    between atoms: N_17  and  S_18
REMARK    7  A    between atoms: S_18  and  C_21
REMARK                            x       y       z     vdW  Elec       q    Type
REMARK                         _______ _______ _______ _____ _____    ______ ____
ROOT
ATOM      1  C   UNL     1       3.079   3.578  17.988  0.00  0.00    +0.000 A 
ATOM      2  N   UNL     1       3.255   2.314  18.456  0.00  0.00    +0.000 NA
ATOM      3  C   UNL     1       2.700   2.016  19.647  0.00  0.00    +0.000 A 
ATOM      4  C   UNL     1       1.943   2.908  20.380  0.00  0.00    +0.000 A 
ATOM      5 CL   UNL     1       1.277   2.438  21.890  0.00  0.00    +0.000 Cl
ATOM      6  C   UNL     1       1.721   4.186  19.862  0.00  0.00    +0.000 A 
ATOM      7  C   UNL     1       2.292   4.539  18.631  0.00  0.00    +0.000 A 
ENDROOT
BRANCH   7   8
ATOM      8  N   UNL     1       2.002   5.833  18.083  0.00  0.00    +0.000 N 
ATOM      9  H   UNL     1       1.274   5.942  17.379  0.00  0.00    +0.000 HD
BRANCH   8  10
ATOM     10  S   UNL     1       2.973   7.147  18.428  0.00  0.00    +0.000 S 
ATOM     11  O   UNL     1       3.990   6.697  19.365  0.00  0.00    +0.000 OA
ATOM     12  O   UNL     1       3.319   7.806  17.191  0.00  0.00    +0.000 OA
BRANCH  10  13
ATOM     13  C   UNL     1       1.889   8.226  19.335  0.00  0.00    +0.000 A 
ATOM     14  C   UNL     1       1.574   7.933  20.666  0.00  0.00    +0.000 A 
ATOM     15  C   UNL     1       0.657   8.739  21.349  0.00  0.00    +0.000 A 
ATOM     16  C   UNL     1       0.075   9.842  20.712  0.00  0.00    +0.000 A 
ATOM     17 CL   UNL     1      -1.076  10.771  21.603  0.00  0.00    +0.000 Cl
ATOM     18  C   UNL     1       0.418  10.144  19.387  0.00  0.00    +0.000 A 
ATOM     19 CL   UNL     1      -0.299  11.457  18.523  0.00  0.00    +0.000 Cl
ATOM     20  C   UNL     1       1.334   9.340  18.700  0.00  0.00    +0.000 A 
ENDBRANCH  10  13
ENDBRANCH   8  10
ENDBRANCH   7   8
BRANCH   1  21
ATOM     21  O   UNL     1       3.671   3.887  16.779  0.00  0.00    +0.000 OA
BRANCH  21  26
ATOM     22  C   UNL     1       6.841   5.470  17.868  0.00  0.00    +0.000 A 
ATOM     23  C   UNL     1       7.230   5.944  16.622  0.00  0.00    +0.000 A 
ATOM     24  N   UNL     1       6.514   5.744  15.489  0.00  0.00    +0.000 NA
ATOM     25  C   UNL     1       5.370   5.027  15.613  0.00  0.00    +0.000 A 
ATOM     26  C   UNL     1       4.909   4.488  16.806  0.00  0.00    +0.000 A 
ATOM     27  C   UNL     1       5.678   4.700  17.951  0.00  0.00    +0.000 A 
BRANCH  22  29
ATOM     28  O   UNL     1       7.441   5.149  20.135  0.00  0.00    +0.000 OA
ATOM     29  C   UNL     1       7.595   5.775  19.099  0.00  0.00    +0.000 C 
BRANCH  29  30
ATOM     30  O   UNL     1       8.404   6.847  18.998  0.00  0.00    +0.000 OA
ATOM     31  H   UNL     1       8.350   7.514  19.708  0.00  0.00    +0.000 HD
ENDBRANCH  29  30
ENDBRANCH  22  29
ENDBRANCH  21  26
ENDBRANCH   1  21
TORSDOF 7
ENDMDL
MODEL 3
REMARK VINA RESULT:      -7.8      1.642      2.567
REMARK  Name = 
REMARK  7 active torsions:
REMARK  status: ('A' for Active; 'I' for Inactive)
REMARK    1  A    between atoms: C_2  and  O_3
REMARK    2  A    between atoms: C_2  and  C_4
REMARK    3  A    between atoms: C_8  and  O_9
REMARK    4  A    between atoms: O_9  and  C_10
REMARK    5  A    between atoms: C_16  and  N_17
REMARK    6  A    between atoms: N_17  and  S_18
REMARK    7  A    between atoms: S_18  and  C_21
REMARK                            x       y       z     vdW  Elec       q    Type
REMARK                         _______ _______ _______ _____ _____    ______ ____
ROOT
ATOM      1  C   UNL     1       2.685   3.513  17.912  0.00  0.00    +0.000 A 
ATOM      2  N   UNL     1       2.828   2.255  18.405  0.00  0.00    +0.000 NA
ATOM      3  C   UNL     1       2.367   2.025  19.650  0.00  0.00    +0.000 A 
ATOM      4  C   UNL     1       1.734   2.983  20.417  0.00  0.00    +0.000 A 
ATOM      5 CL   UNL     1       1.182   2.599  21.996  0.00  0.00    +0.000 Cl
ATOM      6  C   UNL     1       1.542   4.257  19.879  0.00  0.00    +0.000 A 
ATOM      7  C   UNL     1       2.019   4.539  18.590  0.00  0.00    +0.000 A 
ENDROOT
BRANCH   7   8
ATOM      8  N   UNL     1       1.757   5.832  18.027  0.00  0.00    +0.000 N 
ATOM      9  H   UNL     1       1.002   5.958  17.354  0.00  0.00    +0.000 HD
BRANCH   8  10
ATOM     10  S   UNL     1       2.797   7.111  18.297  0.00  0.00    +0.000 S 
ATOM     11  O   UNL     1       3.911   6.602  19.081  0.00  0.00    +0.000 OA
ATOM     12  O   UNL     1       3.002   7.813  17.052  0.00  0.00    +0.000 OA
BRANCH  10  13
ATOM     13  C   UNL     1       1.861   8.174  19.374  0.00  0.00    +0.000 A 
ATOM     14  C   UNL     1       1.610   7.779  20.691  0.00  0.00    +0.000 A 
ATOM     15  C   UNL     1       0.806   8.579  21.508  0.00  0.00    +0.000 A 
ATOM     16  C   UNL     1       0.272   9.778  21.017  0.00  0.00    +0.000 A 
ATOM     17 CL   UNL     1      -0.742  10.698  22.069  0.00  0.00    +0.000 Cl
ATOM     18  C   UNL     1       0.553  10.179  19.704  0.00  0.00    +0.000 A 
ATOM     19 CL   UNL     1      -0.113  11.618  19.016  0.00  0.00    +0.000 Cl
ATOM     20  C   UNL     1       1.356   9.381  18.883  0.00  0.00    +0.000 A 
ENDBRANCH  10  13
ENDBRANCH   8  10
ENDBRANCH   7   8
BRANCH   1  21
ATOM     21  O   UNL     1       3.181   3.750  16.646  0.00  0.00    +0.000 OA
BRANCH  21  26
ATOM     22  C   UNL     1       6.533   4.650  15.342  0.00  0.00    +0.000 A 
ATOM     23  C   UNL     1       7.197   4.635  16.561  0.00  0.00    +0.000 A 
ATOM     24  N   UNL     1       6.589   4.369  17.742  0.00  0.00    +0.000 NA
ATOM     25  C   UNL     1       5.256   4.121  17.695  0.00  0.00    +0.000 A 
ATOM     26  C   UNL     1       4.497   4.138  16.534  0.00  0.00    +0.000 A 
ATOM     27  C   UNL     1       5.153   4.431  15.337  0.00  0.00    +0.000 A 
BRANCH  22  29
ATOM     28  O   UNL     1       8.142   5.667  13.934  0.00  0.00    +0.000 OA
ATOM     29  C   UNL     1       7.235   4.859  14.061  0.00  0.00    +0.000 C 
BRANCH  29  30
ATOM     30  O   UNL     1       6.738   4.139  13.037  0.00  0.00    +0.000 OA
ATOM     31  H   UNL     1       6.949   3.187  13.021  0.00  0.00    +0.000 HD
ENDBRANCH  29  30
ENDBRANCH  22  29
ENDBRANCH  21  26
ENDBRANCH   1  21
TORSDOF 7
ENDMDL
MODEL 4
REMARK VINA RESULT:      -7.7      0.888      1.115
REMARK  Name = 
REMARK  7 active torsions:
REMARK  status: ('A' for Active; 'I' for Inactive)
REMARK    1  A    between atoms: C_2  and  O_3
REMARK    2  A    between atoms: C_2  and  C_4
REMARK    3  A    between atoms: C_8  and  O_9
REMARK    4  A    between atoms: O_9  and  C_10
REMARK    5  A    between atoms: C_16  and  N_17
REMARK    6  A    between atoms: N_17  and  S_18
REMARK    7  A    between atoms: S_18  and  C_21
REMARK                            x       y       z     vdW  Elec       q    Type
REMARK                         _______ _______ _______ _____ _____    ______ ____
ROOT
ATOM      1  C   UNL     1       2.951   3.977  17.940  0.00  0.00    +0.000 A 
ATOM      2  N   UNL     1       3.249   2.716  18.349  0.00  0.00    +0.000 NA
ATOM      3  C   UNL     1       2.753   2.320  19.537  0.00  0.00    +0.000 A 
ATOM      4  C   UNL     1       1.939   3.110  20.325  0.00  0.00    +0.000 A 
ATOM      5 CL   UNL     1       1.356   2.521  21.827  0.00  0.00    +0.000 Cl
ATOM      6  C   UNL     1       1.593   4.383  19.868  0.00  0.00    +0.000 A 
ATOM      7  C   UNL     1       2.099   4.837  18.642  0.00  0.00    +0.000 A 
ENDROOT
BRANCH   7   8
ATOM      8  N   UNL     1       1.682   6.122  18.157  0.00  0.00    +0.000 N 
ATOM      9  H   UNL     1       0.883   6.201  17.530  0.00  0.00    +0.000 HD
BRANCH   8  10
ATOM     10  S   UNL     1       2.607   7.484  18.437  0.00  0.00    +0.000 S 
ATOM     11  O   UNL     1       3.587   7.138  19.454  0.00  0.00    +0.000 OA
ATOM     12  O   UNL     1       2.996   8.049  17.167  0.00  0.00    +0.000 OA
BRANCH  10  13
ATOM     13  C   UNL     1       1.456   8.605  19.203  0.00  0.00    +0.000 A 
ATOM     14  C   UNL     1       0.834   9.592  18.432  0.00  0.00    +0.000 A 
ATOM     15  C   UNL     1      -0.006  10.521  19.053  0.00  0.00    +0.000 A 
ATOM     16  C   UNL     1      -0.239  10.451  20.433  0.00  0.00    +0.000 A 
ATOM     17 CL   UNL     1      -1.258  11.653  21.139  0.00  0.00    +0.000 Cl
ATOM     18  C   UNL     1       0.367   9.441  21.191  0.00  0.00    +0.000 A 
ATOM     19 CL   UNL     1       0.167   9.326  22.904  0.00  0.00    +0.000 Cl
ATOM     20  C   UNL     1       1.209   8.510  20.575  0.00  0.00    +0.000 A 
ENDBRANCH  10  13
ENDBRANCH   8  10
ENDBRANCH   7   8
BRANCH   1  21
ATOM     21  O   UNL     1       3.482   4.387  16.733  0.00  0.00    +0.000 OA
BRANCH  21  26
ATOM     22  C   UNL     1       6.887   5.809  17.084  0.00  0.00    +0.000 A 
ATOM     23  C   UNL     1       7.513   4.978  16.165  0.00  0.00    +0.000 A 
ATOM     24  N   UNL     1       6.871   3.998  15.485  0.00  0.00    +0.000 NA
ATOM     25  C   UNL     1       5.551   3.839  15.750  0.00  0.00    +0.000 A 
ATOM     26  C   UNL     1       4.840   4.600  16.669  0.00  0.00    +0.000 A 
ATOM     27  C   UNL     1       5.536   5.591  17.364  0.00  0.00    +0.000 A 
BRANCH  22  29
ATOM     28  O   UNL     1       7.713   8.023  17.232  0.00  0.00    +0.000 OA
ATOM     29  C   UNL     1       7.591   6.924  17.748  0.00  0.00    +0.000 C 
BRANCH  29  30
ATOM     30  O   UNL     1       8.145   6.597  18.931  0.00  0.00    +0.000 OA
ATOM     31  H   UNL     1       8.296   7.322  19.567  0.00  0.00    +0.000 HD
ENDBRANCH  29  30
ENDBRANCH  22  29
ENDBRANCH  21  26
ENDBRANCH   1  21
TORSDOF 7
ENDMDL
MODEL 5
REMARK VINA RESULT:      -7.6      1.773      2.718
REMARK  Name = 
REMARK  7 active torsions:
REMARK  status: ('A' for Active; 'I' for Inactive)
REMARK    1  A    between atoms: C_2  and  O_3
REMARK    2  A    between atoms: C_2  and  C_4
REMARK    3  A    between atoms: C_8  and  O_9
REMARK    4  A    between atoms: O_9  and  C_10
REMARK    5  A    between atoms: C_16  and  N_17
REMARK    6  A    between atoms: N_17  and  S_18
REMARK    7  A    between atoms: S_18  and  C_21
REMARK                            x       y       z     vdW  Elec       q    Type
REMARK                         _______ _______ _______ _____ _____    ______ ____
ROOT
ATOM      1  C   UNL     1       4.365   3.547  19.380  0.00  0.00    +0.000 A 
ATOM      2  N   UNL     1       4.218   2.225  19.106  0.00  0.00    +0.000 NA
ATOM      3  C   UNL     1       2.961   1.759  18.975  0.00  0.00    +0.000 A 
ATOM      4  C   UNL     1       1.838   2.558  19.067  0.00  0.00    +0.000 A 
ATOM      5 CL   UNL     1       0.275   1.874  18.889  0.00  0.00    +0.000 Cl
ATOM      6  C   UNL     1       2.003   3.926  19.293  0.00  0.00    +0.000 A 
ATOM      7  C   UNL     1       3.296   4.447  19.447  0.00  0.00    +0.000 A 
ENDROOT
BRANCH   7   8
ATOM      8  N   UNL     1       3.452   5.864  19.614  0.00  0.00    +0.000 N 
ATOM      9  H   UNL     1       3.801   6.244  20.493  0.00  0.00    +0.000 HD
BRANCH   8  10
ATOM     10  S   UNL     1       2.880   6.930  18.462  0.00  0.00    +0.000 S 
ATOM     11  O   UNL     1       4.028   7.649  17.934  0.00  0.00    +0.000 OA
ATOM     12  O   UNL     1       1.959   6.229  17.599  0.00  0.00    +0.000 OA
BRANCH  10  13
ATOM     13  C   UNL     1       1.945   8.100  19.421  0.00  0.00    +0.000 A 
ATOM     14  C   UNL     1       1.644   7.818  20.757  0.00  0.00    +0.000 A 
ATOM     15  C   UNL     1       0.839   8.702  21.483  0.00  0.00    +0.000 A 
ATOM     16  C   UNL     1       0.355   9.872  20.881  0.00  0.00    +0.000 A 
ATOM     17 CL   UNL     1      -0.662  10.900  21.825  0.00  0.00    +0.000 Cl
ATOM     18  C   UNL     1       0.686  10.159  19.551  0.00  0.00    +0.000 A 
ATOM     19 CL   UNL     1       0.082  11.555  18.730  0.00  0.00    +0.000 Cl
ATOM     20  C   UNL     1       1.489   9.277  18.821  0.00  0.00    +0.000 A 
ENDBRANCH  10  13
ENDBRANCH   8  10
ENDBRANCH   7   8
BRANCH   1  21
ATOM     21  O   UNL     1       5.654   4.016  19.538  0.00  0.00    +0.000 OA
BRANCH  21  26
ATOM     22  C   UNL     1       6.811   5.351  16.279  0.00  0.00    +0.000 A 
ATOM     23  C   UNL     1       7.515   6.437  16.782  0.00  0.00    +0.000 A 
ATOM     24  N   UNL     1       7.594   6.732  18.102  0.00  0.00    +0.000 NA
ATOM     25  C   UNL     1       6.926   5.909  18.948  0.00  0.00    +0.000 A 
ATOM     26  C   UNL     1       6.173   4.815  18.544  0.00  0.00    +0.000 A 
ATOM     27  C   UNL     1       6.101   4.549  17.175  0.00  0.00    +0.000 A 
BRANCH  22  29
ATOM     28  O   UNL     1       7.686   5.379  14.079  0.00  0.00    +0.000 OA
ATOM     29  C   UNL     1       6.813   5.004  14.845  0.00  0.00    +0.000 C 
BRANCH  29  30
ATOM     30  O   UNL     1       5.731   4.307  14.446  0.00  0.00    +0.000 OA
ATOM     31  H   UNL     1       5.066   4.091  15.127  0.00  0.00    +0.000 HD
ENDBRANCH  29  30
ENDBRANCH  22  29
ENDBRANCH  21  26
ENDBRANCH   1  21
TORSDOF 7
ENDMDL
MODEL 6
REMARK VINA RESULT:      -7.5      1.713      2.329
REMARK  Name = 
REMARK  7 active torsions:
REMARK  status: ('A' for Active; 'I' for Inactive)
REMARK    1  A    between atoms: C_2  and  O_3
REMARK    2  A    between atoms: C_2  and  C_4
REMARK    3  A    between atoms: C_8  and  O_9
REMARK    4  A    between atoms: O_9  and  C_10
REMARK    5  A    between atoms: C_16  and  N_17
REMARK    6  A    between atoms: N_17  and  S_18
REMARK    7  A    between atoms: S_18  and  C_21
REMARK                            x       y       z     vdW  Elec       q    Type
REMARK                         _______ _______ _______ _____ _____    ______ ____
ROOT
ATOM      1  C   UNL     1       4.314   3.652  19.505  0.00  0.00    +0.000 A 
ATOM      2  N   UNL     1       4.216   2.312  19.300  0.00  0.00    +0.000 NA
ATOM      3  C   UNL     1       2.980   1.802  19.141  0.00  0.00    +0.000 A 
ATOM      4  C   UNL     1       1.832   2.570  19.138  0.00  0.00    +0.000 A 
ATOM      5 CL   UNL     1       0.298   1.831  18.929  0.00  0.00    +0.000 Cl
ATOM      6  C   UNL     1       1.949   3.953  19.292  0.00  0.00    +0.000 A 
ATOM      7  C   UNL     1       3.218   4.522  19.474  0.00  0.00    +0.000 A 
ENDROOT
BRANCH   7   8
ATOM      8  N   UNL     1       3.327   5.949  19.566  0.00  0.00    +0.000 N 
ATOM      9  H   UNL     1       3.540   6.393  20.459  0.00  0.00    +0.000 HD
BRANCH   8  10
ATOM     10  S   UNL     1       2.910   6.925  18.277  0.00  0.00    +0.000 S 
ATOM     11  O   UNL     1       4.137   7.524  17.776  0.00  0.00    +0.000 OA
ATOM     12  O   UNL     1       2.013   6.194  17.413  0.00  0.00    +0.000 OA
BRANCH  10  13
ATOM     13  C   UNL     1       1.982   8.236  19.042  0.00  0.00    +0.000 A 
ATOM     14  C   UNL     1       1.617   9.357  18.291  0.00  0.00    +0.000 A 
ATOM     15  C   UNL     1       0.959  10.420  18.917  0.00  0.00    +0.000 A 
ATOM     16  C   UNL     1       0.650  10.353  20.282  0.00  0.00    +0.000 A 
ATOM     17 CL   UNL     1      -0.131  11.717  20.998  0.00  0.00    +0.000 Cl
ATOM     18  C   UNL     1       0.995   9.213  21.020  0.00  0.00    +0.000 A 
ATOM     19 CL   UNL     1       0.692   9.085  22.716  0.00  0.00    +0.000 Cl
ATOM     20  C   UNL     1       1.654   8.148  20.398  0.00  0.00    +0.000 A 
ENDBRANCH  10  13
ENDBRANCH   8  10
ENDBRANCH   7   8
BRANCH   1  21
ATOM     21  O   UNL     1       5.580   4.168  19.693  0.00  0.00    +0.000 OA
BRANCH  21  26
ATOM     22  C   UNL     1       6.840   5.238  16.375  0.00  0.00    +0.000 A 
ATOM     23  C   UNL     1       7.572   6.331  16.817  0.00  0.00    +0.000 A 
ATOM     24  N   UNL     1       7.638   6.712  18.115  0.00  0.00    +0.000 NA
ATOM     25  C   UNL     1       6.927   5.972  19.001  0.00  0.00    +0.000 A 
ATOM     26  C   UNL     1       6.144   4.879  18.658  0.00  0.00    +0.000 A 
ATOM     27  C   UNL     1       6.086   4.523  17.309  0.00  0.00    +0.000 A 
BRANCH  22  29
ATOM     28  O   UNL     1       6.183   3.856  14.568  0.00  0.00    +0.000 OA
ATOM     29  C   UNL     1       6.854   4.794  14.967  0.00  0.00    +0.000 C 
BRANCH  29  30
ATOM     30  O   UNL     1       7.723   5.465  14.188  0.00  0.00    +0.000 OA
ATOM     31  H   UNL     1       8.478   5.896  14.632  0.00  0.00    +0.000 HD
ENDBRANCH  29  30
ENDBRANCH  22  29
ENDBRANCH  21  26
ENDBRANCH   1  21
TORSDOF 7
ENDMDL
MODEL 7
REMARK VINA RESULT:      -7.5      1.377      2.060
REMARK  Name = 
REMARK  7 active torsions:
REMARK  status: ('A' for Active; 'I' for Inactive)
REMARK    1  A    between atoms: C_2  and  O_3
REMARK    2  A    between atoms: C_2  and  C_4
REMARK    3  A    between atoms: C_8  and  O_9
REMARK    4  A    between atoms: O_9  and  C_10
REMARK    5  A    between atoms: C_16  and  N_17
REMARK    6  A    between atoms: N_17  and  S_18
REMARK    7  A    between atoms: S_18  and  C_21
REMARK                            x       y       z     vdW  Elec       q    Type
REMARK                         _______ _______ _______ _____ _____    ______ ____
ROOT
ATOM      1  C   UNL     1       2.858   4.473  18.384  0.00  0.00    +0.000 A 
ATOM      2  N   UNL     1       2.458   3.176  18.315  0.00  0.00    +0.000 NA
ATOM      3  C   UNL     1       1.970   2.621  19.441  0.00  0.00    +0.000 A 
ATOM      4  C   UNL     1       1.824   3.310  20.629  0.00  0.00    +0.000 A 
ATOM      5 CL   UNL     1       1.193   2.518  22.014  0.00  0.00    +0.000 Cl
ATOM      6  C   UNL     1       2.185   4.658  20.674  0.00  0.00    +0.000 A 
ATOM      7  C   UNL     1       2.710   5.269  19.526  0.00  0.00    +0.000 A 
ENDROOT
BRANCH   7   8
ATOM      8  N   UNL     1       3.015   6.670  19.569  0.00  0.00    +0.000 N 
ATOM      9  H   UNL     1       3.690   7.030  20.244  0.00  0.00    +0.000 HD
BRANCH   8  10
ATOM     10  S   UNL     1       2.136   7.767  18.667  0.00  0.00    +0.000 S 
ATOM     11  O   UNL     1       3.088   8.660  18.027  0.00  0.00    +0.000 OA
ATOM     12  O   UNL     1       1.139   7.049  17.909  0.00  0.00    +0.000 OA
BRANCH  10  13
ATOM     13  C   UNL     1       1.292   8.726  19.905  0.00  0.00    +0.000 A 
ATOM     14  C   UNL     1       1.380   8.353  21.250  0.00  0.00    +0.000 A 
ATOM     15  C   UNL     1       0.649   9.061  22.209  0.00  0.00    +0.000 A 
ATOM     16  C   UNL     1      -0.149  10.147  21.828  0.00  0.00    +0.000 A 
ATOM     17 CL   UNL     1      -1.053  10.953  23.060  0.00  0.00    +0.000 Cl
ATOM     18  C   UNL     1      -0.209  10.531  20.482  0.00  0.00    +0.000 A 
ATOM     19 CL   UNL     1      -1.212  11.827  19.934  0.00  0.00    +0.000 Cl
ATOM     20  C   UNL     1       0.520   9.824  19.519  0.00  0.00    +0.000 A 
ENDBRANCH  10  13
ENDBRANCH   8  10
ENDBRANCH   7   8
BRANCH   1  21
ATOM     21  O   UNL     1       3.382   5.031  17.235  0.00  0.00    +0.000 OA
BRANCH  21  26
ATOM     22  C   UNL     1       6.920   6.131  17.334  0.00  0.00    +0.000 A 
ATOM     23  C   UNL     1       7.431   5.129  16.521  0.00  0.00    +0.000 A 
ATOM     24  N   UNL     1       6.675   4.140  15.987  0.00  0.00    +0.000 NA
ATOM     25  C   UNL     1       5.355   4.152  16.295  0.00  0.00    +0.000 A 
ATOM     26  C   UNL     1       4.752   5.093  17.118  0.00  0.00    +0.000 A 
ATOM     27  C   UNL     1       5.563   6.089  17.664  0.00  0.00    +0.000 A 
BRANCH  22  29
ATOM     28  O   UNL     1       7.863   8.301  17.231  0.00  0.00    +0.000 OA
ATOM     29  C   UNL     1       7.751   7.245  17.832  0.00  0.00    +0.000 C 
BRANCH  29  30
ATOM     30  O   UNL     1       8.427   6.963  18.963  0.00  0.00    +0.000 OA
ATOM     31  H   UNL     1       9.238   6.428  18.873  0.00  0.00    +0.000 HD
ENDBRANCH  29  30
ENDBRANCH  22  29
ENDBRANCH  21  26
ENDBRANCH   1  21
TORSDOF 7
ENDMDL
MODEL 8
REMARK VINA RESULT:      -7.5      2.096      2.828
REMARK  Name = 
REMARK  7 active torsions:
REMARK  status: ('A' for Active; 'I' for Inactive)
REMARK    1  A    between atoms: C_2  and  O_3
REMARK    2  A    between atoms: C_2  and  C_4
REMARK    3  A    between atoms: C_8  and  O_9
REMARK    4  A    between atoms: O_9  and  C_10
REMARK    5  A    between atoms: C_16  and  N_17
REMARK    6  A    between atoms: N_17  and  S_18
REMARK    7  A    between atoms: S_18  and  C_21
REMARK                            x       y       z     vdW  Elec       q    Type
REMARK                         _______ _______ _______ _____ _____    ______ ____
ROOT
ATOM      1  C   UNL     1       3.105   5.561  18.190  0.00  0.00    +0.000 A 
ATOM      2  N   UNL     1       2.960   4.238  17.917  0.00  0.00    +0.000 NA
ATOM      3  C   UNL     1       2.295   3.492  18.821  0.00  0.00    +0.000 A 
ATOM      4  C   UNL     1       1.733   4.010  19.971  0.00  0.00    +0.000 A 
ATOM      5 CL   UNL     1       0.906   2.981  21.068  0.00  0.00    +0.000 Cl
ATOM      6  C   UNL     1       1.840   5.381  20.213  0.00  0.00    +0.000 A 
ATOM      7  C   UNL     1       2.535   6.189  19.302  0.00  0.00    +0.000 A 
ENDROOT
BRANCH   7   8
ATOM      8  N   UNL     1       2.580   7.605  19.532  0.00  0.00    +0.000 N 
ATOM      9  H   UNL     1       3.014   7.977  20.376  0.00  0.00    +0.000 HD
BRANCH   8  10
ATOM     10  S   UNL     1       1.753   8.661  18.536  0.00  0.00    +0.000 S 
ATOM     11  O   UNL     1       2.725   9.605  18.007  0.00  0.00    +0.000 OA
ATOM     12  O   UNL     1       0.886   7.898  17.669  0.00  0.00    +0.000 OA
BRANCH  10  13
ATOM     13  C   UNL     1       0.727   9.569  19.670  0.00  0.00    +0.000 A 
ATOM     14  C   UNL     1       0.004  10.677  19.216  0.00  0.00    +0.000 A 
ATOM     15  C   UNL     1      -0.736  11.436  20.127  0.00  0.00    +0.000 A 
ATOM     16  C   UNL     1      -0.769  11.078  21.481  0.00  0.00    +0.000 A 
ATOM     17 CL   UNL     1      -1.674  12.081  22.557  0.00  0.00    +0.000 Cl
ATOM     18  C   UNL     1      -0.064   9.950  21.922  0.00  0.00    +0.000 A 
ATOM     19 CL   UNL     1      -0.019   9.480  23.584  0.00  0.00    +0.000 Cl
ATOM     20  C   UNL     1       0.679   9.188  21.013  0.00  0.00    +0.000 A 
ENDBRANCH  10  13
ENDBRANCH   8  10
ENDBRANCH   7   8
BRANCH   1  21
ATOM     21  O   UNL     1       3.808   6.317  17.273  0.00  0.00    +0.000 OA
BRANCH  21  26
ATOM     22  C   UNL     1       6.686   5.061  15.302  0.00  0.00    +0.000 A 
ATOM     23  C   UNL     1       7.483   4.698  16.379  0.00  0.00    +0.000 A 
ATOM     24  N   UNL     1       7.117   4.870  17.672  0.00  0.00    +0.000 NA
ATOM     25  C   UNL     1       5.907   5.442  17.889  0.00  0.00    +0.000 A 
ATOM     26  C   UNL     1       5.048   5.863  16.883  0.00  0.00    +0.000 A 
ATOM     27  C   UNL     1       5.464   5.686  15.562  0.00  0.00    +0.000 A 
BRANCH  22  29
ATOM     28  O   UNL     1       6.558   3.898  13.244  0.00  0.00    +0.000 OA
ATOM     29  C   UNL     1       7.073   4.785  13.905  0.00  0.00    +0.000 C 
BRANCH  29  30
ATOM     30  O   UNL     1       8.090   5.546  13.455  0.00  0.00    +0.000 OA
ATOM     31  H   UNL     1       8.649   5.980  14.126  0.00  0.00    +0.000 HD
ENDBRANCH  29  30
ENDBRANCH  22  29
ENDBRANCH  21  26
ENDBRANCH   1  21
TORSDOF 7
ENDMDL
MODEL 9
REMARK VINA RESULT:      -7.4      2.005      2.837
REMARK  Name = 
REMARK  7 active torsions:
REMARK  status: ('A' for Active; 'I' for Inactive)
REMARK    1  A    between atoms: C_2  and  O_3
REMARK    2  A    between atoms: C_2  and  C_4
REMARK    3  A    between atoms: C_8  and  O_9
REMARK    4  A    between atoms: O_9  and  C_10
REMARK    5  A    between atoms: C_16  and  N_17
REMARK    6  A    between atoms: N_17  and  S_18
REMARK    7  A    between atoms: S_18  and  C_21
REMARK                            x       y       z     vdW  Elec       q    Type
REMARK                         _______ _______ _______ _____ _____    ______ ____
ROOT
ATOM      1  C   UNL     1       2.933   4.773  18.430  0.00  0.00    +0.000 A 
ATOM      2  N   UNL     1       2.616   3.458  18.307  0.00  0.00    +0.000 NA
ATOM      3  C   UNL     1       2.152   2.830  19.405  0.00  0.00    +0.000 A 
ATOM      4  C   UNL     1       1.952   3.462  20.617  0.00  0.00    +0.000 A 
ATOM      5 CL   UNL     1       1.359   2.579  21.963  0.00  0.00    +0.000 Cl
ATOM      6  C   UNL     1       2.228   4.827  20.717  0.00  0.00    +0.000 A 
ATOM      7  C   UNL     1       2.724   5.513  19.599  0.00  0.00    +0.000 A 
ENDROOT
BRANCH   7   8
ATOM      8  N   UNL     1       2.941   6.928  19.700  0.00  0.00    +0.000 N 
ATOM      9  H   UNL     1       3.556   7.305  20.420  0.00  0.00    +0.000 HD
BRANCH   8  10
ATOM     10  S   UNL     1       2.045   7.999  18.784  0.00  0.00    +0.000 S 
ATOM     11  O   UNL     1       2.982   8.911  18.148  0.00  0.00    +0.000 OA
ATOM     12  O   UNL     1       1.072   7.254  18.020  0.00  0.00    +0.000 OA
BRANCH  10  13
ATOM     13  C   UNL     1       1.168   8.945  20.009  0.00  0.00    +0.000 A 
ATOM     14  C   UNL     1       1.099   8.480  21.325  0.00  0.00    +0.000 A 
ATOM     15  C   UNL     1       0.340   9.184  22.265  0.00  0.00    +0.000 A 
ATOM     16  C   UNL     1      -0.330  10.357  21.895  0.00  0.00    +0.000 A 
ATOM     17 CL   UNL     1      -1.278  11.156  23.098  0.00  0.00    +0.000 Cl
ATOM     18  C   UNL     1      -0.231  10.831  20.580  0.00  0.00    +0.000 A 
ATOM     19 CL   UNL     1      -1.072  12.242  20.042  0.00  0.00    +0.000 Cl
ATOM     20  C   UNL     1       0.526  10.129  19.637  0.00  0.00    +0.000 A 
ENDBRANCH  10  13
ENDBRANCH   8  10
ENDBRANCH   7   8
BRANCH   1  21
ATOM     21  O   UNL     1       3.432   5.406  17.310  0.00  0.00    +0.000 OA
BRANCH  21  26
ATOM     22  C   UNL     1       6.625   4.883  15.500  0.00  0.00    +0.000 A 
ATOM     23  C   UNL     1       7.382   4.504  16.600  0.00  0.00    +0.000 A 
ATOM     24  N   UNL     1       6.891   4.442  17.861  0.00  0.00    +0.000 NA
ATOM     25  C   UNL     1       5.590   4.787  18.023  0.00  0.00    +0.000 A 
ATOM     26  C   UNL     1       4.757   5.204  16.994  0.00  0.00    +0.000 A 
ATOM     27  C   UNL     1       5.300   5.272  15.710  0.00  0.00    +0.000 A 
BRANCH  22  29
ATOM     28  O   UNL     1       6.720   4.122  13.260  0.00  0.00    +0.000 OA
ATOM     29  C   UNL     1       7.162   4.861  14.126  0.00  0.00    +0.000 C 
BRANCH  29  30
ATOM     30  O   UNL     1       8.224   5.667  13.937  0.00  0.00    +0.000 OA
ATOM     31  H   UNL     1       8.063   6.628  13.966  0.00  0.00    +0.000 HD
ENDBRANCH  29  30
ENDBRANCH  22  29
ENDBRANCH  21  26
ENDBRANCH   1  21
TORSDOF 7
ENDMDL
