MODEL 1
REMARK VINA RESULT:      -8.2      0.000      0.000
REMARK  Name = 
REMARK  6 active torsions:
REMARK  status: ('A' for Active; 'I' for Inactive)
REMARK    1  A    between atoms: C_1  and  C_2
REMARK    2  A    between atoms: N_7  and  C_8
REMARK    3  A    between atoms: N_12  and  C_13
REMARK    4  A    between atoms: C_14  and  C_15
REMARK    5  A    between atoms: C_15  and  C_16
REMARK    6  A    between atoms: C_16  and  C_17
REMARK                            x       y       z     vdW  Elec       q    Type
REMARK                         _______ _______ _______ _____ _____    ______ ____
ROOT
ATOM      1  C   UNL     1       4.433   5.179  18.565  0.00  0.00    +0.000 A 
ATOM      2  C   UNL     1       4.293   3.846  18.578  0.00  0.00    +0.000 A 
ATOM      3  C   UNL     1       3.207   3.235  19.330  0.00  0.00    +0.000 A 
ATOM      4  O   UNL     1       3.127   2.005  19.360  0.00  0.00    +0.000 OA
ATOM      5  N   UNL     1       2.315   4.098  19.934  0.00  0.00    +0.000 N 
ATOM      6  C   UNL     1       1.128   3.484  20.515  0.00  0.00    +0.000 C 
ATOM      7  C   UNL     1       2.571   5.450  19.926  0.00  0.00    +0.000 A 
ATOM      8  N   UNL     1       3.571   5.969  19.277  0.00  0.00    +0.000 NA
ENDROOT
BRANCH   1  15
ATOM      9  C   UNL     1       7.649   6.692  18.272  0.00  0.00    +0.000 C 
ATOM     10  C   UNL     1       6.857   5.413  17.986  0.00  0.00    +0.000 C 
ATOM     11  C   UNL     1       7.416   4.636  16.772  0.00  0.00    +0.000 C 
ATOM     12  N   UNL     1       7.206   5.312  15.474  0.00  0.00    +0.000 NA
ATOM     13  C   UNL     1       5.764   5.572  15.309  0.00  0.00    +0.000 C 
ATOM     14  C   UNL     1       5.139   6.378  16.468  0.00  0.00    +0.000 C 
ATOM     15  N   UNL     1       5.425   5.750  17.777  0.00  0.00    +0.000 N 
ATOM     16  H   UNL     1       7.520   4.697  14.726  0.00  0.00    +0.000 HD
ENDBRANCH   1  15
BRANCH   7  17
ATOM     17  C   UNL     1       1.667   6.468  20.620  0.00  0.00    +0.000 C 
BRANCH  17  18
ATOM     18  C   UNL     1       1.780   7.939  20.217  0.00  0.00    +0.000 C 
BRANCH  18  19
ATOM     19  C   UNL     1       0.942   8.934  20.981  0.00  0.00    +0.000 A 
ATOM     20  C   UNL     1       0.777   8.879  22.371  0.00  0.00    +0.000 A 
ATOM     21  C   UNL     1      -0.072   9.782  23.018  0.00  0.00    +0.000 A 
ATOM     22  C   UNL     1      -0.738  10.765  22.290  0.00  0.00    +0.000 A 
ATOM     23  C   UNL     1      -0.527  10.875  20.920  0.00  0.00    +0.000 A 
ATOM     24  C   UNL     1       0.319   9.974  20.273  0.00  0.00    +0.000 A 
ENDBRANCH  18  19
ENDBRANCH  17  18
ENDBRANCH   7  17
TORSDOF 4
ENDMDL
MODEL 2
REMARK VINA RESULT:      -8.2      0.320      1.054
REMARK  Name = 
REMARK  6 active torsions:
REMARK  status: ('A' for Active; 'I' for Inactive)
REMARK    1  A    between atoms: C_1  and  C_2
REMARK    2  A    between atoms: N_7  and  C_8
REMARK    3  A    between atoms: N_12  and  C_13
REMARK    4  A    between atoms: C_14  and  C_15
REMARK    5  A    between atoms: C_15  and  C_16
REMARK    6  A    between atoms: C_16  and  C_17
REMARK                            x       y       z     vdW  Elec       q    Type
REMARK                         _______ _______ _______ _____ _____    ______ ____
ROOT
ATOM      1  C   UNL     1       4.602   5.269  18.749  0.00  0.00    +0.000 A 
ATOM      2  C   UNL     1       4.634   3.947  18.970  0.00  0.00    +0.000 A 
ATOM      3  C   UNL     1       3.622   3.325  19.811  0.00  0.00    +0.000 A 
ATOM      4  O   UNL     1       3.700   2.115  20.033  0.00  0.00    +0.000 OA
ATOM      5  N   UNL     1       2.616   4.148  20.274  0.00  0.00    +0.000 N 
ATOM      6  C   UNL     1       1.507   3.484  20.946  0.00  0.00    +0.000 C 
ATOM      7  C   UNL     1       2.697   5.504  20.054  0.00  0.00    +0.000 A 
ATOM      8  N   UNL     1       3.633   6.041  19.331  0.00  0.00    +0.000 NA
ENDROOT
BRANCH   1  15
ATOM      9  C   UNL     1       7.740   6.873  18.201  0.00  0.00    +0.000 C 
ATOM     10  C   UNL     1       6.979   5.556  18.020  0.00  0.00    +0.000 C 
ATOM     11  C   UNL     1       7.497   4.741  16.813  0.00  0.00    +0.000 C 
ATOM     12  N   UNL     1       7.191   5.347  15.499  0.00  0.00    +0.000 NA
ATOM     13  C   UNL     1       5.732   5.551  15.406  0.00  0.00    +0.000 C 
ATOM     14  C   UNL     1       5.145   6.390  16.562  0.00  0.00    +0.000 C 
ATOM     15  N   UNL     1       5.527   5.834  17.880  0.00  0.00    +0.000 N 
ATOM     16  H   UNL     1       7.483   4.708  14.764  0.00  0.00    +0.000 HD
ENDBRANCH   1  15
BRANCH   7  17
ATOM     17  C   UNL     1       1.656   6.492  20.582  0.00  0.00    +0.000 C 
BRANCH  17  18
ATOM     18  C   UNL     1       1.796   7.968  20.208  0.00  0.00    +0.000 C 
BRANCH  18  19
ATOM     19  C   UNL     1       0.881   8.948  20.901  0.00  0.00    +0.000 A 
ATOM     20  C   UNL     1       0.207   9.970  20.220  0.00  0.00    +0.000 A 
ATOM     21  C   UNL     1      -0.569  10.896  20.923  0.00  0.00    +0.000 A 
ATOM     22  C   UNL     1      -0.706  10.792  22.305  0.00  0.00    +0.000 A 
ATOM     23  C   UNL     1      -0.100   9.739  22.984  0.00  0.00    +0.000 A 
ATOM     24  C   UNL     1       0.675   8.816  22.283  0.00  0.00    +0.000 A 
ENDBRANCH  18  19
ENDBRANCH  17  18
ENDBRANCH   7  17
TORSDOF 4
ENDMDL
MODEL 3
REMARK VINA RESULT:      -8.1      2.425      5.166
REMARK  Name = 
REMARK  6 active torsions:
REMARK  status: ('A' for Active; 'I' for Inactive)
REMARK    1  A    between atoms: C_1  and  C_2
REMARK    2  A    between atoms: N_7  and  C_8
REMARK    3  A    between atoms: N_12  and  C_13
REMARK    4  A    between atoms: C_14  and  C_15
REMARK    5  A    between atoms: C_15  and  C_16
REMARK    6  A    between atoms: C_16  and  C_17
REMARK                            x       y       z     vdW  Elec       q    Type
REMARK                         _______ _______ _______ _____ _____    ______ ____
ROOT
ATOM      1  C   UNL     1       3.993   6.938  17.790  0.00  0.00    +0.000 A 
ATOM      2  C   UNL     1       3.490   8.104  17.359  0.00  0.00    +0.000 A 
ATOM      3  C   UNL     1       2.348   8.700  18.037  0.00  0.00    +0.000 A 
ATOM      4  O   UNL     1       1.879   9.750  17.594  0.00  0.00    +0.000 OA
ATOM      5  N   UNL     1       1.894   8.048  19.166  0.00  0.00    +0.000 N 
ATOM      6  C   UNL     1       0.885   8.753  19.947  0.00  0.00    +0.000 C 
ATOM      7  C   UNL     1       2.425   6.823  19.499  0.00  0.00    +0.000 A 
ATOM      8  N   UNL     1       3.421   6.293  18.854  0.00  0.00    +0.000 NA
ENDROOT
BRANCH   1  15
ATOM      9  C   UNL     1       7.536   6.925  17.388  0.00  0.00    +0.000 C 
ATOM     10  C   UNL     1       6.358   6.139  17.970  0.00  0.00    +0.000 C 
ATOM     11  C   UNL     1       6.634   4.618  18.018  0.00  0.00    +0.000 C 
ATOM     12  N   UNL     1       6.686   3.972  16.689  0.00  0.00    +0.000 NA
ATOM     13  C   UNL     1       5.422   4.252  15.982  0.00  0.00    +0.000 C 
ATOM     14  C   UNL     1       5.095   5.757  15.862  0.00  0.00    +0.000 C 
ATOM     15  N   UNL     1       5.131   6.424  17.182  0.00  0.00    +0.000 N 
ATOM     16  H   UNL     1       6.780   2.967  16.814  0.00  0.00    +0.000 HD
ENDBRANCH   1  15
BRANCH   7  17
ATOM     17  C   UNL     1       1.939   6.009  20.698  0.00  0.00    +0.000 C 
BRANCH  17  18
ATOM     18  C   UNL     1       1.251   4.668  20.438  0.00  0.00    +0.000 C 
BRANCH  18  19
ATOM     19  C   UNL     1       2.045   3.612  19.709  0.00  0.00    +0.000 A 
ATOM     20  C   UNL     1       3.190   3.014  20.249  0.00  0.00    +0.000 A 
ATOM     21  C   UNL     1       3.930   2.096  19.498  0.00  0.00    +0.000 A 
ATOM     22  C   UNL     1       3.515   1.741  18.217  0.00  0.00    +0.000 A 
ATOM     23  C   UNL     1       2.340   2.273  17.697  0.00  0.00    +0.000 A 
ATOM     24  C   UNL     1       1.602   3.191  18.445  0.00  0.00    +0.000 A 
ENDBRANCH  18  19
ENDBRANCH  17  18
ENDBRANCH   7  17
TORSDOF 4
ENDMDL
MODEL 4
REMARK VINA RESULT:      -8.1      1.031      1.535
REMARK  Name = 
REMARK  6 active torsions:
REMARK  status: ('A' for Active; 'I' for Inactive)
REMARK    1  A    between atoms: C_1  and  C_2
REMARK    2  A    between atoms: N_7  and  C_8
REMARK    3  A    between atoms: N_12  and  C_13
REMARK    4  A    between atoms: C_14  and  C_15
REMARK    5  A    between atoms: C_15  and  C_16
REMARK    6  A    between atoms: C_16  and  C_17
REMARK                            x       y       z     vdW  Elec       q    Type
REMARK                         _______ _______ _______ _____ _____    ______ ____
ROOT
ATOM      1  C   UNL     1       4.700   5.110  18.855  0.00  0.00    +0.000 A 
ATOM      2  C   UNL     1       4.899   3.816  19.146  0.00  0.00    +0.000 A 
ATOM      3  C   UNL     1       3.958   3.108  20.001  0.00  0.00    +0.000 A 
ATOM      4  O   UNL     1       4.188   1.932  20.287  0.00  0.00    +0.000 OA
ATOM      5  N   UNL     1       2.841   3.814  20.403  0.00  0.00    +0.000 N 
ATOM      6  C   UNL     1       1.813   3.043  21.089  0.00  0.00    +0.000 C 
ATOM      7  C   UNL     1       2.749   5.156  20.113  0.00  0.00    +0.000 A 
ATOM      8  N   UNL     1       3.625   5.775  19.379  0.00  0.00    +0.000 NA
ENDROOT
BRANCH   1  15
ATOM      9  C   UNL     1       7.778   6.801  18.236  0.00  0.00    +0.000 C 
ATOM     10  C   UNL     1       7.026   5.487  18.010  0.00  0.00    +0.000 C 
ATOM     11  C   UNL     1       7.481   4.764  16.721  0.00  0.00    +0.000 C 
ATOM     12  N   UNL     1       7.089   5.452  15.473  0.00  0.00    +0.000 NA
ATOM     13  C   UNL     1       5.625   5.636  15.480  0.00  0.00    +0.000 C 
ATOM     14  C   UNL     1       5.096   6.385  16.723  0.00  0.00    +0.000 C 
ATOM     15  N   UNL     1       5.564   5.749  17.974  0.00  0.00    +0.000 N 
ATOM     16  H   UNL     1       7.345   4.869  14.679  0.00  0.00    +0.000 HD
ENDBRANCH   1  15
BRANCH   7  17
ATOM     17  C   UNL     1       1.576   6.022  20.571  0.00  0.00    +0.000 C 
BRANCH  17  18
ATOM     18  C   UNL     1       1.853   7.471  20.975  0.00  0.00    +0.000 C 
BRANCH  18  19
ATOM     19  C   UNL     1       1.198   8.557  20.157  0.00  0.00    +0.000 A 
ATOM     20  C   UNL     1       0.186   9.383  20.663  0.00  0.00    +0.000 A 
ATOM     21  C   UNL     1      -0.438  10.322  19.836  0.00  0.00    +0.000 A 
ATOM     22  C   UNL     1      -0.038  10.468  18.511  0.00  0.00    +0.000 A 
ATOM     23  C   UNL     1       1.015   9.703  18.017  0.00  0.00    +0.000 A 
ATOM     24  C   UNL     1       1.637   8.765  18.840  0.00  0.00    +0.000 A 
ENDBRANCH  18  19
ENDBRANCH  17  18
ENDBRANCH   7  17
TORSDOF 4
ENDMDL
MODEL 5
REMARK VINA RESULT:      -8.0      1.822      4.564
REMARK  Name = 
REMARK  6 active torsions:
REMARK  status: ('A' for Active; 'I' for Inactive)
REMARK    1  A    between atoms: C_1  and  C_2
REMARK    2  A    between atoms: N_7  and  C_8
REMARK    3  A    between atoms: N_12  and  C_13
REMARK    4  A    between atoms: C_14  and  C_15
REMARK    5  A    between atoms: C_15  and  C_16
REMARK    6  A    between atoms: C_16  and  C_17
REMARK                            x       y       z     vdW  Elec       q    Type
REMARK                         _______ _______ _______ _____ _____    ______ ____
ROOT
ATOM      1  C   UNL     1       3.941   4.213  18.834  0.00  0.00    +0.000 A 
ATOM      2  C   UNL     1       5.234   3.865  18.770  0.00  0.00    +0.000 A 
ATOM      3  C   UNL     1       6.211   4.791  18.219  0.00  0.00    +0.000 A 
ATOM      4  O   UNL     1       7.387   4.429  18.132  0.00  0.00    +0.000 OA
ATOM      5  N   UNL     1       5.743   6.040  17.863  0.00  0.00    +0.000 N 
ATOM      6  C   UNL     1       6.757   7.022  17.500  0.00  0.00    +0.000 C 
ATOM      7  C   UNL     1       4.390   6.291  17.900  0.00  0.00    +0.000 A 
ATOM      8  N   UNL     1       3.532   5.431  18.361  0.00  0.00    +0.000 NA
ENDROOT
BRANCH   1  15
ATOM      9  C   UNL     1       2.579   2.731  21.778  0.00  0.00    +0.000 C 
ATOM     10  C   UNL     1       2.299   3.744  20.664  0.00  0.00    +0.000 C 
ATOM     11  C   UNL     1       0.788   3.892  20.372  0.00  0.00    +0.000 C 
ATOM     12  N   UNL     1       0.177   2.703  19.739  0.00  0.00    +0.000 NA
ATOM     13  C   UNL     1       0.921   2.396  18.503  0.00  0.00    +0.000 C 
ATOM     14  C   UNL     1       2.437   2.199  18.720  0.00  0.00    +0.000 C 
ATOM     15  N   UNL     1       3.034   3.349  19.435  0.00  0.00    +0.000 N 
ATOM     16  H   UNL     1      -0.789   2.916  19.500  0.00  0.00    +0.000 HD
ENDBRANCH   1  15
BRANCH   7  17
ATOM     17  C   UNL     1       3.784   7.625  17.467  0.00  0.00    +0.000 C 
BRANCH  17  18
ATOM     18  C   UNL     1       2.274   7.820  17.609  0.00  0.00    +0.000 C 
BRANCH  18  19
ATOM     19  C   UNL     1       1.776   8.491  18.866  0.00  0.00    +0.000 A 
ATOM     20  C   UNL     1       1.824   7.877  20.124  0.00  0.00    +0.000 A 
ATOM     21  C   UNL     1       1.280   8.514  21.243  0.00  0.00    +0.000 A 
ATOM     22  C   UNL     1       0.714   9.781  21.123  0.00  0.00    +0.000 A 
ATOM     23  C   UNL     1       0.726  10.432  19.894  0.00  0.00    +0.000 A 
ATOM     24  C   UNL     1       1.267   9.796  18.776  0.00  0.00    +0.000 A 
ENDBRANCH  18  19
ENDBRANCH  17  18
ENDBRANCH   7  17
TORSDOF 4
ENDMDL
MODEL 6
REMARK VINA RESULT:      -8.0      2.428      5.248
REMARK  Name = 
REMARK  6 active torsions:
REMARK  status: ('A' for Active; 'I' for Inactive)
REMARK    1  A    between atoms: C_1  and  C_2
REMARK    2  A    between atoms: N_7  and  C_8
REMARK    3  A    between atoms: N_12  and  C_13
REMARK    4  A    between atoms: C_14  and  C_15
REMARK    5  A    between atoms: C_15  and  C_16
REMARK    6  A    between atoms: C_16  and  C_17
REMARK                            x       y       z     vdW  Elec       q    Type
REMARK                         _______ _______ _______ _____ _____    ______ ____
ROOT
ATOM      1  C   UNL     1       4.003   6.941  17.783  0.00  0.00    +0.000 A 
ATOM      2  C   UNL     1       3.506   8.109  17.350  0.00  0.00    +0.000 A 
ATOM      3  C   UNL     1       2.365   8.710  18.024  0.00  0.00    +0.000 A 
ATOM      4  O   UNL     1       1.901   9.762  17.579  0.00  0.00    +0.000 OA
ATOM      5  N   UNL     1       1.905   8.060  19.152  0.00  0.00    +0.000 N 
ATOM      6  C   UNL     1       0.897   8.769  19.930  0.00  0.00    +0.000 C 
ATOM      7  C   UNL     1       2.431   6.833  19.488  0.00  0.00    +0.000 A 
ATOM      8  N   UNL     1       3.426   6.299  18.845  0.00  0.00    +0.000 NA
ENDROOT
BRANCH   1  15
ATOM      9  C   UNL     1       7.546   6.928  17.372  0.00  0.00    +0.000 C 
ATOM     10  C   UNL     1       6.370   6.147  17.965  0.00  0.00    +0.000 C 
ATOM     11  C   UNL     1       6.648   4.628  18.030  0.00  0.00    +0.000 C 
ATOM     12  N   UNL     1       6.698   3.967  16.707  0.00  0.00    +0.000 NA
ATOM     13  C   UNL     1       5.432   4.238  16.000  0.00  0.00    +0.000 C 
ATOM     14  C   UNL     1       5.102   5.740  15.864  0.00  0.00    +0.000 C 
ATOM     15  N   UNL     1       5.141   6.422  17.178  0.00  0.00    +0.000 N 
ATOM     16  H   UNL     1       6.794   2.963  16.843  0.00  0.00    +0.000 HD
ENDBRANCH   1  15
BRANCH   7  17
ATOM     17  C   UNL     1       1.938   6.022  20.686  0.00  0.00    +0.000 C 
BRANCH  17  18
ATOM     18  C   UNL     1       1.269   4.671  20.426  0.00  0.00    +0.000 C 
BRANCH  18  19
ATOM     19  C   UNL     1       2.050   3.652  19.632  0.00  0.00    +0.000 A 
ATOM     20  C   UNL     1       1.670   3.234  18.351  0.00  0.00    +0.000 A 
ATOM     21  C   UNL     1       2.388   2.231  17.692  0.00  0.00    +0.000 A 
ATOM     22  C   UNL     1       3.508   1.661  18.292  0.00  0.00    +0.000 A 
ATOM     23  C   UNL     1       3.938   2.118  19.533  0.00  0.00    +0.000 A 
ATOM     24  C   UNL     1       3.221   3.118  20.191  0.00  0.00    +0.000 A 
ENDBRANCH  18  19
ENDBRANCH  17  18
ENDBRANCH   7  17
TORSDOF 4
ENDMDL
MODEL 7
REMARK VINA RESULT:      -8.0      1.109      1.614
REMARK  Name = 
REMARK  6 active torsions:
REMARK  status: ('A' for Active; 'I' for Inactive)
REMARK    1  A    between atoms: C_1  and  C_2
REMARK    2  A    between atoms: N_7  and  C_8
REMARK    3  A    between atoms: N_12  and  C_13
REMARK    4  A    between atoms: C_14  and  C_15
REMARK    5  A    between atoms: C_15  and  C_16
REMARK    6  A    between atoms: C_16  and  C_17
REMARK                            x       y       z     vdW  Elec       q    Type
REMARK                         _______ _______ _______ _____ _____    ______ ____
ROOT
ATOM      1  C   UNL     1       4.261   4.818  18.043  0.00  0.00    +0.000 A 
ATOM      2  C   UNL     1       3.957   3.561  17.689  0.00  0.00    +0.000 A 
ATOM      3  C   UNL     1       2.815   2.890  18.294  0.00  0.00    +0.000 A 
ATOM      4  O   UNL     1       2.584   1.720  17.983  0.00  0.00    +0.000 OA
ATOM      5  N   UNL     1       2.047   3.644  19.159  0.00  0.00    +0.000 N 
ATOM      6  C   UNL     1       0.801   3.031  19.603  0.00  0.00    +0.000 C 
ATOM      7  C   UNL     1       2.468   4.904  19.515  0.00  0.00    +0.000 A 
ATOM      8  N   UNL     1       3.515   5.467  18.989  0.00  0.00    +0.000 NA
ENDROOT
BRANCH   1  15
ATOM      9  C   UNL     1       7.397   6.511  18.184  0.00  0.00    +0.000 C 
ATOM     10  C   UNL     1       6.719   5.203  17.766  0.00  0.00    +0.000 C 
ATOM     11  C   UNL     1       7.461   4.504  16.604  0.00  0.00    +0.000 C 
ATOM     12  N   UNL     1       7.367   5.216  15.312  0.00  0.00    +0.000 NA
ATOM     13  C   UNL     1       5.942   5.404  14.983  0.00  0.00    +0.000 C 
ATOM     14  C   UNL     1       5.139   6.131  16.084  0.00  0.00    +0.000 C 
ATOM     15  N   UNL     1       5.305   5.470  17.398  0.00  0.00    +0.000 N 
ATOM     16  H   UNL     1       7.802   4.648  14.589  0.00  0.00    +0.000 HD
ENDBRANCH   1  15
BRANCH   7  17
ATOM     17  C   UNL     1       1.708   5.780  20.510  0.00  0.00    +0.000 C 
BRANCH  17  18
ATOM     18  C   UNL     1       2.194   7.212  20.741  0.00  0.00    +0.000 C 
BRANCH  18  19
ATOM     19  C   UNL     1       1.464   8.317  20.016  0.00  0.00    +0.000 A 
ATOM     20  C   UNL     1       0.495   9.119  20.631  0.00  0.00    +0.000 A 
ATOM     21  C   UNL     1      -0.203  10.078  19.891  0.00  0.00    +0.000 A 
ATOM     22  C   UNL     1       0.083  10.267  18.541  0.00  0.00    +0.000 A 
ATOM     23  C   UNL     1       1.094   9.527  17.936  0.00  0.00    +0.000 A 
ATOM     24  C   UNL     1       1.789   8.569  18.674  0.00  0.00    +0.000 A 
ENDBRANCH  18  19
ENDBRANCH  17  18
ENDBRANCH   7  17
TORSDOF 4
ENDMDL
MODEL 8
REMARK VINA RESULT:      -8.0      1.827      4.656
REMARK  Name = 
REMARK  6 active torsions:
REMARK  status: ('A' for Active; 'I' for Inactive)
REMARK    1  A    between atoms: C_1  and  C_2
REMARK    2  A    between atoms: N_7  and  C_8
REMARK    3  A    between atoms: N_12  and  C_13
REMARK    4  A    between atoms: C_14  and  C_15
REMARK    5  A    between atoms: C_15  and  C_16
REMARK    6  A    between atoms: C_16  and  C_17
REMARK                            x       y       z     vdW  Elec       q    Type
REMARK                         _______ _______ _______ _____ _____    ______ ____
ROOT
ATOM      1  C   UNL     1       3.936   4.207  18.831  0.00  0.00    +0.000 A 
ATOM      2  C   UNL     1       5.224   3.849  18.734  0.00  0.00    +0.000 A 
ATOM      3  C   UNL     1       6.200   4.780  18.187  0.00  0.00    +0.000 A 
ATOM      4  O   UNL     1       7.370   4.409  18.068  0.00  0.00    +0.000 OA
ATOM      5  N   UNL     1       5.737   6.041  17.870  0.00  0.00    +0.000 N 
ATOM      6  C   UNL     1       6.753   7.022  17.512  0.00  0.00    +0.000 C 
ATOM      7  C   UNL     1       4.388   6.303  17.939  0.00  0.00    +0.000 A 
ATOM      8  N   UNL     1       3.530   5.440  18.396  0.00  0.00    +0.000 NA
ENDROOT
BRANCH   1  15
ATOM      9  C   UNL     1       2.564   2.726  21.771  0.00  0.00    +0.000 C 
ATOM     10  C   UNL     1       2.283   3.730  20.649  0.00  0.00    +0.000 C 
ATOM     11  C   UNL     1       0.774   3.862  20.344  0.00  0.00    +0.000 C 
ATOM     12  N   UNL     1       0.180   2.664  19.711  0.00  0.00    +0.000 NA
ATOM     13  C   UNL     1       0.938   2.359  18.483  0.00  0.00    +0.000 C 
ATOM     14  C   UNL     1       2.453   2.178  18.714  0.00  0.00    +0.000 C 
ATOM     15  N   UNL     1       3.032   3.337  19.429  0.00  0.00    +0.000 N 
ATOM     16  H   UNL     1      -0.786   2.866  19.463  0.00  0.00    +0.000 HD
ENDBRANCH   1  15
BRANCH   7  17
ATOM     17  C   UNL     1       3.786   7.653  17.551  0.00  0.00    +0.000 C 
BRANCH  17  18
ATOM     18  C   UNL     1       2.269   7.829  17.642  0.00  0.00    +0.000 C 
BRANCH  18  19
ATOM     19  C   UNL     1       1.728   8.557  18.848  0.00  0.00    +0.000 A 
ATOM     20  C   UNL     1       1.196   9.851  18.779  0.00  0.00    +0.000 A 
ATOM     21  C   UNL     1       0.778  10.507  19.941  0.00  0.00    +0.000 A 
ATOM     22  C   UNL     1       0.856   9.866  21.175  0.00  0.00    +0.000 A 
ATOM     23  C   UNL     1       1.315   8.555  21.248  0.00  0.00    +0.000 A 
ATOM     24  C   UNL     1       1.734   7.901  20.089  0.00  0.00    +0.000 A 
ENDBRANCH  18  19
ENDBRANCH  17  18
ENDBRANCH   7  17
TORSDOF 4
ENDMDL
MODEL 9
REMARK VINA RESULT:      -7.9      1.085      1.762
REMARK  Name = 
REMARK  6 active torsions:
REMARK  status: ('A' for Active; 'I' for Inactive)
REMARK    1  A    between atoms: C_1  and  C_2
REMARK    2  A    between atoms: N_7  and  C_8
REMARK    3  A    between atoms: N_12  and  C_13
REMARK    4  A    between atoms: C_14  and  C_15
REMARK    5  A    between atoms: C_15  and  C_16
REMARK    6  A    between atoms: C_16  and  C_17
REMARK                            x       y       z     vdW  Elec       q    Type
REMARK                         _______ _______ _______ _____ _____    ______ ____
ROOT
ATOM      1  C   UNL     1       4.298   4.798  18.129  0.00  0.00    +0.000 A 
ATOM      2  C   UNL     1       4.040   3.523  17.807  0.00  0.00    +0.000 A 
ATOM      3  C   UNL     1       2.907   2.834  18.407  0.00  0.00    +0.000 A 
ATOM      4  O   UNL     1       2.718   1.649  18.126  0.00  0.00    +0.000 OA
ATOM      5  N   UNL     1       2.097   3.587  19.233  0.00  0.00    +0.000 N 
ATOM      6  C   UNL     1       0.861   2.949  19.669  0.00  0.00    +0.000 C 
ATOM      7  C   UNL     1       2.471   4.870  19.561  0.00  0.00    +0.000 A 
ATOM      8  N   UNL     1       3.511   5.450  19.040  0.00  0.00    +0.000 NA
ENDROOT
BRANCH   1  15
ATOM      9  C   UNL     1       7.470   6.422  18.261  0.00  0.00    +0.000 C 
ATOM     10  C   UNL     1       6.753   5.151  17.796  0.00  0.00    +0.000 C 
ATOM     11  C   UNL     1       7.445   4.501  16.576  0.00  0.00    +0.000 C 
ATOM     12  N   UNL     1       7.327   5.283  15.327  0.00  0.00    +0.000 NA
ATOM     13  C   UNL     1       5.896   5.516  15.054  0.00  0.00    +0.000 C 
ATOM     14  C   UNL     1       5.142   6.197  16.216  0.00  0.00    +0.000 C 
ATOM     15  N   UNL     1       5.334   5.464  17.487  0.00  0.00    +0.000 N 
ATOM     16  H   UNL     1       7.727   4.746  14.561  0.00  0.00    +0.000 HD
ENDBRANCH   1  15
BRANCH   7  17
ATOM     17  C   UNL     1       1.663   5.750  20.514  0.00  0.00    +0.000 C 
BRANCH  17  18
ATOM     18  C   UNL     1       2.152   7.174  20.784  0.00  0.00    +0.000 C 
BRANCH  18  19
ATOM     19  C   UNL     1       1.532   8.286  19.975  0.00  0.00    +0.000 A 
ATOM     20  C   UNL     1       1.834   8.503  18.625  0.00  0.00    +0.000 A 
ATOM     21  C   UNL     1       1.287   9.594  17.944  0.00  0.00    +0.000 A 
ATOM     22  C   UNL     1       0.409  10.459  18.594  0.00  0.00    +0.000 A 
ATOM     23  C   UNL     1       0.044  10.213  19.914  0.00  0.00    +0.000 A 
ATOM     24  C   UNL     1       0.592   9.125  20.594  0.00  0.00    +0.000 A 
ENDBRANCH  18  19
ENDBRANCH  17  18
ENDBRANCH   7  17
TORSDOF 4
ENDMDL
