MODEL 1
REMARK VINA RESULT:      -7.2      0.000      0.000
REMARK  Name = 
REMARK  10 active torsions:
REMARK  status: ('A' for Active; 'I' for Inactive)
REMARK    1  A    between atoms: C_1  and  C_2
REMARK    2  A    between atoms: C_6  and  C_7
REMARK    3  A    between atoms: C_7  and  C_21
REMARK    4  A    between atoms: N_8  and  O_9
REMARK    5  A    between atoms: O_9  and  C_10
REMARK    6  A    between atoms: C_10  and  C_11
REMARK    7  A    between atoms: C_11  and  N_12
REMARK    8  A    between atoms: C_16  and  C_17
REMARK    9  A    between atoms: C_17  and  O_19
REMARK   10  A    between atoms: C_25  and  C_26
REMARK                            x       y       z     vdW  Elec       q    Type
REMARK                         _______ _______ _______ _____ _____    ______ ____
ROOT
ATOM      1  C   UNL     1       3.752   6.069  18.232  0.00  0.00    +0.000 C 
ATOM      2  N   UNL     1       3.478   7.289  17.900  0.00  0.00    +0.000 NA
ENDROOT
BRANCH   1   8
ATOM      3  C   UNL     1       2.522   3.194  17.071  0.00  0.00    +0.000 C 
ATOM      4  C   UNL     1       2.182   3.904  18.348  0.00  0.00    +0.000 A 
ATOM      5  C   UNL     1       1.275   3.298  19.241  0.00  0.00    +0.000 A 
ATOM      6  C   UNL     1       1.075   3.995  20.414  0.00  0.00    +0.000 A 
ATOM      7  S   UNL     1       2.042   5.351  20.361  0.00  0.00    +0.000 S 
ATOM      8  C   UNL     1       2.723   5.126  18.832  0.00  0.00    +0.000 A 
ENDBRANCH   1   8
BRANCH   1   9
ATOM      9  C   UNL     1       5.177   5.631  18.002  0.00  0.00    +0.000 A 
ATOM     10  S   UNL     1       6.367   5.423  19.185  0.00  0.00    +0.000 S 
ATOM     11  C   UNL     1       7.605   4.906  18.189  0.00  0.00    +0.000 A 
ATOM     12  C   UNL     1       7.119   4.868  16.895  0.00  0.00    +0.000 A 
ATOM     13  C   UNL     1       5.773   5.267  16.774  0.00  0.00    +0.000 A 
ATOM     14  C   UNL     1       5.088   5.270  15.438  0.00  0.00    +0.000 C 
ENDBRANCH   1   9
BRANCH   2  15
ATOM     15  O   UNL     1       2.325   7.881  18.111  0.00  0.00    +0.000 OA
BRANCH  15  16
ATOM     16  C   UNL     1       2.134   9.193  17.734  0.00  0.00    +0.000 C 
BRANCH  16  17
ATOM     17  C   UNL     1       0.707   9.651  18.075  0.00  0.00    +0.000 C 
BRANCH  17  18
ATOM     18  N   UNL     1       0.617  10.337  19.385  0.00  0.00    +0.000 NA
ATOM     19  C   UNL     1       1.321  11.641  19.370  0.00  0.00    +0.000 C 
ATOM     20  C   UNL     1       1.256  12.310  20.749  0.00  0.00    +0.000 C 
ATOM     21  C   UNL     1      -0.206  12.504  21.161  0.00  0.00    +0.000 C 
ATOM     22  C   UNL     1      -0.943  11.153  21.160  0.00  0.00    +0.000 C 
ATOM     23  C   UNL     1      -0.808  10.528  19.751  0.00  0.00    +0.000 C 
BRANCH  22  24
ATOM     24  C   UNL     1      -0.424  10.234  22.257  0.00  0.00    +0.000 C 
ATOM     25  O   UNL     1      -0.299  10.637  23.403  0.00  0.00    +0.000 OA
BRANCH  24  26
ATOM     26  O   UNL     1      -0.074   8.962  21.974  0.00  0.00    +0.000 OA
ATOM     27  H   UNL     1       0.666   8.521  22.416  0.00  0.00    +0.000 HD
ENDBRANCH  24  26
ENDBRANCH  22  24
ENDBRANCH  17  18
ENDBRANCH  16  17
ENDBRANCH  15  16
ENDBRANCH   2  15
TORSDOF 8
ENDMDL
MODEL 2
REMARK VINA RESULT:      -7.2      1.148      1.472
REMARK  Name = 
REMARK  10 active torsions:
REMARK  status: ('A' for Active; 'I' for Inactive)
REMARK    1  A    between atoms: C_1  and  C_2
REMARK    2  A    between atoms: C_6  and  C_7
REMARK    3  A    between atoms: C_7  and  C_21
REMARK    4  A    between atoms: N_8  and  O_9
REMARK    5  A    between atoms: O_9  and  C_10
REMARK    6  A    between atoms: C_10  and  C_11
REMARK    7  A    between atoms: C_11  and  N_12
REMARK    8  A    between atoms: C_16  and  C_17
REMARK    9  A    between atoms: C_17  and  O_19
REMARK   10  A    between atoms: C_25  and  C_26
REMARK                            x       y       z     vdW  Elec       q    Type
REMARK                         _______ _______ _______ _____ _____    ______ ____
ROOT
ATOM      1  C   UNL     1       3.755   5.535  18.061  0.00  0.00    +0.000 C 
ATOM      2  N   UNL     1       3.396   6.750  17.799  0.00  0.00    +0.000 NA
ENDROOT
BRANCH   1   8
ATOM      3  C   UNL     1       2.053   5.225  20.913  0.00  0.00    +0.000 C 
ATOM      4  C   UNL     1       2.051   4.310  19.723  0.00  0.00    +0.000 A 
ATOM      5  C   UNL     1       1.196   3.190  19.730  0.00  0.00    +0.000 A 
ATOM      6  C   UNL     1       1.218   2.447  18.569  0.00  0.00    +0.000 A 
ATOM      7  S   UNL     1       2.277   3.191  17.519  0.00  0.00    +0.000 S 
ATOM      8  C   UNL     1       2.777   4.463  18.511  0.00  0.00    +0.000 A 
ENDBRANCH   1   8
BRANCH   1   9
ATOM      9  C   UNL     1       5.226   5.239  17.911  0.00  0.00    +0.000 A 
ATOM     10  S   UNL     1       6.410   5.396  19.109  0.00  0.00    +0.000 S 
ATOM     11  C   UNL     1       7.720   4.861  18.220  0.00  0.00    +0.000 A 
ATOM     12  C   UNL     1       7.267   4.529  16.957  0.00  0.00    +0.000 A 
ATOM     13  C   UNL     1       5.886   4.732  16.769  0.00  0.00    +0.000 A 
ATOM     14  C   UNL     1       5.230   4.409  15.457  0.00  0.00    +0.000 C 
ENDBRANCH   1   9
BRANCH   2  15
ATOM     15  O   UNL     1       2.182   7.223  17.962  0.00  0.00    +0.000 OA
BRANCH  15  16
ATOM     16  C   UNL     1       1.922   8.152  18.946  0.00  0.00    +0.000 C 
BRANCH  16  17
ATOM     17  C   UNL     1       1.738   9.549  18.334  0.00  0.00    +0.000 C 
BRANCH  17  18
ATOM     18  N   UNL     1       1.147  10.523  19.282  0.00  0.00    +0.000 NA
ATOM     19  C   UNL     1       1.142  11.897  18.725  0.00  0.00    +0.000 C 
ATOM     20  C   UNL     1       0.570  12.893  19.741  0.00  0.00    +0.000 C 
ATOM     21  C   UNL     1      -0.850  12.477  20.131  0.00  0.00    +0.000 C 
ATOM     22  C   UNL     1      -0.849  11.044  20.693  0.00  0.00    +0.000 C 
ATOM     23  C   UNL     1      -0.234  10.105  19.628  0.00  0.00    +0.000 C 
BRANCH  22  24
ATOM     24  C   UNL     1      -0.119  10.969  22.028  0.00  0.00    +0.000 C 
ATOM     25  O   UNL     1      -0.523  11.593  22.997  0.00  0.00    +0.000 OA
BRANCH  24  26
ATOM     26  O   UNL     1       0.999  10.225  22.154  0.00  0.00    +0.000 OA
ATOM     27  H   UNL     1       1.497   9.911  21.386  0.00  0.00    +0.000 HD
ENDBRANCH  24  26
ENDBRANCH  22  24
ENDBRANCH  17  18
ENDBRANCH  16  17
ENDBRANCH  15  16
ENDBRANCH   2  15
TORSDOF 8
ENDMDL
MODEL 3
REMARK VINA RESULT:      -7.1      2.081      2.661
REMARK  Name = 
REMARK  10 active torsions:
REMARK  status: ('A' for Active; 'I' for Inactive)
REMARK    1  A    between atoms: C_1  and  C_2
REMARK    2  A    between atoms: C_6  and  C_7
REMARK    3  A    between atoms: C_7  and  C_21
REMARK    4  A    between atoms: N_8  and  O_9
REMARK    5  A    between atoms: O_9  and  C_10
REMARK    6  A    between atoms: C_10  and  C_11
REMARK    7  A    between atoms: C_11  and  N_12
REMARK    8  A    between atoms: C_16  and  C_17
REMARK    9  A    between atoms: C_17  and  O_19
REMARK   10  A    between atoms: C_25  and  C_26
REMARK                            x       y       z     vdW  Elec       q    Type
REMARK                         _______ _______ _______ _____ _____    ______ ____
ROOT
ATOM      1  C   UNL     1       3.738   5.658  18.024  0.00  0.00    +0.000 C 
ATOM      2  N   UNL     1       3.409   6.881  17.761  0.00  0.00    +0.000 NA
ENDROOT
BRANCH   1   8
ATOM      3  C   UNL     1       1.807   5.568  20.742  0.00  0.00    +0.000 C 
ATOM      4  C   UNL     1       1.912   4.554  19.641  0.00  0.00    +0.000 A 
ATOM      5  C   UNL     1       1.071   3.425  19.676  0.00  0.00    +0.000 A 
ATOM      6  C   UNL     1       1.196   2.584  18.591  0.00  0.00    +0.000 A 
ATOM      7  S   UNL     1       2.332   3.252  17.570  0.00  0.00    +0.000 S 
ATOM      8  C   UNL     1       2.736   4.614  18.484  0.00  0.00    +0.000 A 
ENDBRANCH   1   8
BRANCH   1   9
ATOM      9  C   UNL     1       5.200   5.323  17.864  0.00  0.00    +0.000 A 
ATOM     10  S   UNL     1       6.385   5.398  19.067  0.00  0.00    +0.000 S 
ATOM     11  C   UNL     1       7.681   4.858  18.160  0.00  0.00    +0.000 A 
ATOM     12  C   UNL     1       7.220   4.590  16.884  0.00  0.00    +0.000 A 
ATOM     13  C   UNL     1       5.846   4.843  16.703  0.00  0.00    +0.000 A 
ATOM     14  C   UNL     1       5.184   4.590  15.379  0.00  0.00    +0.000 C 
ENDBRANCH   1   9
BRANCH   2  15
ATOM     15  O   UNL     1       2.209   7.386  17.932  0.00  0.00    +0.000 OA
BRANCH  15  16
ATOM     16  C   UNL     1       1.992   8.738  17.777  0.00  0.00    +0.000 C 
BRANCH  16  17
ATOM     17  C   UNL     1       1.305   9.321  19.023  0.00  0.00    +0.000 C 
BRANCH  17  18
ATOM     18  N   UNL     1       0.434  10.480  18.714  0.00  0.00    +0.000 NA
ATOM     19  C   UNL     1      -0.884  10.051  18.190  0.00  0.00    +0.000 C 
ATOM     20  C   UNL     1      -1.749  11.266  17.833  0.00  0.00    +0.000 C 
ATOM     21  C   UNL     1      -1.935  12.149  19.069  0.00  0.00    +0.000 C 
ATOM     22  C   UNL     1      -0.567  12.581  19.625  0.00  0.00    +0.000 C 
ATOM     23  C   UNL     1       0.256  11.308  19.933  0.00  0.00    +0.000 C 
BRANCH  22  24
ATOM     24  C   UNL     1       0.152  13.523  18.668  0.00  0.00    +0.000 C 
ATOM     25  O   UNL     1      -0.245  14.666  18.499  0.00  0.00    +0.000 OA
BRANCH  24  26
ATOM     26  O   UNL     1       1.230  13.101  17.976  0.00  0.00    +0.000 OA
ATOM     27  H   UNL     1       1.162  12.770  17.068  0.00  0.00    +0.000 HD
ENDBRANCH  24  26
ENDBRANCH  22  24
ENDBRANCH  17  18
ENDBRANCH  16  17
ENDBRANCH  15  16
ENDBRANCH   2  15
TORSDOF 8
ENDMDL
MODEL 4
REMARK VINA RESULT:      -7.1      1.114      1.442
REMARK  Name = 
REMARK  10 active torsions:
REMARK  status: ('A' for Active; 'I' for Inactive)
REMARK    1  A    between atoms: C_1  and  C_2
REMARK    2  A    between atoms: C_6  and  C_7
REMARK    3  A    between atoms: C_7  and  C_21
REMARK    4  A    between atoms: N_8  and  O_9
REMARK    5  A    between atoms: O_9  and  C_10
REMARK    6  A    between atoms: C_10  and  C_11
REMARK    7  A    between atoms: C_11  and  N_12
REMARK    8  A    between atoms: C_16  and  C_17
REMARK    9  A    between atoms: C_17  and  O_19
REMARK   10  A    between atoms: C_25  and  C_26
REMARK                            x       y       z     vdW  Elec       q    Type
REMARK                         _______ _______ _______ _____ _____    ______ ____
ROOT
ATOM      1  C   UNL     1       3.824   6.077  18.008  0.00  0.00    +0.000 C 
ATOM      2  N   UNL     1       3.663   7.357  17.917  0.00  0.00    +0.000 NA
ENDROOT
BRANCH   1   8
ATOM      3  C   UNL     1       2.473   3.170  17.087  0.00  0.00    +0.000 C 
ATOM      4  C   UNL     1       2.254   3.937  18.358  0.00  0.00    +0.000 A 
ATOM      5  C   UNL     1       1.427   3.380  19.353  0.00  0.00    +0.000 A 
ATOM      6  C   UNL     1       1.338   4.127  20.509  0.00  0.00    +0.000 A 
ATOM      7  S   UNL     1       2.307   5.468  20.311  0.00  0.00    +0.000 S 
ATOM      8  C   UNL     1       2.847   5.172  18.738  0.00  0.00    +0.000 A 
ENDBRANCH   1   8
BRANCH   1   9
ATOM      9  C   UNL     1       5.066   5.524  17.355  0.00  0.00    +0.000 A 
ATOM     10  S   UNL     1       5.282   5.218  15.706  0.00  0.00    +0.000 S 
ATOM     11  C   UNL     1       6.863   4.681  15.769  0.00  0.00    +0.000 A 
ATOM     12  C   UNL     1       7.277   4.737  17.087  0.00  0.00    +0.000 A 
ATOM     13  C   UNL     1       6.292   5.202  17.980  0.00  0.00    +0.000 A 
ATOM     14  C   UNL     1       6.582   5.336  19.447  0.00  0.00    +0.000 C 
ENDBRANCH   1   9
BRANCH   2  15
ATOM     15  O   UNL     1       2.700   8.034  18.499  0.00  0.00    +0.000 OA
BRANCH  15  16
ATOM     16  C   UNL     1       1.673   8.568  17.752  0.00  0.00    +0.000 C 
BRANCH  16  17
ATOM     17  C   UNL     1       1.580  10.087  17.971  0.00  0.00    +0.000 C 
BRANCH  17  18
ATOM     18  N   UNL     1       1.265  10.451  19.373  0.00  0.00    +0.000 NA
ATOM     19  C   UNL     1       1.166  11.920  19.548  0.00  0.00    +0.000 C 
ATOM     20  C   UNL     1       0.887  12.274  21.014  0.00  0.00    +0.000 C 
ATOM     21  C   UNL     1      -0.408  11.599  21.472  0.00  0.00    +0.000 C 
ATOM     22  C   UNL     1      -0.314  10.076  21.274  0.00  0.00    +0.000 C 
ATOM     23  C   UNL     1      -0.003   9.799  19.783  0.00  0.00    +0.000 C 
BRANCH  22  24
ATOM     24  C   UNL     1       0.715   9.455  22.209  0.00  0.00    +0.000 C 
ATOM     25  O   UNL     1       0.690   9.687  23.408  0.00  0.00    +0.000 OA
BRANCH  24  26
ATOM     26  O   UNL     1       1.683   8.651  21.723  0.00  0.00    +0.000 OA
ATOM     27  H   UNL     1       1.809   7.746  22.041  0.00  0.00    +0.000 HD
ENDBRANCH  24  26
ENDBRANCH  22  24
ENDBRANCH  17  18
ENDBRANCH  16  17
ENDBRANCH  15  16
ENDBRANCH   2  15
TORSDOF 8
ENDMDL
MODEL 5
REMARK VINA RESULT:      -7.1      1.225      3.714
REMARK  Name = 
REMARK  10 active torsions:
REMARK  status: ('A' for Active; 'I' for Inactive)
REMARK    1  A    between atoms: C_1  and  C_2
REMARK    2  A    between atoms: C_6  and  C_7
REMARK    3  A    between atoms: C_7  and  C_21
REMARK    4  A    between atoms: N_8  and  O_9
REMARK    5  A    between atoms: O_9  and  C_10
REMARK    6  A    between atoms: C_10  and  C_11
REMARK    7  A    between atoms: C_11  and  N_12
REMARK    8  A    between atoms: C_16  and  C_17
REMARK    9  A    between atoms: C_17  and  O_19
REMARK   10  A    between atoms: C_25  and  C_26
REMARK                            x       y       z     vdW  Elec       q    Type
REMARK                         _______ _______ _______ _____ _____    ______ ____
ROOT
ATOM      1  C   UNL     1       3.391   5.304  18.114  0.00  0.00    +0.000 C 
ATOM      2  N   UNL     1       2.781   6.418  17.867  0.00  0.00    +0.000 NA
ENDROOT
BRANCH   1   8
ATOM      3  C   UNL     1       5.089   4.533  15.348  0.00  0.00    +0.000 C 
ATOM      4  C   UNL     1       5.621   4.776  16.730  0.00  0.00    +0.000 A 
ATOM      5  C   UNL     1       7.015   4.745  16.936  0.00  0.00    +0.000 A 
ATOM      6  C   UNL     1       7.410   5.042  18.222  0.00  0.00    +0.000 A 
ATOM      7  S   UNL     1       6.035   5.372  19.104  0.00  0.00    +0.000 S 
ATOM      8  C   UNL     1       4.883   5.113  17.897  0.00  0.00    +0.000 A 
ENDBRANCH   1   8
BRANCH   1   9
ATOM      9  C   UNL     1       2.524   4.180  18.622  0.00  0.00    +0.000 A 
ATOM     10  S   UNL     1       2.341   2.654  17.916  0.00  0.00    +0.000 S 
ATOM     11  C   UNL     1       1.297   1.994  19.041  0.00  0.00    +0.000 A 
ATOM     12  C   UNL     1       1.068   2.948  20.015  0.00  0.00    +0.000 A 
ATOM     13  C   UNL     1       1.741   4.166  19.798  0.00  0.00    +0.000 A 
ATOM     14  C   UNL     1       1.610   5.304  20.770  0.00  0.00    +0.000 C 
ENDBRANCH   1   9
BRANCH   2  15
ATOM     15  O   UNL     1       3.345   7.477  17.332  0.00  0.00    +0.000 OA
BRANCH  15  16
ATOM     16  C   UNL     1       3.070   8.736  17.821  0.00  0.00    +0.000 C 
BRANCH  16  17
ATOM     17  C   UNL     1       1.567   8.887  18.106  0.00  0.00    +0.000 C 
BRANCH  17  18
ATOM     18  N   UNL     1       1.288   9.606  19.372  0.00  0.00    +0.000 NA
ATOM     19  C   UNL     1       1.265  11.074  19.176  0.00  0.00    +0.000 C 
ATOM     20  C   UNL     1       1.023  11.797  20.507  0.00  0.00    +0.000 C 
ATOM     21  C   UNL     1      -0.300  11.326  21.117  0.00  0.00    +0.000 C 
ATOM     22  C   UNL     1      -0.284   9.799  21.306  0.00  0.00    +0.000 C 
ATOM     23  C   UNL     1      -0.006   9.143  19.932  0.00  0.00    +0.000 C 
BRANCH  22  24
ATOM     24  C   UNL     1       0.723   9.377  22.367  0.00  0.00    +0.000 C 
ATOM     25  O   UNL     1       0.602   9.746  23.526  0.00  0.00    +0.000 OA
BRANCH  24  26
ATOM     26  O   UNL     1       1.779   8.605  22.039  0.00  0.00    +0.000 OA
ATOM     27  H   UNL     1       2.638   8.694  22.477  0.00  0.00    +0.000 HD
ENDBRANCH  24  26
ENDBRANCH  22  24
ENDBRANCH  17  18
ENDBRANCH  16  17
ENDBRANCH  15  16
ENDBRANCH   2  15
TORSDOF 8
ENDMDL
MODEL 6
REMARK VINA RESULT:      -7.1      1.777      2.116
REMARK  Name = 
REMARK  10 active torsions:
REMARK  status: ('A' for Active; 'I' for Inactive)
REMARK    1  A    between atoms: C_1  and  C_2
REMARK    2  A    between atoms: C_6  and  C_7
REMARK    3  A    between atoms: C_7  and  C_21
REMARK    4  A    between atoms: N_8  and  O_9
REMARK    5  A    between atoms: O_9  and  C_10
REMARK    6  A    between atoms: C_10  and  C_11
REMARK    7  A    between atoms: C_11  and  N_12
REMARK    8  A    between atoms: C_16  and  C_17
REMARK    9  A    between atoms: C_17  and  O_19
REMARK   10  A    between atoms: C_25  and  C_26
REMARK                            x       y       z     vdW  Elec       q    Type
REMARK                         _______ _______ _______ _____ _____    ______ ____
ROOT
ATOM      1  C   UNL     1       3.761   5.653  18.218  0.00  0.00    +0.000 C 
ATOM      2  N   UNL     1       3.380   6.794  17.742  0.00  0.00    +0.000 NA
ENDROOT
BRANCH   1   8
ATOM      3  C   UNL     1       2.557   2.659  17.373  0.00  0.00    +0.000 C 
ATOM      4  C   UNL     1       2.299   3.447  18.624  0.00  0.00    +0.000 A 
ATOM      5  C   UNL     1       1.499   2.876  19.633  0.00  0.00    +0.000 A 
ATOM      6  C   UNL     1       1.371   3.648  20.768  0.00  0.00    +0.000 A 
ATOM      7  S   UNL     1       2.273   5.030  20.536  0.00  0.00    +0.000 S 
ATOM      8  C   UNL     1       2.828   4.720  18.972  0.00  0.00    +0.000 A 
ENDBRANCH   1   8
BRANCH   1   9
ATOM      9  C   UNL     1       5.210   5.301  17.997  0.00  0.00    +0.000 A 
ATOM     10  S   UNL     1       6.449   5.378  19.145  0.00  0.00    +0.000 S 
ATOM     11  C   UNL     1       7.697   4.814  18.188  0.00  0.00    +0.000 A 
ATOM     12  C   UNL     1       7.177   4.534  16.937  0.00  0.00    +0.000 A 
ATOM     13  C   UNL     1       5.799   4.799  16.815  0.00  0.00    +0.000 A 
ATOM     14  C   UNL     1       5.076   4.538  15.525  0.00  0.00    +0.000 C 
ENDBRANCH   1   9
BRANCH   2  15
ATOM     15  O   UNL     1       2.187   7.316  17.915  0.00  0.00    +0.000 OA
BRANCH  15  16
ATOM     16  C   UNL     1       2.023   8.434  18.704  0.00  0.00    +0.000 C 
BRANCH  16  17
ATOM     17  C   UNL     1       1.401   9.581  17.891  0.00  0.00    +0.000 C 
BRANCH  17  18
ATOM     18  N   UNL     1       0.766  10.616  18.742  0.00  0.00    +0.000 NA
ATOM     19  C   UNL     1       0.645  10.169  20.150  0.00  0.00    +0.000 C 
ATOM     20  C   UNL     1      -0.057  11.235  21.000  0.00  0.00    +0.000 C 
ATOM     21  C   UNL     1       0.723  12.550  20.929  0.00  0.00    +0.000 C 
ATOM     22  C   UNL     1       0.865  13.006  19.466  0.00  0.00    +0.000 C 
ATOM     23  C   UNL     1       1.552  11.872  18.668  0.00  0.00    +0.000 C 
BRANCH  22  24
ATOM     24  C   UNL     1      -0.481  13.403  18.873  0.00  0.00    +0.000 C 
ATOM     25  O   UNL     1      -1.250  14.121  19.493  0.00  0.00    +0.000 OA
BRANCH  24  26
ATOM     26  O   UNL     1      -0.852  12.949  17.658  0.00  0.00    +0.000 OA
ATOM     27  H   UNL     1      -1.643  12.405  17.532  0.00  0.00    +0.000 HD
ENDBRANCH  24  26
ENDBRANCH  22  24
ENDBRANCH  17  18
ENDBRANCH  16  17
ENDBRANCH  15  16
ENDBRANCH   2  15
TORSDOF 8
ENDMDL
MODEL 7
REMARK VINA RESULT:      -7.0      1.777      2.192
REMARK  Name = 
REMARK  10 active torsions:
REMARK  status: ('A' for Active; 'I' for Inactive)
REMARK    1  A    between atoms: C_1  and  C_2
REMARK    2  A    between atoms: C_6  and  C_7
REMARK    3  A    between atoms: C_7  and  C_21
REMARK    4  A    between atoms: N_8  and  O_9
REMARK    5  A    between atoms: O_9  and  C_10
REMARK    6  A    between atoms: C_10  and  C_11
REMARK    7  A    between atoms: C_11  and  N_12
REMARK    8  A    between atoms: C_16  and  C_17
REMARK    9  A    between atoms: C_17  and  O_19
REMARK   10  A    between atoms: C_25  and  C_26
REMARK                            x       y       z     vdW  Elec       q    Type
REMARK                         _______ _______ _______ _____ _____    ______ ____
ROOT
ATOM      1  C   UNL     1       3.773   5.586  18.011  0.00  0.00    +0.000 C 
ATOM      2  N   UNL     1       3.436   6.807  17.745  0.00  0.00    +0.000 NA
ENDROOT
BRANCH   1   8
ATOM      3  C   UNL     1       1.980   5.395  20.817  0.00  0.00    +0.000 C 
ATOM      4  C   UNL     1       2.012   4.433  19.665  0.00  0.00    +0.000 A 
ATOM      5  C   UNL     1       1.153   3.317  19.689  0.00  0.00    +0.000 A 
ATOM      6  C   UNL     1       1.209   2.527  18.560  0.00  0.00    +0.000 A 
ATOM      7  S   UNL     1       2.303   3.226  17.516  0.00  0.00    +0.000 S 
ATOM      8  C   UNL     1       2.777   4.536  18.471  0.00  0.00    +0.000 A 
ENDBRANCH   1   8
BRANCH   1   9
ATOM      9  C   UNL     1       5.237   5.260  17.852  0.00  0.00    +0.000 A 
ATOM     10  S   UNL     1       6.425   5.362  19.052  0.00  0.00    +0.000 S 
ATOM     11  C   UNL     1       7.722   4.819  18.149  0.00  0.00    +0.000 A 
ATOM     12  C   UNL     1       7.260   4.527  16.879  0.00  0.00    +0.000 A 
ATOM     13  C   UNL     1       5.885   4.767  16.698  0.00  0.00    +0.000 A 
ATOM     14  C   UNL     1       5.221   4.489  15.379  0.00  0.00    +0.000 C 
ENDBRANCH   1   9
BRANCH   2  15
ATOM     15  O   UNL     1       2.233   7.305  17.915  0.00  0.00    +0.000 OA
BRANCH  15  16
ATOM     16  C   UNL     1       2.033   8.376  18.759  0.00  0.00    +0.000 C 
BRANCH  16  17
ATOM     17  C   UNL     1       1.174   9.450  18.073  0.00  0.00    +0.000 C 
BRANCH  17  18
ATOM     18  N   UNL     1       0.251  10.136  19.007  0.00  0.00    +0.000 NA
ATOM     19  C   UNL     1       0.569   9.823  20.420  0.00  0.00    +0.000 C 
ATOM     20  C   UNL     1      -0.429  10.505  21.365  0.00  0.00    +0.000 C 
ATOM     21  C   UNL     1      -0.402  12.019  21.141  0.00  0.00    +0.000 C 
ATOM     22  C   UNL     1      -0.715  12.345  19.669  0.00  0.00    +0.000 C 
ATOM     23  C   UNL     1       0.310  11.601  18.779  0.00  0.00    +0.000 C 
BRANCH  22  24
ATOM     24  C   UNL     1      -2.154  11.997  19.315  0.00  0.00    +0.000 C 
ATOM     25  O   UNL     1      -3.086  12.487  19.934  0.00  0.00    +0.000 OA
BRANCH  24  26
ATOM     26  O   UNL     1      -2.422  11.124  18.321  0.00  0.00    +0.000 OA
ATOM     27  H   UNL     1      -2.202  11.313  17.398  0.00  0.00    +0.000 HD
ENDBRANCH  24  26
ENDBRANCH  22  24
ENDBRANCH  17  18
ENDBRANCH  16  17
ENDBRANCH  15  16
ENDBRANCH   2  15
TORSDOF 8
ENDMDL
MODEL 8
REMARK VINA RESULT:      -6.9      1.647      1.971
REMARK  Name = 
REMARK  10 active torsions:
REMARK  status: ('A' for Active; 'I' for Inactive)
REMARK    1  A    between atoms: C_1  and  C_2
REMARK    2  A    between atoms: C_6  and  C_7
REMARK    3  A    between atoms: C_7  and  C_21
REMARK    4  A    between atoms: N_8  and  O_9
REMARK    5  A    between atoms: O_9  and  C_10
REMARK    6  A    between atoms: C_10  and  C_11
REMARK    7  A    between atoms: C_11  and  N_12
REMARK    8  A    between atoms: C_16  and  C_17
REMARK    9  A    between atoms: C_17  and  O_19
REMARK   10  A    between atoms: C_25  and  C_26
REMARK                            x       y       z     vdW  Elec       q    Type
REMARK                         _______ _______ _______ _____ _____    ______ ____
ROOT
ATOM      1  C   UNL     1       3.679   5.804  18.179  0.00  0.00    +0.000 C 
ATOM      2  N   UNL     1       3.332   6.961  17.716  0.00  0.00    +0.000 NA
ENDROOT
BRANCH   1   8
ATOM      3  C   UNL     1       2.513   2.809  17.288  0.00  0.00    +0.000 C 
ATOM      4  C   UNL     1       2.197   3.602  18.522  0.00  0.00    +0.000 A 
ATOM      5  C   UNL     1       1.349   3.035  19.494  0.00  0.00    +0.000 A 
ATOM      6  C   UNL     1       1.168   3.811  20.619  0.00  0.00    +0.000 A 
ATOM      7  S   UNL     1       2.081   5.191  20.425  0.00  0.00    +0.000 S 
ATOM      8  C   UNL     1       2.711   4.875  18.890  0.00  0.00    +0.000 A 
ENDBRANCH   1   8
BRANCH   1   9
ATOM      9  C   UNL     1       5.127   5.429  17.987  0.00  0.00    +0.000 A 
ATOM     10  S   UNL     1       6.327   5.409  19.179  0.00  0.00    +0.000 S 
ATOM     11  C   UNL     1       7.594   4.868  18.233  0.00  0.00    +0.000 A 
ATOM     12  C   UNL     1       7.111   4.673  16.952  0.00  0.00    +0.000 A 
ATOM     13  C   UNL     1       5.745   4.979  16.799  0.00  0.00    +0.000 A 
ATOM     14  C   UNL     1       5.061   4.809  15.473  0.00  0.00    +0.000 C 
ENDBRANCH   1   9
BRANCH   2  15
ATOM     15  O   UNL     1       2.146   7.504  17.870  0.00  0.00    +0.000 OA
BRANCH  15  16
ATOM     16  C   UNL     1       2.025   8.810  18.291  0.00  0.00    +0.000 C 
BRANCH  16  17
ATOM     17  C   UNL     1       1.388   8.870  19.688  0.00  0.00    +0.000 C 
BRANCH  17  18
ATOM     18  N   UNL     1       0.285   9.855  19.780  0.00  0.00    +0.000 NA
ATOM     19  C   UNL     1       0.266  10.538  21.095  0.00  0.00    +0.000 C 
ATOM     20  C   UNL     1      -0.911  11.516  21.183  0.00  0.00    +0.000 C 
ATOM     21  C   UNL     1      -0.814  12.546  20.055  0.00  0.00    +0.000 C 
ATOM     22  C   UNL     1      -0.778  11.838  18.690  0.00  0.00    +0.000 C 
ATOM     23  C   UNL     1       0.414  10.850  18.687  0.00  0.00    +0.000 C 
BRANCH  22  24
ATOM     24  C   UNL     1      -2.102  11.153  18.380  0.00  0.00    +0.000 C 
ATOM     25  O   UNL     1      -3.158  11.761  18.477  0.00  0.00    +0.000 OA
BRANCH  24  26
ATOM     26  O   UNL     1      -2.132   9.855  18.014  0.00  0.00    +0.000 OA
ATOM     27  H   UNL     1      -2.225   9.140  18.660  0.00  0.00    +0.000 HD
ENDBRANCH  24  26
ENDBRANCH  22  24
ENDBRANCH  17  18
ENDBRANCH  16  17
ENDBRANCH  15  16
ENDBRANCH   2  15
TORSDOF 8
ENDMDL
MODEL 9
REMARK VINA RESULT:      -6.9      0.997      3.503
REMARK  Name = 
REMARK  10 active torsions:
REMARK  status: ('A' for Active; 'I' for Inactive)
REMARK    1  A    between atoms: C_1  and  C_2
REMARK    2  A    between atoms: C_6  and  C_7
REMARK    3  A    between atoms: C_7  and  C_21
REMARK    4  A    between atoms: N_8  and  O_9
REMARK    5  A    between atoms: O_9  and  C_10
REMARK    6  A    between atoms: C_10  and  C_11
REMARK    7  A    between atoms: C_11  and  N_12
REMARK    8  A    between atoms: C_16  and  C_17
REMARK    9  A    between atoms: C_17  and  O_19
REMARK   10  A    between atoms: C_25  and  C_26
REMARK                            x       y       z     vdW  Elec       q    Type
REMARK                         _______ _______ _______ _____ _____    ______ ____
ROOT
ATOM      1  C   UNL     1       3.369   5.384  18.548  0.00  0.00    +0.000 C 
ATOM      2  N   UNL     1       2.612   6.357  18.156  0.00  0.00    +0.000 NA
ENDROOT
BRANCH   1   8
ATOM      3  C   UNL     1       4.861   4.806  15.621  0.00  0.00    +0.000 C 
ATOM      4  C   UNL     1       5.496   5.038  16.961  0.00  0.00    +0.000 A 
ATOM      5  C   UNL     1       6.902   5.086  17.046  0.00  0.00    +0.000 A 
ATOM      6  C   UNL     1       7.390   5.367  18.305  0.00  0.00    +0.000 A 
ATOM      7  S   UNL     1       6.080   5.584  19.311  0.00  0.00    +0.000 S 
ATOM      8  C   UNL     1       4.844   5.292  18.198  0.00  0.00    +0.000 A 
ENDBRANCH   1   8
BRANCH   1   9
ATOM      9  C   UNL     1       2.691   4.317  19.371  0.00  0.00    +0.000 A 
ATOM     10  S   UNL     1       2.191   4.457  20.981  0.00  0.00    +0.000 S 
ATOM     11  C   UNL     1       1.521   2.936  21.155  0.00  0.00    +0.000 A 
ATOM     12  C   UNL     1       1.658   2.274  19.949  0.00  0.00    +0.000 A 
ATOM     13  C   UNL     1       2.304   3.026  18.949  0.00  0.00    +0.000 A 
ATOM     14  C   UNL     1       2.521   2.458  17.576  0.00  0.00    +0.000 C 
ENDBRANCH   1   9
BRANCH   2  15
ATOM     15  O   UNL     1       2.993   7.326  17.355  0.00  0.00    +0.000 OA
BRANCH  15  16
ATOM     16  C   UNL     1       2.977   8.635  17.786  0.00  0.00    +0.000 C 
BRANCH  16  17
ATOM     17  C   UNL     1       1.531   9.124  17.969  0.00  0.00    +0.000 C 
BRANCH  17  18
ATOM     18  N   UNL     1       1.303   9.779  19.279  0.00  0.00    +0.000 NA
ATOM     19  C   UNL     1       1.386  11.255  19.175  0.00  0.00    +0.000 C 
ATOM     20  C   UNL     1       1.195  11.908  20.550  0.00  0.00    +0.000 C 
ATOM     21  C   UNL     1      -0.157  11.495  21.135  0.00  0.00    +0.000 C 
ATOM     22  C   UNL     1      -0.252   9.961  21.227  0.00  0.00    +0.000 C 
ATOM     23  C   UNL     1      -0.020   9.376  19.814  0.00  0.00    +0.000 C 
BRANCH  22  24
ATOM     24  C   UNL     1       0.723   9.403  22.256  0.00  0.00    +0.000 C 
ATOM     25  O   UNL     1       0.713   9.806  23.409  0.00  0.00    +0.000 OA
BRANCH  24  26
ATOM     26  O   UNL     1       1.627   8.466  21.902  0.00  0.00    +0.000 OA
ATOM     27  H   UNL     1       1.536   7.943  21.093  0.00  0.00    +0.000 HD
ENDBRANCH  24  26
ENDBRANCH  22  24
ENDBRANCH  17  18
ENDBRANCH  16  17
ENDBRANCH  15  16
ENDBRANCH   2  15
TORSDOF 8
ENDMDL
