MODEL 1
REMARK VINA RESULT:      -7.7      0.000      0.000
REMARK  Name = 
REMARK  5 active torsions:
REMARK  status: ('A' for Active; 'I' for Inactive)
REMARK    1  A    between atoms: C_1  and  C_2
REMARK    2  A    between atoms: C_8  and  C_9
REMARK    3  A    between atoms: C_21  and  N_22
REMARK    4  A    between atoms: N_22  and  C_23
REMARK    5  A    between atoms: C_27  and  O_28
REMARK                            x       y       z     vdW  Elec       q    Type
REMARK                         _______ _______ _______ _____ _____    ______ ____
ROOT
ATOM      1  C   UNL     1      -3.462  10.149  15.070  0.00  0.00    +0.000 C 
ATOM      2  C   UNL     1      -3.048  10.678  16.409  0.00  0.00    +0.000 A 
ATOM      3  N   UNL     1      -1.803  10.314  16.799  0.00  0.00    +0.000 NA
ATOM      4  C   UNL     1      -1.422  10.679  18.026  0.00  0.00    +0.000 A 
ATOM      5  C   UNL     1      -0.165  10.269  18.445  0.00  0.00    +0.000 A 
ATOM      6  C   UNL     1       0.316  10.590  19.708  0.00  0.00    +0.000 A 
ATOM      7  C   UNL     1      -0.487  11.332  20.560  0.00  0.00    +0.000 A 
ATOM      8  C   UNL     1      -1.772  11.751  20.163  0.00  0.00    +0.000 A 
ATOM      9  C   UNL     1      -2.262  11.433  18.879  0.00  0.00    +0.000 A 
ATOM     10  N   UNL     1      -3.501  11.821  18.447  0.00  0.00    +0.000 NA
ATOM     11  C   UNL     1      -3.907  11.438  17.222  0.00  0.00    +0.000 A 
ENDROOT
BRANCH   8  12
ATOM     12  C   UNL     1      -2.575  12.516  21.129  0.00  0.00    +0.000 A 
ATOM     13  C   UNL     1      -2.984  12.190  22.415  0.00  0.00    +0.000 A 
ATOM     14  C   UNL     1      -3.689  13.295  22.950  0.00  0.00    +0.000 A 
ATOM     15  C   UNL     1      -3.716  14.262  21.964  0.00  0.00    +0.000 A 
ATOM     16  N   UNL     1      -3.072  13.779  20.863  0.00  0.00    +0.000 N 
ATOM     17  C   UNL     1      -4.327  15.609  22.111  0.00  0.00    +0.000 C 
ATOM     18  C   UNL     1      -5.306  15.571  23.311  0.00  0.00    +0.000 C 
ATOM     19  N   UNL     1      -4.883  14.732  24.433  0.00  0.00    +0.000 N 
ATOM     20  C   UNL     1      -4.279  13.501  24.260  0.00  0.00    +0.000 C 
ATOM     21  O   UNL     1      -4.236  12.674  25.164  0.00  0.00    +0.000 OA
ATOM     22  H   UNL     1      -2.949  14.251  19.972  0.00  0.00    +0.000 HD
ATOM     23  H   UNL     1      -5.368  14.810  25.318  0.00  0.00    +0.000 HD
ENDBRANCH   8  12
BRANCH  11  24
ATOM     24  N   UNL     1      -5.196  11.738  16.803  0.00  0.00    +0.000 N 
ATOM     25  H   UNL     1      -5.218  12.322  15.974  0.00  0.00    +0.000 HD
BRANCH  24  26
ATOM     26  C   UNL     1      -6.317  11.923  17.733  0.00  0.00    +0.000 C 
ATOM     27  C   UNL     1      -5.967  13.201  18.528  0.00  0.00    +0.000 C 
ATOM     28  C   UNL     1      -6.624  13.355  19.892  0.00  0.00    +0.000 C 
ATOM     29  C   UNL     1      -6.558  12.078  20.708  0.00  0.00    +0.000 C 
ATOM     30  C   UNL     1      -7.196  10.926  19.945  0.00  0.00    +0.000 C 
ATOM     31  C   UNL     1      -6.514  10.669  18.601  0.00  0.00    +0.000 C 
BRANCH  30  32
ATOM     32  O   UNL     1      -7.133   9.743  20.740  0.00  0.00    +0.000 OA
ATOM     33  H   UNL     1      -6.572   9.926  21.515  0.00  0.00    +0.000 HD
ENDBRANCH  30  32
ENDBRANCH  24  26
ENDBRANCH  11  24
TORSDOF 4
ENDMDL
MODEL 2
REMARK VINA RESULT:      -7.4      1.506      1.710
REMARK  Name = 
REMARK  5 active torsions:
REMARK  status: ('A' for Active; 'I' for Inactive)
REMARK    1  A    between atoms: C_1  and  C_2
REMARK    2  A    between atoms: C_8  and  C_9
REMARK    3  A    between atoms: C_21  and  N_22
REMARK    4  A    between atoms: N_22  and  C_23
REMARK    5  A    between atoms: C_27  and  O_28
REMARK                            x       y       z     vdW  Elec       q    Type
REMARK                         _______ _______ _______ _____ _____    ______ ____
ROOT
ATOM      1  C   UNL     1      -2.707  10.384  15.741  0.00  0.00    +0.000 C 
ATOM      2  C   UNL     1      -2.213  10.741  17.110  0.00  0.00    +0.000 A 
ATOM      3  N   UNL     1      -1.071  10.114  17.479  0.00  0.00    +0.000 NA
ATOM      4  C   UNL     1      -0.641  10.323  18.726  0.00  0.00    +0.000 A 
ATOM      5  C   UNL     1       0.504   9.647  19.121  0.00  0.00    +0.000 A 
ATOM      6  C   UNL     1       1.023   9.791  20.401  0.00  0.00    +0.000 A 
ATOM      7  C   UNL     1       0.372  10.627  21.296  0.00  0.00    +0.000 A 
ATOM      8  C   UNL     1      -0.798  11.315  20.923  0.00  0.00    +0.000 A 
ATOM      9  C   UNL     1      -1.325  11.178  19.622  0.00  0.00    +0.000 A 
ATOM     10  N   UNL     1      -2.456  11.829  19.213  0.00  0.00    +0.000 NA
ATOM     11  C   UNL     1      -2.915  11.608  17.967  0.00  0.00    +0.000 A 
ENDROOT
BRANCH   8  12
ATOM     12  C   UNL     1      -1.446  12.167  21.933  0.00  0.00    +0.000 A 
ATOM     13  C   UNL     1      -2.730  12.120  22.458  0.00  0.00    +0.000 A 
ATOM     14  C   UNL     1      -2.841  13.126  23.448  0.00  0.00    +0.000 A 
ATOM     15  C   UNL     1      -1.627  13.782  23.485  0.00  0.00    +0.000 A 
ATOM     16  N   UNL     1      -0.802  13.222  22.553  0.00  0.00    +0.000 N 
ATOM     17  C   UNL     1      -1.288  14.892  24.413  0.00  0.00    +0.000 C 
ATOM     18  C   UNL     1      -2.608  15.488  24.963  0.00  0.00    +0.000 C 
ATOM     19  N   UNL     1      -3.679  14.518  25.196  0.00  0.00    +0.000 N 
ATOM     20  C   UNL     1      -3.941  13.471  24.332  0.00  0.00    +0.000 C 
ATOM     21  O   UNL     1      -5.015  12.881  24.345  0.00  0.00    +0.000 OA
ATOM     22  H   UNL     1       0.147  13.506  22.330  0.00  0.00    +0.000 HD
ATOM     23  H   UNL     1      -4.491  14.799  25.729  0.00  0.00    +0.000 HD
ENDBRANCH   8  12
BRANCH  11  24
ATOM     24  N   UNL     1      -4.113  12.181  17.565  0.00  0.00    +0.000 N 
ATOM     25  H   UNL     1      -4.024  13.165  17.330  0.00  0.00    +0.000 HD
BRANCH  24  26
ATOM     26  C   UNL     1      -5.415  11.783  18.114  0.00  0.00    +0.000 C 
ATOM     27  C   UNL     1      -6.416  12.819  17.556  0.00  0.00    +0.000 C 
ATOM     28  C   UNL     1      -7.705  13.011  18.342  0.00  0.00    +0.000 C 
ATOM     29  C   UNL     1      -7.456  13.130  19.834  0.00  0.00    +0.000 C 
ATOM     30  C   UNL     1      -6.706  11.908  20.345  0.00  0.00    +0.000 C 
ATOM     31  C   UNL     1      -5.358  11.718  19.650  0.00  0.00    +0.000 C 
BRANCH  30  32
ATOM     32  O   UNL     1      -6.498  12.038  21.751  0.00  0.00    +0.000 OA
ATOM     33  H   UNL     1      -7.330  11.813  22.205  0.00  0.00    +0.000 HD
ENDBRANCH  30  32
ENDBRANCH  24  26
ENDBRANCH  11  24
TORSDOF 4
ENDMDL
MODEL 3
REMARK VINA RESULT:      -7.4      2.074      4.716
REMARK  Name = 
REMARK  5 active torsions:
REMARK  status: ('A' for Active; 'I' for Inactive)
REMARK    1  A    between atoms: C_1  and  C_2
REMARK    2  A    between atoms: C_8  and  C_9
REMARK    3  A    between atoms: C_21  and  N_22
REMARK    4  A    between atoms: N_22  and  C_23
REMARK    5  A    between atoms: C_27  and  O_28
REMARK                            x       y       z     vdW  Elec       q    Type
REMARK                         _______ _______ _______ _____ _____    ______ ____
ROOT
ATOM      1  C   UNL     1      -3.065  10.796  15.609  0.00  0.00    +0.000 C 
ATOM      2  C   UNL     1      -3.580  11.184  16.962  0.00  0.00    +0.000 A 
ATOM      3  N   UNL     1      -4.881  10.879  17.180  0.00  0.00    +0.000 NA
ATOM      4  C   UNL     1      -5.414  11.289  18.333  0.00  0.00    +0.000 A 
ATOM      5  C   UNL     1      -6.759  11.018  18.539  0.00  0.00    +0.000 A 
ATOM      6  C   UNL     1      -7.405  11.414  19.702  0.00  0.00    +0.000 A 
ATOM      7  C   UNL     1      -6.684  12.097  20.669  0.00  0.00    +0.000 A 
ATOM      8  C   UNL     1      -5.321  12.396  20.479  0.00  0.00    +0.000 A 
ATOM      9  C   UNL     1      -4.658  11.990  19.302  0.00  0.00    +0.000 A 
ATOM     10  N   UNL     1      -3.335  12.253  19.074  0.00  0.00    +0.000 NA
ATOM     11  C   UNL     1      -2.791  11.867  17.905  0.00  0.00    +0.000 A 
ENDROOT
BRANCH   8  12
ATOM     12  C   UNL     1      -4.627  13.144  21.539  0.00  0.00    +0.000 A 
ATOM     13  C   UNL     1      -5.075  14.178  22.349  0.00  0.00    +0.000 A 
ATOM     14  C   UNL     1      -4.038  14.514  23.253  0.00  0.00    +0.000 A 
ATOM     15  C   UNL     1      -2.969  13.692  22.953  0.00  0.00    +0.000 A 
ATOM     16  N   UNL     1      -3.317  12.892  21.904  0.00  0.00    +0.000 N 
ATOM     17  C   UNL     1      -1.675  13.680  23.683  0.00  0.00    +0.000 C 
ATOM     18  C   UNL     1      -1.548  15.006  24.473  0.00  0.00    +0.000 C 
ATOM     19  N   UNL     1      -2.801  15.522  25.027  0.00  0.00    +0.000 N 
ATOM     20  C   UNL     1      -3.998  15.480  24.335  0.00  0.00    +0.000 C 
ATOM     21  O   UNL     1      -4.944  16.195  24.646  0.00  0.00    +0.000 OA
ATOM     22  H   UNL     1      -2.732  12.200  21.444  0.00  0.00    +0.000 HD
ATOM     23  H   UNL     1      -2.769  16.269  25.709  0.00  0.00    +0.000 HD
ENDBRANCH   8  12
BRANCH  11  24
ATOM     24  N   UNL     1      -1.478  12.209  17.613  0.00  0.00    +0.000 N 
ATOM     25  H   UNL     1      -1.313  12.344  16.621  0.00  0.00    +0.000 HD
BRANCH  24  26
ATOM     26  C   UNL     1      -0.331  11.703  18.377  0.00  0.00    +0.000 C 
ATOM     27  C   UNL     1      -0.809  10.358  18.969  0.00  0.00    +0.000 C 
ATOM     28  C   UNL     1      -0.082   9.864  20.211  0.00  0.00    +0.000 C 
ATOM     29  C   UNL     1       0.110  10.963  21.239  0.00  0.00    +0.000 C 
ATOM     30  C   UNL     1       0.855  12.139  20.627  0.00  0.00    +0.000 C 
ATOM     31  C   UNL     1       0.121  12.733  19.425  0.00  0.00    +0.000 C 
BRANCH  30  32
ATOM     32  O   UNL     1       1.035  13.150  21.618  0.00  0.00    +0.000 OA
ATOM     33  H   UNL     1       0.841  14.014  21.211  0.00  0.00    +0.000 HD
ENDBRANCH  30  32
ENDBRANCH  24  26
ENDBRANCH  11  24
TORSDOF 4
ENDMDL
MODEL 4
REMARK VINA RESULT:      -7.3      1.175      1.232
REMARK  Name = 
REMARK  5 active torsions:
REMARK  status: ('A' for Active; 'I' for Inactive)
REMARK    1  A    between atoms: C_1  and  C_2
REMARK    2  A    between atoms: C_8  and  C_9
REMARK    3  A    between atoms: C_21  and  N_22
REMARK    4  A    between atoms: N_22  and  C_23
REMARK    5  A    between atoms: C_27  and  O_28
REMARK                            x       y       z     vdW  Elec       q    Type
REMARK                         _______ _______ _______ _____ _____    ______ ____
ROOT
ATOM      1  C   UNL     1      -2.629  10.237  15.593  0.00  0.00    +0.000 C 
ATOM      2  C   UNL     1      -2.344  10.710  16.986  0.00  0.00    +0.000 A 
ATOM      3  N   UNL     1      -1.239  10.168  17.551  0.00  0.00    +0.000 NA
ATOM      4  C   UNL     1      -0.994  10.483  18.825  0.00  0.00    +0.000 A 
ATOM      5  C   UNL     1       0.112   9.894  19.421  0.00  0.00    +0.000 A 
ATOM      6  C   UNL     1       0.442  10.151  20.745  0.00  0.00    +0.000 A 
ATOM      7  C   UNL     1      -0.359  11.012  21.479  0.00  0.00    +0.000 A 
ATOM      8  C   UNL     1      -1.495  11.613  20.902  0.00  0.00    +0.000 A 
ATOM      9  C   UNL     1      -1.831  11.361  19.555  0.00  0.00    +0.000 A 
ATOM     10  N   UNL     1      -2.920  11.925  18.950  0.00  0.00    +0.000 NA
ATOM     11  C   UNL     1      -3.193  11.596  17.674  0.00  0.00    +0.000 A 
ENDROOT
BRANCH   8  12
ATOM     12  C   UNL     1      -2.310  12.498  21.749  0.00  0.00    +0.000 A 
ATOM     13  C   UNL     1      -2.017  13.093  22.968  0.00  0.00    +0.000 A 
ATOM     14  C   UNL     1      -3.118  13.902  23.342  0.00  0.00    +0.000 A 
ATOM     15  C   UNL     1      -4.069  13.759  22.351  0.00  0.00    +0.000 A 
ATOM     16  N   UNL     1      -3.592  12.892  21.412  0.00  0.00    +0.000 N 
ATOM     17  C   UNL     1      -5.377  14.464  22.320  0.00  0.00    +0.000 C 
ATOM     18  C   UNL     1      -5.688  14.976  23.748  0.00  0.00    +0.000 C 
ATOM     19  N   UNL     1      -4.526  15.430  24.514  0.00  0.00    +0.000 N 
ATOM     20  C   UNL     1      -3.310  14.773  24.487  0.00  0.00    +0.000 C 
ATOM     21  O   UNL     1      -2.468  14.946  25.361  0.00  0.00    +0.000 OA
ATOM     22  H   UNL     1      -4.073  12.572  20.577  0.00  0.00    +0.000 HD
ATOM     23  H   UNL     1      -4.672  15.951  25.368  0.00  0.00    +0.000 HD
ENDBRANCH   8  12
BRANCH  11  24
ATOM     24  N   UNL     1      -4.346  12.080  17.072  0.00  0.00    +0.000 N 
ATOM     25  H   UNL     1      -4.238  13.019  16.703  0.00  0.00    +0.000 HD
BRANCH  24  26
ATOM     26  C   UNL     1      -5.695  11.742  17.542  0.00  0.00    +0.000 C 
ATOM     27  C   UNL     1      -6.532  13.019  17.302  0.00  0.00    +0.000 C 
ATOM     28  C   UNL     1      -7.783  13.182  18.152  0.00  0.00    +0.000 C 
ATOM     29  C   UNL     1      -7.528  12.872  19.616  0.00  0.00    +0.000 C 
ATOM     30  C   UNL     1      -6.968  11.466  19.771  0.00  0.00    +0.000 C 
ATOM     31  C   UNL     1      -5.658  11.273  19.006  0.00  0.00    +0.000 C 
BRANCH  30  32
ATOM     32  O   UNL     1      -6.751  11.196  21.155  0.00  0.00    +0.000 OA
ATOM     33  H   UNL     1      -6.183  11.899  21.518  0.00  0.00    +0.000 HD
ENDBRANCH  30  32
ENDBRANCH  24  26
ENDBRANCH  11  24
TORSDOF 4
ENDMDL
MODEL 5
REMARK VINA RESULT:      -7.3      1.313      1.505
REMARK  Name = 
REMARK  5 active torsions:
REMARK  status: ('A' for Active; 'I' for Inactive)
REMARK    1  A    between atoms: C_1  and  C_2
REMARK    2  A    between atoms: C_8  and  C_9
REMARK    3  A    between atoms: C_21  and  N_22
REMARK    4  A    between atoms: N_22  and  C_23
REMARK    5  A    between atoms: C_27  and  O_28
REMARK                            x       y       z     vdW  Elec       q    Type
REMARK                         _______ _______ _______ _____ _____    ______ ____
ROOT
ATOM      1  C   UNL     1      -2.444  10.280  16.069  0.00  0.00    +0.000 C 
ATOM      2  C   UNL     1      -2.310  10.826  17.458  0.00  0.00    +0.000 A 
ATOM      3  N   UNL     1      -1.250  10.349  18.152  0.00  0.00    +0.000 NA
ATOM      4  C   UNL     1      -1.140  10.729  19.427  0.00  0.00    +0.000 A 
ATOM      5  C   UNL     1      -0.080  10.207  20.153  0.00  0.00    +0.000 A 
ATOM      6  C   UNL     1       0.112  10.535  21.489  0.00  0.00    +0.000 A 
ATOM      7  C   UNL     1      -0.782  11.400  22.100  0.00  0.00    +0.000 A 
ATOM      8  C   UNL     1      -1.873  11.936  21.388  0.00  0.00    +0.000 A 
ATOM      9  C   UNL     1      -2.069  11.611  20.030  0.00  0.00    +0.000 A 
ATOM     10  N   UNL     1      -3.110  12.109  19.296  0.00  0.00    +0.000 NA
ATOM     11  C   UNL     1      -3.248  11.713  18.017  0.00  0.00    +0.000 A 
ENDROOT
BRANCH   8  12
ATOM     12  C   UNL     1      -2.793  12.829  22.109  0.00  0.00    +0.000 A 
ATOM     13  C   UNL     1      -2.542  13.758  23.110  0.00  0.00    +0.000 A 
ATOM     14  C   UNL     1      -3.760  14.405  23.429  0.00  0.00    +0.000 A 
ATOM     15  C   UNL     1      -4.732  13.835  22.631  0.00  0.00    +0.000 A 
ATOM     16  N   UNL     1      -4.153  12.870  21.862  0.00  0.00    +0.000 N 
ATOM     17  C   UNL     1      -6.162  14.242  22.611  0.00  0.00    +0.000 C 
ATOM     18  C   UNL     1      -6.464  15.027  23.912  0.00  0.00    +0.000 C 
ATOM     19  N   UNL     1      -5.373  15.876  24.394  0.00  0.00    +0.000 N 
ATOM     20  C   UNL     1      -4.048  15.482  24.359  0.00  0.00    +0.000 C 
ATOM     21  O   UNL     1      -3.197  16.029  25.052  0.00  0.00    +0.000 OA
ATOM     22  H   UNL     1      -4.617  12.262  21.193  0.00  0.00    +0.000 HD
ATOM     23  H   UNL     1      -5.561  16.557  25.117  0.00  0.00    +0.000 HD
ENDBRANCH   8  12
BRANCH  11  24
ATOM     24  N   UNL     1      -4.351  12.129  17.285  0.00  0.00    +0.000 N 
ATOM     25  H   UNL     1      -4.235  13.053  16.882  0.00  0.00    +0.000 HD
BRANCH  24  26
ATOM     26  C   UNL     1      -5.729  11.768  17.639  0.00  0.00    +0.000 C 
ATOM     27  C   UNL     1      -6.195  12.877  18.609  0.00  0.00    +0.000 C 
ATOM     28  C   UNL     1      -7.333  12.521  19.553  0.00  0.00    +0.000 C 
ATOM     29  C   UNL     1      -7.135  11.167  20.208  0.00  0.00    +0.000 C 
ATOM     30  C   UNL     1      -6.971  10.085  19.151  0.00  0.00    +0.000 C 
ATOM     31  C   UNL     1      -5.782  10.348  18.227  0.00  0.00    +0.000 C 
BRANCH  30  32
ATOM     32  O   UNL     1      -6.801   8.822  19.793  0.00  0.00    +0.000 OA
ATOM     33  H   UNL     1      -6.880   8.955  20.755  0.00  0.00    +0.000 HD
ENDBRANCH  30  32
ENDBRANCH  24  26
ENDBRANCH  11  24
TORSDOF 4
ENDMDL
MODEL 6
REMARK VINA RESULT:      -7.2      1.781      2.010
REMARK  Name = 
REMARK  5 active torsions:
REMARK  status: ('A' for Active; 'I' for Inactive)
REMARK    1  A    between atoms: C_1  and  C_2
REMARK    2  A    between atoms: C_8  and  C_9
REMARK    3  A    between atoms: C_21  and  N_22
REMARK    4  A    between atoms: N_22  and  C_23
REMARK    5  A    between atoms: C_27  and  O_28
REMARK                            x       y       z     vdW  Elec       q    Type
REMARK                         _______ _______ _______ _____ _____    ______ ____
ROOT
ATOM      1  C   UNL     1      -3.029  10.282  15.616  0.00  0.00    +0.000 C 
ATOM      2  C   UNL     1      -2.383  10.638  16.920  0.00  0.00    +0.000 A 
ATOM      3  N   UNL     1      -1.254   9.945  17.199  0.00  0.00    +0.000 NA
ATOM      4  C   UNL     1      -0.694  10.155  18.393  0.00  0.00    +0.000 A 
ATOM      5  C   UNL     1       0.437   9.413  18.699  0.00  0.00    +0.000 A 
ATOM      6  C   UNL     1       1.085   9.553  19.920  0.00  0.00    +0.000 A 
ATOM      7  C   UNL     1       0.579  10.453  20.845  0.00  0.00    +0.000 A 
ATOM      8  C   UNL     1      -0.574  11.210  20.563  0.00  0.00    +0.000 A 
ATOM      9  C   UNL     1      -1.232  11.076  19.322  0.00  0.00    +0.000 A 
ATOM     10  N   UNL     1      -2.352  11.792  19.002  0.00  0.00    +0.000 NA
ATOM     11  C   UNL     1      -2.942  11.572  17.812  0.00  0.00    +0.000 A 
ENDROOT
BRANCH   8  12
ATOM     12  C   UNL     1      -1.065  12.129  21.602  0.00  0.00    +0.000 A 
ATOM     13  C   UNL     1      -0.409  13.144  22.286  0.00  0.00    +0.000 A 
ATOM     14  C   UNL     1      -1.342  13.774  23.144  0.00  0.00    +0.000 A 
ATOM     15  C   UNL     1      -2.541  13.109  22.982  0.00  0.00    +0.000 A 
ATOM     16  N   UNL     1      -2.363  12.104  22.078  0.00  0.00    +0.000 N 
ATOM     17  C   UNL     1      -3.811  13.465  23.669  0.00  0.00    +0.000 C 
ATOM     18  C   UNL     1      -3.469  14.343  24.899  0.00  0.00    +0.000 C 
ATOM     19  N   UNL     1      -2.347  15.264  24.714  0.00  0.00    +0.000 N 
ATOM     20  C   UNL     1      -1.196  14.913  24.033  0.00  0.00    +0.000 C 
ATOM     21  O   UNL     1      -0.153  15.543  24.167  0.00  0.00    +0.000 OA
ATOM     22  H   UNL     1      -3.057  11.428  21.771  0.00  0.00    +0.000 HD
ATOM     23  H   UNL     1      -2.192  15.995  25.395  0.00  0.00    +0.000 HD
ENDBRANCH   8  12
BRANCH  11  24
ATOM     24  N   UNL     1      -4.133  12.216  17.507  0.00  0.00    +0.000 N 
ATOM     25  H   UNL     1      -4.029  13.221  17.416  0.00  0.00    +0.000 HD
BRANCH  24  26
ATOM     26  C   UNL     1      -5.437  11.761  18.003  0.00  0.00    +0.000 C 
ATOM     27  C   UNL     1      -6.447  12.812  17.489  0.00  0.00    +0.000 C 
ATOM     28  C   UNL     1      -7.754  12.933  18.258  0.00  0.00    +0.000 C 
ATOM     29  C   UNL     1      -7.537  12.962  19.760  0.00  0.00    +0.000 C 
ATOM     30  C   UNL     1      -6.775  11.725  20.210  0.00  0.00    +0.000 C 
ATOM     31  C   UNL     1      -5.410  11.602  19.532  0.00  0.00    +0.000 C 
BRANCH  30  32
ATOM     32  O   UNL     1      -6.598  11.770  21.625  0.00  0.00    +0.000 OA
ATOM     33  H   UNL     1      -7.444  11.535  22.046  0.00  0.00    +0.000 HD
ENDBRANCH  30  32
ENDBRANCH  24  26
ENDBRANCH  11  24
TORSDOF 4
ENDMDL
MODEL 7
REMARK VINA RESULT:      -7.0      2.121      4.523
REMARK  Name = 
REMARK  5 active torsions:
REMARK  status: ('A' for Active; 'I' for Inactive)
REMARK    1  A    between atoms: C_1  and  C_2
REMARK    2  A    between atoms: C_8  and  C_9
REMARK    3  A    between atoms: C_21  and  N_22
REMARK    4  A    between atoms: N_22  and  C_23
REMARK    5  A    between atoms: C_27  and  O_28
REMARK                            x       y       z     vdW  Elec       q    Type
REMARK                         _______ _______ _______ _____ _____    ______ ____
ROOT
ATOM      1  C   UNL     1      -2.708  10.404  15.573  0.00  0.00    +0.000 C 
ATOM      2  C   UNL     1      -3.464  11.010  16.716  0.00  0.00    +0.000 A 
ATOM      3  N   UNL     1      -4.733  11.378  16.421  0.00  0.00    +0.000 NA
ATOM      4  C   UNL     1      -5.418  12.010  17.377  0.00  0.00    +0.000 A 
ATOM      5  C   UNL     1      -6.703  12.428  17.063  0.00  0.00    +0.000 A 
ATOM      6  C   UNL     1      -7.489  13.104  17.988  0.00  0.00    +0.000 A 
ATOM      7  C   UNL     1      -6.967  13.364  19.246  0.00  0.00    +0.000 A 
ATOM      8  C   UNL     1      -5.662  12.960  19.586  0.00  0.00    +0.000 A 
ATOM      9  C   UNL     1      -4.862  12.268  18.653  0.00  0.00    +0.000 A 
ATOM     10  N   UNL     1      -3.590  11.853  18.938  0.00  0.00    +0.000 NA
ATOM     11  C   UNL     1      -2.879  11.237  17.975  0.00  0.00    +0.000 A 
ENDROOT
BRANCH   8  12
ATOM     12  C   UNL     1      -5.169  13.291  20.932  0.00  0.00    +0.000 A 
ATOM     13  C   UNL     1      -5.291  12.598  22.129  0.00  0.00    +0.000 A 
ATOM     14  C   UNL     1      -4.587  13.312  23.128  0.00  0.00    +0.000 A 
ATOM     15  C   UNL     1      -4.073  14.441  22.521  0.00  0.00    +0.000 A 
ATOM     16  N   UNL     1      -4.450  14.439  21.210  0.00  0.00    +0.000 N 
ATOM     17  C   UNL     1      -3.229  15.461  23.197  0.00  0.00    +0.000 C 
ATOM     18  C   UNL     1      -3.421  15.315  24.727  0.00  0.00    +0.000 C 
ATOM     19  N   UNL     1      -3.595  13.943  25.204  0.00  0.00    +0.000 N 
ATOM     20  C   UNL     1      -4.354  13.006  24.528  0.00  0.00    +0.000 C 
ATOM     21  O   UNL     1      -4.768  11.993  25.082  0.00  0.00    +0.000 OA
ATOM     22  H   UNL     1      -4.243  15.150  20.514  0.00  0.00    +0.000 HD
ATOM     23  H   UNL     1      -3.531  13.754  26.196  0.00  0.00    +0.000 HD
ENDBRANCH   8  12
BRANCH  11  24
ATOM     24  N   UNL     1      -1.556  10.895  18.212  0.00  0.00    +0.000 N 
ATOM     25  H   UNL     1      -1.432   9.911  18.429  0.00  0.00    +0.000 HD
BRANCH  24  26
ATOM     26  C   UNL     1      -0.597  11.804  18.851  0.00  0.00    +0.000 C 
ATOM     27  C   UNL     1      -0.949  11.762  20.355  0.00  0.00    +0.000 C 
ATOM     28  C   UNL     1      -0.522  12.962  21.187  0.00  0.00    +0.000 C 
ATOM     29  C   UNL     1      -0.851  14.279  20.509  0.00  0.00    +0.000 C 
ATOM     30  C   UNL     1      -0.210  14.341  19.131  0.00  0.00    +0.000 C 
ATOM     31  C   UNL     1      -0.674  13.205  18.220  0.00  0.00    +0.000 C 
BRANCH  30  32
ATOM     32  O   UNL     1      -0.522  15.593  18.522  0.00  0.00    +0.000 OA
ATOM     33  H   UNL     1      -0.121  15.609  17.634  0.00  0.00    +0.000 HD
ENDBRANCH  30  32
ENDBRANCH  24  26
ENDBRANCH  11  24
TORSDOF 4
ENDMDL
MODEL 8
REMARK VINA RESULT:      -7.0      6.908     10.710
REMARK  Name = 
REMARK  5 active torsions:
REMARK  status: ('A' for Active; 'I' for Inactive)
REMARK    1  A    between atoms: C_1  and  C_2
REMARK    2  A    between atoms: C_8  and  C_9
REMARK    3  A    between atoms: C_21  and  N_22
REMARK    4  A    between atoms: N_22  and  C_23
REMARK    5  A    between atoms: C_27  and  O_28
REMARK                            x       y       z     vdW  Elec       q    Type
REMARK                         _______ _______ _______ _____ _____    ______ ____
ROOT
ATOM      1  C   UNL     1       0.306   8.633  21.462  0.00  0.00    +0.000 C 
ATOM      2  C   UNL     1       1.053   7.598  20.677  0.00  0.00    +0.000 A 
ATOM      3  N   UNL     1       0.813   6.320  21.055  0.00  0.00    +0.000 NA
ATOM      4  C   UNL     1       1.525   5.365  20.453  0.00  0.00    +0.000 A 
ATOM      5  C   UNL     1       1.314   4.060  20.870  0.00  0.00    +0.000 A 
ATOM      6  C   UNL     1       2.015   3.000  20.310  0.00  0.00    +0.000 A 
ATOM      7  C   UNL     1       2.946   3.263  19.318  0.00  0.00    +0.000 A 
ATOM      8  C   UNL     1       3.189   4.581  18.885  0.00  0.00    +0.000 A 
ATOM      9  C   UNL     1       2.474   5.661  19.445  0.00  0.00    +0.000 A 
ATOM     10  N   UNL     1       2.672   6.956  19.054  0.00  0.00    +0.000 NA
ATOM     11  C   UNL     1       1.978   7.931  19.671  0.00  0.00    +0.000 A 
ENDROOT
BRANCH   8  12
ATOM     12  C   UNL     1       4.208   4.786  17.844  0.00  0.00    +0.000 A 
ATOM     13  C   UNL     1       5.246   5.704  17.771  0.00  0.00    +0.000 A 
ATOM     14  C   UNL     1       5.982   5.449  16.589  0.00  0.00    +0.000 A 
ATOM     15  C   UNL     1       5.358   4.394  15.954  0.00  0.00    +0.000 A 
ATOM     16  N   UNL     1       4.276   4.019  16.695  0.00  0.00    +0.000 N 
ATOM     17  C   UNL     1       5.821   3.770  14.687  0.00  0.00    +0.000 C 
ATOM     18  C   UNL     1       6.780   4.759  13.979  0.00  0.00    +0.000 C 
ATOM     19  N   UNL     1       7.635   5.543  14.871  0.00  0.00    +0.000 N 
ATOM     20  C   UNL     1       7.182   6.075  16.064  0.00  0.00    +0.000 C 
ATOM     21  O   UNL     1       7.776   6.988  16.627  0.00  0.00    +0.000 OA
ATOM     22  H   UNL     1       3.608   3.286  16.473  0.00  0.00    +0.000 HD
ATOM     23  H   UNL     1       8.412   6.061  14.481  0.00  0.00    +0.000 HD
ENDBRANCH   8  12
BRANCH  11  24
ATOM     24  N   UNL     1       2.234   9.259  19.358  0.00  0.00    +0.000 N 
ATOM     25  H   UNL     1       2.571   9.796  20.150  0.00  0.00    +0.000 HD
BRANCH  24  26
ATOM     26  C   UNL     1       1.447  10.015  18.376  0.00  0.00    +0.000 C 
ATOM     27  C   UNL     1       1.354  11.444  18.956  0.00  0.00    +0.000 C 
ATOM     28  C   UNL     1       0.189  12.298  18.477  0.00  0.00    +0.000 C 
ATOM     29  C   UNL     1      -1.123  11.537  18.486  0.00  0.00    +0.000 C 
ATOM     30  C   UNL     1      -1.013  10.277  17.640  0.00  0.00    +0.000 C 
ATOM     31  C   UNL     1       0.088   9.338  18.134  0.00  0.00    +0.000 C 
BRANCH  30  32
ATOM     32  O   UNL     1      -2.263   9.589  17.654  0.00  0.00    +0.000 OA
ATOM     33  H   UNL     1      -2.535   9.431  16.733  0.00  0.00    +0.000 HD
ENDBRANCH  30  32
ENDBRANCH  24  26
ENDBRANCH  11  24
TORSDOF 4
ENDMDL
MODEL 9
REMARK VINA RESULT:      -7.0      4.047      5.766
REMARK  Name = 
REMARK  5 active torsions:
REMARK  status: ('A' for Active; 'I' for Inactive)
REMARK    1  A    between atoms: C_1  and  C_2
REMARK    2  A    between atoms: C_8  and  C_9
REMARK    3  A    between atoms: C_21  and  N_22
REMARK    4  A    between atoms: N_22  and  C_23
REMARK    5  A    between atoms: C_27  and  O_28
REMARK                            x       y       z     vdW  Elec       q    Type
REMARK                         _______ _______ _______ _____ _____    ______ ____
ROOT
ATOM      1  C   UNL     1       2.111  11.816  17.961  0.00  0.00    +0.000 C 
ATOM      2  C   UNL     1       1.286  11.822  19.211  0.00  0.00    +0.000 A 
ATOM      3  N   UNL     1       1.408  10.710  19.974  0.00  0.00    +0.000 NA
ATOM      4  C   UNL     1       0.620  10.623  21.049  0.00  0.00    +0.000 A 
ATOM      5  C   UNL     1       0.711   9.465  21.808  0.00  0.00    +0.000 A 
ATOM      6  C   UNL     1      -0.074   9.278  22.937  0.00  0.00    +0.000 A 
ATOM      7  C   UNL     1      -0.967  10.274  23.304  0.00  0.00    +0.000 A 
ATOM      8  C   UNL     1      -1.087  11.454  22.544  0.00  0.00    +0.000 A 
ATOM      9  C   UNL     1      -0.287  11.652  21.400  0.00  0.00    +0.000 A 
ATOM     10  N   UNL     1      -0.365  12.782  20.633  0.00  0.00    +0.000 NA
ATOM     11  C   UNL     1       0.405  12.871  19.533  0.00  0.00    +0.000 A 
ENDROOT
BRANCH   8  12
ATOM     12  C   UNL     1      -2.072  12.456  22.981  0.00  0.00    +0.000 A 
ATOM     13  C   UNL     1      -3.459  12.421  22.957  0.00  0.00    +0.000 A 
ATOM     14  C   UNL     1      -3.942  13.613  23.549  0.00  0.00    +0.000 A 
ATOM     15  C   UNL     1      -2.834  14.360  23.897  0.00  0.00    +0.000 A 
ATOM     16  N   UNL     1      -1.714  13.675  23.528  0.00  0.00    +0.000 N 
ATOM     17  C   UNL     1      -2.878  15.677  24.584  0.00  0.00    +0.000 C 
ATOM     18  C   UNL     1      -4.299  16.270  24.412  0.00  0.00    +0.000 C 
ATOM     19  N   UNL     1      -5.388  15.292  24.436  0.00  0.00    +0.000 N 
ATOM     20  C   UNL     1      -5.298  14.057  23.820  0.00  0.00    +0.000 C 
ATOM     21  O   UNL     1      -6.297  13.397  23.554  0.00  0.00    +0.000 OA
ATOM     22  H   UNL     1      -0.750  13.979  23.632  0.00  0.00    +0.000 HD
ATOM     23  H   UNL     1      -6.342  15.618  24.523  0.00  0.00    +0.000 HD
ENDBRANCH   8  12
BRANCH  11  24
ATOM     24  N   UNL     1       0.272  13.965  18.689  0.00  0.00    +0.000 N 
ATOM     25  H   UNL     1       0.395  13.729  17.710  0.00  0.00    +0.000 HD
BRANCH  24  26
ATOM     26  C   UNL     1       0.689  15.321  19.065  0.00  0.00    +0.000 C 
ATOM     27  C   UNL     1      -0.365  16.253  18.426  0.00  0.00    +0.000 C 
ATOM     28  C   UNL     1       0.064  17.691  18.171  0.00  0.00    +0.000 C 
ATOM     29  C   UNL     1       1.438  17.776  17.533  0.00  0.00    +0.000 C 
ATOM     30  C   UNL     1       2.470  17.065  18.397  0.00  0.00    +0.000 C 
ATOM     31  C   UNL     1       2.133  15.589  18.611  0.00  0.00    +0.000 C 
BRANCH  30  32
ATOM     32  O   UNL     1       3.753  17.173  17.782  0.00  0.00    +0.000 OA
ATOM     33  H   UNL     1       3.625  17.237  16.818  0.00  0.00    +0.000 HD
ENDBRANCH  30  32
ENDBRANCH  24  26
ENDBRANCH  11  24
TORSDOF 4
ENDMDL
