MODEL 1
REMARK VINA RESULT:      -9.0      0.000      0.000
REMARK  Name = 
REMARK  7 active torsions:
REMARK  status: ('A' for Active; 'I' for Inactive)
REMARK    1  A    between atoms: C_1  and  C_2
REMARK    2  A    between atoms: N_4  and  C_5
REMARK    3  A    between atoms: C_8  and  N_9
REMARK    4  A    between atoms: C_10  and  C_12
REMARK    5  A    between atoms: C_12  and  C_13
REMARK    6  A    between atoms: C_14  and  C_15
REMARK    7  A    between atoms: C_23  and  C_24
REMARK                            x       y       z     vdW  Elec       q    Type
REMARK                         _______ _______ _______ _____ _____    ______ ____
ROOT
ATOM      1  C   UNL     1       0.755   9.872  20.466  0.00  0.00    +0.000 A 
ATOM      2  C   UNL     1       1.093   9.506  19.206  0.00  0.00    +0.000 A 
ATOM      3  C   UNL     1       0.560  10.175  17.969  0.00  0.00    +0.000 C 
ATOM      4  C   UNL     1       1.944   8.295  19.021  0.00  0.00    +0.000 A 
ATOM      5  C   UNL     1       2.758   8.010  17.888  0.00  0.00    +0.000 A 
ATOM      6  C   UNL     1       3.464   6.771  17.816  0.00  0.00    +0.000 A 
ATOM      7  C   UNL     1       4.403   6.105  16.937  0.00  0.00    +0.000 A 
ATOM      8  C   UNL     1       4.673   4.901  17.534  0.00  0.00    +0.000 A 
ATOM      9  O   UNL     1       3.966   4.727  18.662  0.00  0.00    +0.000 OA
ATOM     10  C   UNL     1       3.251   5.863  18.854  0.00  0.00    +0.000 A 
ATOM     11  C   UNL     1       2.449   6.072  19.972  0.00  0.00    +0.000 A 
ATOM     12  C   UNL     1       2.203   5.018  21.004  0.00  0.00    +0.000 C 
ATOM     13  C   UNL     1       1.873   7.343  20.051  0.00  0.00    +0.000 A 
ATOM     14  O   UNL     1       1.244   7.656  21.270  0.00  0.00    +0.000 OA
ATOM     15  C   UNL     1       1.167   8.996  21.589  0.00  0.00    +0.000 A 
ATOM     16  O   UNL     1       1.233   9.413  22.741  0.00  0.00    +0.000 OA
ATOM     17  C   UNL     1       5.611   3.836  17.165  0.00  0.00    +0.000 C 
ATOM     18  C   UNL     1       6.194   4.042  15.771  0.00  0.00    +0.000 C 
ATOM     19  C   UNL     1       5.952   5.382  15.041  0.00  0.00    +0.000 C 
ATOM     20  C   UNL     1       5.078   6.499  15.675  0.00  0.00    +0.000 C 
ENDROOT
BRANCH   1  21
ATOM     21  C   UNL     1      -0.142  10.999  20.931  0.00  0.00    +0.000 C 
BRANCH  21  23
ATOM     22  N   UNL     1       1.593  12.569  20.144  0.00  0.00    +0.000 N 
ATOM     23  C   UNL     1       0.600  12.326  21.089  0.00  0.00    +0.000 C 
ATOM     24  O   UNL     1       0.298  13.070  22.019  0.00  0.00    +0.000 OA
ATOM     25  H   UNL     1       1.608  11.970  19.324  0.00  0.00    +0.000 HD
BRANCH  22  29
ATOM     26  C   UNL     1       4.381  15.810  20.200  0.00  0.00    +0.000 A 
ATOM     27  C   UNL     1       3.490  15.659  19.143  0.00  0.00    +0.000 A 
ATOM     28  C   UNL     1       2.566  14.603  19.114  0.00  0.00    +0.000 A 
ATOM     29  C   UNL     1       2.504  13.664  20.145  0.00  0.00    +0.000 A 
ATOM     30  C   UNL     1       3.376  13.831  21.228  0.00  0.00    +0.000 A 
ATOM     31  C   UNL     1       4.324  14.878  21.245  0.00  0.00    +0.000 A 
BRANCH  26  35
ATOM     32  C   UNL     1       7.465  17.998  20.055  0.00  0.00    +0.000 C 
ATOM     33  C   UNL     1       6.640  16.777  19.735  0.00  0.00    +0.000 C 
ATOM     34  O   UNL     1       7.125  15.860  19.081  0.00  0.00    +0.000 OA
ATOM     35  N   UNL     1       5.351  16.838  20.250  0.00  0.00    +0.000 N 
ATOM     36  H   UNL     1       5.057  17.721  20.649  0.00  0.00    +0.000 HD
ENDBRANCH  26  35
ENDBRANCH  22  29
ENDBRANCH  21  23
ENDBRANCH   1  21
TORSDOF 4
ENDMDL
MODEL 2
REMARK VINA RESULT:      -8.6      1.970      3.148
REMARK  Name = 
REMARK  7 active torsions:
REMARK  status: ('A' for Active; 'I' for Inactive)
REMARK    1  A    between atoms: C_1  and  C_2
REMARK    2  A    between atoms: N_4  and  C_5
REMARK    3  A    between atoms: C_8  and  N_9
REMARK    4  A    between atoms: C_10  and  C_12
REMARK    5  A    between atoms: C_12  and  C_13
REMARK    6  A    between atoms: C_14  and  C_15
REMARK    7  A    between atoms: C_23  and  C_24
REMARK                            x       y       z     vdW  Elec       q    Type
REMARK                         _______ _______ _______ _____ _____    ______ ____
ROOT
ATOM      1  C   UNL     1      -0.346  10.508  20.538  0.00  0.00    +0.000 A 
ATOM      2  C   UNL     1       0.176   9.524  21.310  0.00  0.00    +0.000 A 
ATOM      3  C   UNL     1       0.184   9.555  22.814  0.00  0.00    +0.000 C 
ATOM      4  C   UNL     1       0.895   8.401  20.641  0.00  0.00    +0.000 A 
ATOM      5  C   UNL     1       1.105   7.101  21.183  0.00  0.00    +0.000 A 
ATOM      6  C   UNL     1       1.878   6.146  20.456  0.00  0.00    +0.000 A 
ATOM      7  C   UNL     1       2.289   4.762  20.577  0.00  0.00    +0.000 A 
ATOM      8  C   UNL     1       3.033   4.502  19.456  0.00  0.00    +0.000 A 
ATOM      9  O   UNL     1       3.170   5.588  18.678  0.00  0.00    +0.000 OA
ATOM     10  C   UNL     1       2.454   6.580  19.262  0.00  0.00    +0.000 A 
ATOM     11  C   UNL     1       2.309   7.843  18.694  0.00  0.00    +0.000 A 
ATOM     12  C   UNL     1       3.026   8.262  17.451  0.00  0.00    +0.000 C 
ATOM     13  C   UNL     1       1.449   8.700  19.386  0.00  0.00    +0.000 A 
ATOM     14  O   UNL     1       1.110   9.894  18.723  0.00  0.00    +0.000 OA
ATOM     15  C   UNL     1      -0.093  10.468  19.079  0.00  0.00    +0.000 A 
ATOM     16  O   UNL     1      -0.803  11.077  18.284  0.00  0.00    +0.000 OA
ATOM     17  C   UNL     1       3.641   3.257  18.975  0.00  0.00    +0.000 C 
ATOM     18  C   UNL     1       3.605   2.156  20.030  0.00  0.00    +0.000 C 
ATOM     19  C   UNL     1       2.769   2.366  21.312  0.00  0.00    +0.000 C 
ATOM     20  C   UNL     1       2.014   3.697  21.575  0.00  0.00    +0.000 C 
ENDROOT
BRANCH   1  21
ATOM     21  C   UNL     1      -1.052  11.780  20.953  0.00  0.00    +0.000 C 
BRANCH  21  23
ATOM     22  N   UNL     1       0.716  13.417  20.415  0.00  0.00    +0.000 N 
ATOM     23  C   UNL     1      -0.089  12.875  21.413  0.00  0.00    +0.000 C 
ATOM     24  O   UNL     1      -0.072  13.193  22.599  0.00  0.00    +0.000 OA
ATOM     25  H   UNL     1       0.466  13.206  19.453  0.00  0.00    +0.000 HD
BRANCH  22  29
ATOM     26  C   UNL     1       3.944  16.167  20.956  0.00  0.00    +0.000 A 
ATOM     27  C   UNL     1       2.655  16.626  20.707  0.00  0.00    +0.000 A 
ATOM     28  C   UNL     1       1.585  15.735  20.533  0.00  0.00    +0.000 A 
ATOM     29  C   UNL     1       1.772  14.354  20.603  0.00  0.00    +0.000 A 
ATOM     30  C   UNL     1       3.061  13.887  20.886  0.00  0.00    +0.000 A 
ATOM     31  C   UNL     1       4.143  14.783  21.036  0.00  0.00    +0.000 A 
BRANCH  26  35
ATOM     32  C   UNL     1       6.992  18.374  20.559  0.00  0.00    +0.000 C 
ATOM     33  C   UNL     1       5.797  17.594  20.071  0.00  0.00    +0.000 C 
ATOM     34  O   UNL     1       5.566  17.508  18.869  0.00  0.00    +0.000 OA
ATOM     35  N   UNL     1       5.056  17.030  21.101  0.00  0.00    +0.000 N 
ATOM     36  H   UNL     1       5.296  17.305  22.045  0.00  0.00    +0.000 HD
ENDBRANCH  26  35
ENDBRANCH  22  29
ENDBRANCH  21  23
ENDBRANCH   1  21
TORSDOF 4
ENDMDL
MODEL 3
REMARK VINA RESULT:      -8.3      1.848      3.150
REMARK  Name = 
REMARK  7 active torsions:
REMARK  status: ('A' for Active; 'I' for Inactive)
REMARK    1  A    between atoms: C_1  and  C_2
REMARK    2  A    between atoms: N_4  and  C_5
REMARK    3  A    between atoms: C_8  and  N_9
REMARK    4  A    between atoms: C_10  and  C_12
REMARK    5  A    between atoms: C_12  and  C_13
REMARK    6  A    between atoms: C_14  and  C_15
REMARK    7  A    between atoms: C_23  and  C_24
REMARK                            x       y       z     vdW  Elec       q    Type
REMARK                         _______ _______ _______ _____ _____    ______ ____
ROOT
ATOM      1  C   UNL     1      -0.067  10.570  20.729  0.00  0.00    +0.000 A 
ATOM      2  C   UNL     1       0.467   9.559  21.456  0.00  0.00    +0.000 A 
ATOM      3  C   UNL     1       0.575   9.573  22.956  0.00  0.00    +0.000 C 
ATOM      4  C   UNL     1       1.098   8.418  20.732  0.00  0.00    +0.000 A 
ATOM      5  C   UNL     1       1.294   7.106  21.248  0.00  0.00    +0.000 A 
ATOM      6  C   UNL     1       1.982   6.130  20.463  0.00  0.00    +0.000 A 
ATOM      7  C   UNL     1       2.347   4.731  20.545  0.00  0.00    +0.000 A 
ATOM      8  C   UNL     1       3.007   4.456  19.375  0.00  0.00    +0.000 A 
ATOM      9  O   UNL     1       3.133   5.545  18.599  0.00  0.00    +0.000 OA
ATOM     10  C   UNL     1       2.494   6.556  19.237  0.00  0.00    +0.000 A 
ATOM     11  C   UNL     1       2.359   7.829  18.691  0.00  0.00    +0.000 A 
ATOM     12  C   UNL     1       3.009   8.235  17.407  0.00  0.00    +0.000 C 
ATOM     13  C   UNL     1       1.580   8.710  19.446  0.00  0.00    +0.000 A 
ATOM     14  O   UNL     1       1.243   9.923  18.816  0.00  0.00    +0.000 OA
ATOM     15  C   UNL     1       0.089  10.537  19.256  0.00  0.00    +0.000 A 
ATOM     16  O   UNL     1      -0.648  11.180  18.515  0.00  0.00    +0.000 OA
ATOM     17  C   UNL     1       3.534   3.195  18.845  0.00  0.00    +0.000 C 
ATOM     18  C   UNL     1       3.526   2.085  19.890  0.00  0.00    +0.000 C 
ATOM     19  C   UNL     1       2.785   2.311  21.227  0.00  0.00    +0.000 C 
ATOM     20  C   UNL     1       2.099   3.666  21.549  0.00  0.00    +0.000 C 
ENDROOT
BRANCH   1  21
ATOM     21  C   UNL     1      -0.696  11.863  21.201  0.00  0.00    +0.000 C 
BRANCH  21  23
ATOM     22  N   UNL     1       1.362  12.895  20.309  0.00  0.00    +0.000 N 
ATOM     23  C   UNL     1       0.270  13.047  21.159  0.00  0.00    +0.000 C 
ATOM     24  O   UNL     1       0.044  14.026  21.866  0.00  0.00    +0.000 OA
ATOM     25  H   UNL     1       1.326  12.129  19.643  0.00  0.00    +0.000 HD
BRANCH  22  29
ATOM     26  C   UNL     1       4.613  15.637  19.873  0.00  0.00    +0.000 A 
ATOM     27  C   UNL     1       4.493  14.855  21.017  0.00  0.00    +0.000 A 
ATOM     28  C   UNL     1       3.434  13.947  21.171  0.00  0.00    +0.000 A 
ATOM     29  C   UNL     1       2.461  13.792  20.183  0.00  0.00    +0.000 A 
ATOM     30  C   UNL     1       2.596  14.553  19.015  0.00  0.00    +0.000 A 
ATOM     31  C   UNL     1       3.646  15.485  18.871  0.00  0.00    +0.000 A 
BRANCH  26  35
ATOM     32  C   UNL     1       7.755  17.579  19.053  0.00  0.00    +0.000 C 
ATOM     33  C   UNL     1       6.801  16.416  18.947  0.00  0.00    +0.000 C 
ATOM     34  O   UNL     1       7.086  15.446  18.252  0.00  0.00    +0.000 OA
ATOM     35  N   UNL     1       5.644  16.589  19.694  0.00  0.00    +0.000 N 
ATOM     36  H   UNL     1       5.493  17.502  20.105  0.00  0.00    +0.000 HD
ENDBRANCH  26  35
ENDBRANCH  22  29
ENDBRANCH  21  23
ENDBRANCH   1  21
TORSDOF 4
ENDMDL
MODEL 4
REMARK VINA RESULT:      -8.2      4.175     10.476
REMARK  Name = 
REMARK  7 active torsions:
REMARK  status: ('A' for Active; 'I' for Inactive)
REMARK    1  A    between atoms: C_1  and  C_2
REMARK    2  A    between atoms: N_4  and  C_5
REMARK    3  A    between atoms: C_8  and  N_9
REMARK    4  A    between atoms: C_10  and  C_12
REMARK    5  A    between atoms: C_12  and  C_13
REMARK    6  A    between atoms: C_14  and  C_15
REMARK    7  A    between atoms: C_23  and  C_24
REMARK                            x       y       z     vdW  Elec       q    Type
REMARK                         _______ _______ _______ _____ _____    ______ ____
ROOT
ATOM      1  C   UNL     1       0.355  11.531  19.571  0.00  0.00    +0.000 A 
ATOM      2  C   UNL     1      -0.895  11.942  19.250  0.00  0.00    +0.000 A 
ATOM      3  C   UNL     1      -1.381  12.122  17.838  0.00  0.00    +0.000 C 
ATOM      4  C   UNL     1      -1.812  12.360  20.350  0.00  0.00    +0.000 A 
ATOM      5  C   UNL     1      -3.234  12.383  20.292  0.00  0.00    +0.000 A 
ATOM      6  C   UNL     1      -3.982  12.880  21.403  0.00  0.00    +0.000 A 
ATOM      7  C   UNL     1      -5.367  13.036  21.797  0.00  0.00    +0.000 A 
ATOM      8  C   UNL     1      -5.330  13.591  23.050  0.00  0.00    +0.000 A 
ATOM      9  O   UNL     1      -4.074  13.841  23.455  0.00  0.00    +0.000 OA
ATOM     10  C   UNL     1      -3.251  13.391  22.476  0.00  0.00    +0.000 A 
ATOM     11  C   UNL     1      -1.863  13.422  22.580  0.00  0.00    +0.000 A 
ATOM     12  C   UNL     1      -1.150  14.063  23.727  0.00  0.00    +0.000 C 
ATOM     13  C   UNL     1      -1.183  12.819  21.519  0.00  0.00    +0.000 A 
ATOM     14  O   UNL     1       0.200  12.638  21.704  0.00  0.00    +0.000 OA
ATOM     15  C   UNL     1       0.780  11.610  20.989  0.00  0.00    +0.000 A 
ATOM     16  O   UNL     1       1.716  10.942  21.420  0.00  0.00    +0.000 OA
ATOM     17  C   UNL     1      -6.408  13.898  23.995  0.00  0.00    +0.000 C 
ATOM     18  C   UNL     1      -7.786  13.775  23.354  0.00  0.00    +0.000 C 
ATOM     19  C   UNL     1      -7.912  13.139  21.951  0.00  0.00    +0.000 C 
ATOM     20  C   UNL     1      -6.659  12.679  21.158  0.00  0.00    +0.000 C 
ENDROOT
BRANCH   1  21
ATOM     21  C   UNL     1       1.495  11.124  18.663  0.00  0.00    +0.000 C 
BRANCH  21  23
ATOM     22  N   UNL     1       2.033   8.819  19.363  0.00  0.00    +0.000 N 
ATOM     23  C   UNL     1       1.510   9.627  18.356  0.00  0.00    +0.000 C 
ATOM     24  O   UNL     1       1.089   9.237  17.271  0.00  0.00    +0.000 OA
ATOM     25  H   UNL     1       2.163   9.244  20.276  0.00  0.00    +0.000 HD
BRANCH  22  29
ATOM     26  C   UNL     1       2.669   4.597  19.154  0.00  0.00    +0.000 A 
ATOM     27  C   UNL     1       3.239   5.448  18.212  0.00  0.00    +0.000 A 
ATOM     28  C   UNL     1       3.043   6.836  18.272  0.00  0.00    +0.000 A 
ATOM     29  C   UNL     1       2.270   7.417  19.278  0.00  0.00    +0.000 A 
ATOM     30  C   UNL     1       1.721   6.568  20.248  0.00  0.00    +0.000 A 
ATOM     31  C   UNL     1       1.897   5.169  20.173  0.00  0.00    +0.000 A 
BRANCH  26  35
ATOM     32  C   UNL     1       3.830   0.997  19.053  0.00  0.00    +0.000 C 
ATOM     33  C   UNL     1       3.993   2.479  19.276  0.00  0.00    +0.000 C 
ATOM     34  O   UNL     1       5.091   2.940  19.571  0.00  0.00    +0.000 OA
ATOM     35  N   UNL     1       2.812   3.190  19.108  0.00  0.00    +0.000 N 
ATOM     36  H   UNL     1       1.962   2.651  19.000  0.00  0.00    +0.000 HD
ENDBRANCH  26  35
ENDBRANCH  22  29
ENDBRANCH  21  23
ENDBRANCH   1  21
TORSDOF 4
ENDMDL
MODEL 5
REMARK VINA RESULT:      -8.0      2.509      3.589
REMARK  Name = 
REMARK  7 active torsions:
REMARK  status: ('A' for Active; 'I' for Inactive)
REMARK    1  A    between atoms: C_1  and  C_2
REMARK    2  A    between atoms: N_4  and  C_5
REMARK    3  A    between atoms: C_8  and  N_9
REMARK    4  A    between atoms: C_10  and  C_12
REMARK    5  A    between atoms: C_12  and  C_13
REMARK    6  A    between atoms: C_14  and  C_15
REMARK    7  A    between atoms: C_23  and  C_24
REMARK                            x       y       z     vdW  Elec       q    Type
REMARK                         _______ _______ _______ _____ _____    ______ ____
ROOT
ATOM      1  C   UNL     1      -0.481  10.560  20.762  0.00  0.00    +0.000 A 
ATOM      2  C   UNL     1       0.081   9.567  21.493  0.00  0.00    +0.000 A 
ATOM      3  C   UNL     1       0.107   9.546  22.996  0.00  0.00    +0.000 C 
ATOM      4  C   UNL     1       0.826   8.491  20.777  0.00  0.00    +0.000 A 
ATOM      5  C   UNL     1       1.083   7.181  21.270  0.00  0.00    +0.000 A 
ATOM      6  C   UNL     1       1.878   6.277  20.501  0.00  0.00    +0.000 A 
ATOM      7  C   UNL     1       2.333   4.904  20.569  0.00  0.00    +0.000 A 
ATOM      8  C   UNL     1       3.072   4.707  19.431  0.00  0.00    +0.000 A 
ATOM      9  O   UNL     1       3.164   5.823  18.690  0.00  0.00    +0.000 OA
ATOM     10  C   UNL     1       2.425   6.770  19.317  0.00  0.00    +0.000 A 
ATOM     11  C   UNL     1       2.233   8.047  18.796  0.00  0.00    +0.000 A 
ATOM     12  C   UNL     1       2.921   8.531  17.560  0.00  0.00    +0.000 C 
ATOM     13  C   UNL     1       1.356   8.852  19.527  0.00  0.00    +0.000 A 
ATOM     14  O   UNL     1       0.971  10.056  18.909  0.00  0.00    +0.000 OA
ATOM     15  C   UNL     1      -0.245  10.579  19.299  0.00  0.00    +0.000 A 
ATOM     16  O   UNL     1      -0.983  11.192  18.534  0.00  0.00    +0.000 OA
ATOM     17  C   UNL     1       3.712   3.499  18.900  0.00  0.00    +0.000 C 
ATOM     18  C   UNL     1       3.724   2.362  19.916  0.00  0.00    +0.000 C 
ATOM     19  C   UNL     1       2.897   2.499  21.214  0.00  0.00    +0.000 C 
ATOM     20  C   UNL     1       2.104   3.796  21.531  0.00  0.00    +0.000 C 
ENDROOT
BRANCH   1  21
ATOM     21  C   UNL     1      -1.222  11.795  21.229  0.00  0.00    +0.000 C 
BRANCH  21  23
ATOM     22  N   UNL     1       0.559  13.492  21.033  0.00  0.00    +0.000 N 
ATOM     23  C   UNL     1      -0.308  12.824  21.893  0.00  0.00    +0.000 C 
ATOM     24  O   UNL     1      -0.377  12.986  23.108  0.00  0.00    +0.000 OA
ATOM     25  H   UNL     1       0.380  13.406  20.037  0.00  0.00    +0.000 HD
BRANCH  22  29
ATOM     26  C   UNL     1       3.587  16.259  22.238  0.00  0.00    +0.000 A 
ATOM     27  C   UNL     1       3.929  15.036  21.669  0.00  0.00    +0.000 A 
ATOM     28  C   UNL     1       2.946  14.121  21.264  0.00  0.00    +0.000 A 
ATOM     29  C   UNL     1       1.587  14.402  21.415  0.00  0.00    +0.000 A 
ATOM     30  C   UNL     1       1.237  15.645  21.956  0.00  0.00    +0.000 A 
ATOM     31  C   UNL     1       2.227  16.555  22.388  0.00  0.00    +0.000 A 
BRANCH  26  35
ATOM     32  C   UNL     1       6.074  18.378  24.147  0.00  0.00    +0.000 C 
ATOM     33  C   UNL     1       5.194  17.175  23.921  0.00  0.00    +0.000 C 
ATOM     34  O   UNL     1       5.105  16.306  24.783  0.00  0.00    +0.000 OA
ATOM     35  N   UNL     1       4.548  17.193  22.692  0.00  0.00    +0.000 N 
ATOM     36  H   UNL     1       4.830  17.910  22.035  0.00  0.00    +0.000 HD
ENDBRANCH  26  35
ENDBRANCH  22  29
ENDBRANCH  21  23
ENDBRANCH   1  21
TORSDOF 4
ENDMDL
MODEL 6
REMARK VINA RESULT:      -7.8      4.313     10.702
REMARK  Name = 
REMARK  7 active torsions:
REMARK  status: ('A' for Active; 'I' for Inactive)
REMARK    1  A    between atoms: C_1  and  C_2
REMARK    2  A    between atoms: N_4  and  C_5
REMARK    3  A    between atoms: C_8  and  N_9
REMARK    4  A    between atoms: C_10  and  C_12
REMARK    5  A    between atoms: C_12  and  C_13
REMARK    6  A    between atoms: C_14  and  C_15
REMARK    7  A    between atoms: C_23  and  C_24
REMARK                            x       y       z     vdW  Elec       q    Type
REMARK                         _______ _______ _______ _____ _____    ______ ____
ROOT
ATOM      1  C   UNL     1       0.049  12.084  19.512  0.00  0.00    +0.000 A 
ATOM      2  C   UNL     1      -1.294  12.149  19.351  0.00  0.00    +0.000 A 
ATOM      3  C   UNL     1      -2.014  11.673  18.119  0.00  0.00    +0.000 C 
ATOM      4  C   UNL     1      -2.104  12.843  20.395  0.00  0.00    +0.000 A 
ATOM      5  C   UNL     1      -3.489  12.638  20.652  0.00  0.00    +0.000 A 
ATOM      6  C   UNL     1      -4.151  13.431  21.639  0.00  0.00    +0.000 A 
ATOM      7  C   UNL     1      -5.461  13.535  22.247  0.00  0.00    +0.000 A 
ATOM      8  C   UNL     1      -5.358  14.548  23.165  0.00  0.00    +0.000 A 
ATOM      9  O   UNL     1      -4.141  15.115  23.157  0.00  0.00    +0.000 OA
ATOM     10  C   UNL     1      -3.397  14.429  22.255  0.00  0.00    +0.000 A 
ATOM     11  C   UNL     1      -2.050  14.696  22.027  0.00  0.00    +0.000 A 
ATOM     12  C   UNL     1      -1.329  15.839  22.666  0.00  0.00    +0.000 C 
ATOM     13  C   UNL     1      -1.422  13.819  21.139  0.00  0.00    +0.000 A 
ATOM     14  O   UNL     1      -0.020  13.925  21.063  0.00  0.00    +0.000 OA
ATOM     15  C   UNL     1       0.655  12.789  20.667  0.00  0.00    +0.000 A 
ATOM     16  O   UNL     1       1.768  12.492  21.092  0.00  0.00    +0.000 OA
ATOM     17  C   UNL     1      -6.323  15.056  24.146  0.00  0.00    +0.000 C 
ATOM     18  C   UNL     1      -7.722  14.490  23.921  0.00  0.00    +0.000 C 
ATOM     19  C   UNL     1      -7.916  13.331  22.919  0.00  0.00    +0.000 C 
ATOM     20  C   UNL     1      -6.726  12.772  22.092  0.00  0.00    +0.000 C 
ENDROOT
BRANCH   1  21
ATOM     21  C   UNL     1       1.101  11.511  18.587  0.00  0.00    +0.000 C 
BRANCH  21  23
ATOM     22  N   UNL     1       1.818   9.282  19.368  0.00  0.00    +0.000 N 
ATOM     23  C   UNL     1       1.026   9.989  18.467  0.00  0.00    +0.000 C 
ATOM     24  O   UNL     1       0.307   9.495  17.603  0.00  0.00    +0.000 OA
ATOM     25  H   UNL     1       2.208   9.802  20.148  0.00  0.00    +0.000 HD
BRANCH  22  29
ATOM     26  C   UNL     1       2.491   5.060  19.352  0.00  0.00    +0.000 A 
ATOM     27  C   UNL     1       1.882   5.678  20.439  0.00  0.00    +0.000 A 
ATOM     28  C   UNL     1       1.650   7.061  20.456  0.00  0.00    +0.000 A 
ATOM     29  C   UNL     1       2.020   7.872  19.382  0.00  0.00    +0.000 A 
ATOM     30  C   UNL     1       2.604   7.251  18.271  0.00  0.00    +0.000 A 
ATOM     31  C   UNL     1       2.861   5.863  18.265  0.00  0.00    +0.000 A 
BRANCH  26  35
ATOM     32  C   UNL     1       4.003   1.598  19.145  0.00  0.00    +0.000 C 
ATOM     33  C   UNL     1       4.038   3.096  19.315  0.00  0.00    +0.000 C 
ATOM     34  O   UNL     1       5.110   3.677  19.437  0.00  0.00    +0.000 OA
ATOM     35  N   UNL     1       2.775   3.675  19.311  0.00  0.00    +0.000 N 
ATOM     36  H   UNL     1       1.981   3.048  19.339  0.00  0.00    +0.000 HD
ENDBRANCH  26  35
ENDBRANCH  22  29
ENDBRANCH  21  23
ENDBRANCH   1  21
TORSDOF 4
ENDMDL
MODEL 7
REMARK VINA RESULT:      -7.7      3.750      4.960
REMARK  Name = 
REMARK  7 active torsions:
REMARK  status: ('A' for Active; 'I' for Inactive)
REMARK    1  A    between atoms: C_1  and  C_2
REMARK    2  A    between atoms: N_4  and  C_5
REMARK    3  A    between atoms: C_8  and  N_9
REMARK    4  A    between atoms: C_10  and  C_12
REMARK    5  A    between atoms: C_12  and  C_13
REMARK    6  A    between atoms: C_14  and  C_15
REMARK    7  A    between atoms: C_23  and  C_24
REMARK                            x       y       z     vdW  Elec       q    Type
REMARK                         _______ _______ _______ _____ _____    ______ ____
ROOT
ATOM      1  C   UNL     1      -0.521  10.372  20.192  0.00  0.00    +0.000 A 
ATOM      2  C   UNL     1      -0.015   9.431  21.024  0.00  0.00    +0.000 A 
ATOM      3  C   UNL     1      -0.145   9.479  22.522  0.00  0.00    +0.000 C 
ATOM      4  C   UNL     1       0.827   8.345  20.442  0.00  0.00    +0.000 A 
ATOM      5  C   UNL     1       1.062   7.067  21.023  0.00  0.00    +0.000 A 
ATOM      6  C   UNL     1       1.954   6.151  20.385  0.00  0.00    +0.000 A 
ATOM      7  C   UNL     1       2.431   4.796  20.566  0.00  0.00    +0.000 A 
ATOM      8  C   UNL     1       3.289   4.568  19.521  0.00  0.00    +0.000 A 
ATOM      9  O   UNL     1       3.432   5.651  18.740  0.00  0.00    +0.000 OA
ATOM     10  C   UNL     1       2.609   6.605  19.240  0.00  0.00    +0.000 A 
ATOM     11  C   UNL     1       2.442   7.850  18.640  0.00  0.00    +0.000 A 
ATOM     12  C   UNL     1       3.244   8.297  17.460  0.00  0.00    +0.000 C 
ATOM     13  C   UNL     1       1.475   8.662  19.238  0.00  0.00    +0.000 A 
ATOM     14  O   UNL     1       1.128   9.826  18.526  0.00  0.00    +0.000 OA
ATOM     15  C   UNL     1      -0.134  10.331  18.762  0.00  0.00    +0.000 A 
ATOM     16  O   UNL     1      -0.803  10.887  17.896  0.00  0.00    +0.000 OA
ATOM     17  C   UNL     1       4.010   3.356  19.118  0.00  0.00    +0.000 C 
ATOM     18  C   UNL     1       3.943   2.267  20.184  0.00  0.00    +0.000 C 
ATOM     19  C   UNL     1       2.983   2.441  21.382  0.00  0.00    +0.000 C 
ATOM     20  C   UNL     1       2.130   3.728  21.552  0.00  0.00    +0.000 C 
ENDROOT
BRANCH   1  21
ATOM     21  C   UNL     1      -1.335  11.605  20.520  0.00  0.00    +0.000 C 
BRANCH  21  23
ATOM     22  N   UNL     1      -1.444  13.438  22.169  0.00  0.00    +0.000 N 
ATOM     23  C   UNL     1      -0.618  12.558  21.476  0.00  0.00    +0.000 C 
ATOM     24  O   UNL     1       0.606  12.505  21.563  0.00  0.00    +0.000 OA
ATOM     25  H   UNL     1      -2.442  13.248  22.152  0.00  0.00    +0.000 HD
BRANCH  22  29
ATOM     26  C   UNL     1      -0.185  16.572  24.792  0.00  0.00    +0.000 A 
ATOM     27  C   UNL     1       0.322  16.481  23.500  0.00  0.00    +0.000 A 
ATOM     28  C   UNL     1      -0.087  15.462  22.627  0.00  0.00    +0.000 A 
ATOM     29  C   UNL     1      -1.017  14.499  23.019  0.00  0.00    +0.000 A 
ATOM     30  C   UNL     1      -1.556  14.604  24.308  0.00  0.00    +0.000 A 
ATOM     31  C   UNL     1      -1.126  15.615  25.196  0.00  0.00    +0.000 A 
BRANCH  26  35
ATOM     32  C   UNL     1       1.353  18.631  27.569  0.00  0.00    +0.000 C 
ATOM     33  C   UNL     1       1.238  17.435  26.658  0.00  0.00    +0.000 C 
ATOM     34  O   UNL     1       1.996  16.480  26.795  0.00  0.00    +0.000 OA
ATOM     35  N   UNL     1       0.227  17.562  25.715  0.00  0.00    +0.000 N 
ATOM     36  H   UNL     1      -0.222  18.466  25.640  0.00  0.00    +0.000 HD
ENDBRANCH  26  35
ENDBRANCH  22  29
ENDBRANCH  21  23
ENDBRANCH   1  21
TORSDOF 4
ENDMDL
MODEL 8
REMARK VINA RESULT:      -7.6      3.232      3.920
REMARK  Name = 
REMARK  7 active torsions:
REMARK  status: ('A' for Active; 'I' for Inactive)
REMARK    1  A    between atoms: C_1  and  C_2
REMARK    2  A    between atoms: N_4  and  C_5
REMARK    3  A    between atoms: C_8  and  N_9
REMARK    4  A    between atoms: C_10  and  C_12
REMARK    5  A    between atoms: C_12  and  C_13
REMARK    6  A    between atoms: C_14  and  C_15
REMARK    7  A    between atoms: C_23  and  C_24
REMARK                            x       y       z     vdW  Elec       q    Type
REMARK                         _______ _______ _______ _____ _____    ______ ____
ROOT
ATOM      1  C   UNL     1       0.342   9.597  20.113  0.00  0.00    +0.000 A 
ATOM      2  C   UNL     1       0.857   9.241  18.912  0.00  0.00    +0.000 A 
ATOM      3  C   UNL     1       0.389   9.806  17.599  0.00  0.00    +0.000 C 
ATOM      4  C   UNL     1       1.860   8.138  18.867  0.00  0.00    +0.000 A 
ATOM      5  C   UNL     1       2.822   7.923  17.840  0.00  0.00    +0.000 A 
ATOM      6  C   UNL     1       3.674   6.777  17.894  0.00  0.00    +0.000 A 
ATOM      7  C   UNL     1       4.775   6.206  17.147  0.00  0.00    +0.000 A 
ATOM      8  C   UNL     1       5.117   5.060  17.817  0.00  0.00    +0.000 A 
ATOM      9  O   UNL     1       4.316   4.833  18.870  0.00  0.00    +0.000 OA
ATOM     10  C   UNL     1       3.456   5.879  18.939  0.00  0.00    +0.000 A 
ATOM     11  C   UNL     1       2.516   6.020  19.956  0.00  0.00    +0.000 A 
ATOM     12  C   UNL     1       2.284   4.972  20.998  0.00  0.00    +0.000 C 
ATOM     13  C   UNL     1       1.789   7.213  19.921  0.00  0.00    +0.000 A 
ATOM     14  O   UNL     1       0.997   7.480  21.054  0.00  0.00    +0.000 OA
ATOM     15  C   UNL     1       0.728   8.809  21.308  0.00  0.00    +0.000 A 
ATOM     16  O   UNL     1       0.616   9.262  22.443  0.00  0.00    +0.000 OA
ATOM     17  C   UNL     1       6.210   4.108  17.594  0.00  0.00    +0.000 C 
ATOM     18  C   UNL     1       6.914   4.345  16.262  0.00  0.00    +0.000 C 
ATOM     19  C   UNL     1       6.598   5.625  15.457  0.00  0.00    +0.000 C 
ATOM     20  C   UNL     1       5.535   6.645  15.949  0.00  0.00    +0.000 C 
ENDROOT
BRANCH   1  21
ATOM     21  C   UNL     1      -0.727  10.620  20.434  0.00  0.00    +0.000 C 
BRANCH  21  23
ATOM     22  N   UNL     1      -1.049  12.438  22.072  0.00  0.00    +0.000 N 
ATOM     23  C   UNL     1      -0.179  11.850  21.157  0.00  0.00    +0.000 C 
ATOM     24  O   UNL     1       0.952  12.244  20.888  0.00  0.00    +0.000 OA
ATOM     25  H   UNL     1      -1.870  11.904  22.339  0.00  0.00    +0.000 HD
BRANCH  22  29
ATOM     26  C   UNL     1      -0.413  16.050  24.269  0.00  0.00    +0.000 A 
ATOM     27  C   UNL     1       0.263  15.817  23.075  0.00  0.00    +0.000 A 
ATOM     28  C   UNL     1       0.060  14.639  22.341  0.00  0.00    +0.000 A 
ATOM     29  C   UNL     1      -0.828  13.655  22.778  0.00  0.00    +0.000 A 
ATOM     30  C   UNL     1      -1.536  13.899  23.962  0.00  0.00    +0.000 A 
ATOM     31  C   UNL     1      -1.312  15.073  24.715  0.00  0.00    +0.000 A 
BRANCH  26  35
ATOM     32  C   UNL     1       0.428  18.631  26.906  0.00  0.00    +0.000 C 
ATOM     33  C   UNL     1       0.494  17.273  26.252  0.00  0.00    +0.000 C 
ATOM     34  O   UNL     1       1.125  16.365  26.782  0.00  0.00    +0.000 OA
ATOM     35  N   UNL     1      -0.210  17.207  25.057  0.00  0.00    +0.000 N 
ATOM     36  H   UNL     1      -0.564  18.078  24.683  0.00  0.00    +0.000 HD
ENDBRANCH  26  35
ENDBRANCH  22  29
ENDBRANCH  21  23
ENDBRANCH   1  21
TORSDOF 4
ENDMDL
MODEL 9
REMARK VINA RESULT:      -7.5      4.197     10.728
REMARK  Name = 
REMARK  7 active torsions:
REMARK  status: ('A' for Active; 'I' for Inactive)
REMARK    1  A    between atoms: C_1  and  C_2
REMARK    2  A    between atoms: N_4  and  C_5
REMARK    3  A    between atoms: C_8  and  N_9
REMARK    4  A    between atoms: C_10  and  C_12
REMARK    5  A    between atoms: C_12  and  C_13
REMARK    6  A    between atoms: C_14  and  C_15
REMARK    7  A    between atoms: C_23  and  C_24
REMARK                            x       y       z     vdW  Elec       q    Type
REMARK                         _______ _______ _______ _____ _____    ______ ____
ROOT
ATOM      1  C   UNL     1       0.220  11.928  19.029  0.00  0.00    +0.000 A 
ATOM      2  C   UNL     1      -1.133  11.869  19.053  0.00  0.00    +0.000 A 
ATOM      3  C   UNL     1      -1.954  11.073  18.075  0.00  0.00    +0.000 C 
ATOM      4  C   UNL     1      -1.866  12.735  20.021  0.00  0.00    +0.000 A 
ATOM      5  C   UNL     1      -3.182  12.510  20.515  0.00  0.00    +0.000 A 
ATOM      6  C   UNL     1      -3.787  13.467  21.385  0.00  0.00    +0.000 A 
ATOM      7  C   UNL     1      -5.014  13.629  22.137  0.00  0.00    +0.000 A 
ATOM      8  C   UNL     1      -4.892  14.833  22.781  0.00  0.00    +0.000 A 
ATOM      9  O   UNL     1      -3.745  15.457  22.472  0.00  0.00    +0.000 OA
ATOM     10  C   UNL     1      -3.059  14.628  21.647  0.00  0.00    +0.000 A 
ATOM     11  C   UNL     1      -1.782  14.917  21.174  0.00  0.00    +0.000 A 
ATOM     12  C   UNL     1      -1.098  16.222  21.432  0.00  0.00    +0.000 C 
ATOM     13  C   UNL     1      -1.191  13.898  20.423  0.00  0.00    +0.000 A 
ATOM     14  O   UNL     1       0.173  14.071  20.124  0.00  0.00    +0.000 OA
ATOM     15  C   UNL     1       0.898  12.919  19.898  0.00  0.00    +0.000 A 
ATOM     16  O   UNL     1       2.078  12.800  20.214  0.00  0.00    +0.000 OA
ATOM     17  C   UNL     1      -5.770  15.494  23.753  0.00  0.00    +0.000 C 
ATOM     18  C   UNL     1      -7.126  14.805  23.864  0.00  0.00    +0.000 C 
ATOM     19  C   UNL     1      -7.334  13.434  23.183  0.00  0.00    +0.000 C 
ATOM     20  C   UNL     1      -6.211  12.773  22.339  0.00  0.00    +0.000 C 
ENDROOT
BRANCH   1  21
ATOM     21  C   UNL     1       1.196  11.221  18.113  0.00  0.00    +0.000 C 
BRANCH  21  23
ATOM     22  N   UNL     1       2.445   9.118  17.781  0.00  0.00    +0.000 N 
ATOM     23  C   UNL     1       1.583   9.829  18.612  0.00  0.00    +0.000 C 
ATOM     24  O   UNL     1       1.117   9.426  19.674  0.00  0.00    +0.000 OA
ATOM     25  H   UNL     1       2.905   9.636  17.039  0.00  0.00    +0.000 HD
BRANCH  22  29
ATOM     26  C   UNL     1       3.589   5.035  18.326  0.00  0.00    +0.000 A 
ATOM     27  C   UNL     1       4.345   5.882  17.522  0.00  0.00    +0.000 A 
ATOM     28  C   UNL     1       3.984   7.226  17.339  0.00  0.00    +0.000 A 
ATOM     29  C   UNL     1       2.854   7.765  17.956  0.00  0.00    +0.000 A 
ATOM     30  C   UNL     1       2.108   6.925  18.792  0.00  0.00    +0.000 A 
ATOM     31  C   UNL     1       2.456   5.566  18.956  0.00  0.00    +0.000 A 
BRANCH  26  35
ATOM     32  C   UNL     1       3.706   1.255  18.470  0.00  0.00    +0.000 C 
ATOM     33  C   UNL     1       3.184   2.589  17.998  0.00  0.00    +0.000 C 
ATOM     34  O   UNL     1       2.221   2.641  17.240  0.00  0.00    +0.000 OA
ATOM     35  N   UNL     1       3.897   3.666  18.508  0.00  0.00    +0.000 N 
ATOM     36  H   UNL     1       4.751   3.456  19.010  0.00  0.00    +0.000 HD
ENDBRANCH  26  35
ENDBRANCH  22  29
ENDBRANCH  21  23
ENDBRANCH   1  21
TORSDOF 4
ENDMDL
