MODEL 1
REMARK VINA RESULT:      -6.8      0.000      0.000
REMARK  Name = 
REMARK  6 active torsions:
REMARK  status: ('A' for Active; 'I' for Inactive)
REMARK    1  A    between atoms: C_1  and  C_2
REMARK    2  A    between atoms: C_2  and  C_3
REMARK    3  A    between atoms: C_5  and  O_6
REMARK    4  A    between atoms: C_9  and  C_10
REMARK    5  A    between atoms: C_10  and  C_11
REMARK    6  A    between atoms: C_19  and  O_20
REMARK                            x       y       z     vdW  Elec       q    Type
REMARK                         _______ _______ _______ _____ _____    ______ ____
ROOT
ATOM      1  C   UNL     1       3.703   3.784  18.910  0.00  0.00    +0.000 A 
ATOM      2  C   UNL     1       4.333   4.399  17.814  0.00  0.00    +0.000 A 
ATOM      3  C   UNL     1       4.049   5.718  17.470  0.00  0.00    +0.000 A 
ATOM      4  C   UNL     1       3.181   6.493  18.253  0.00  0.00    +0.000 A 
ATOM      5  C   UNL     1       2.560   5.895  19.362  0.00  0.00    +0.000 A 
ATOM      6  C   UNL     1       2.749   4.521  19.657  0.00  0.00    +0.000 A 
ATOM      7  C   UNL     1       1.846   6.787  20.298  0.00  0.00    +0.000 C 
ATOM      8  O   UNL     1       1.667   6.457  21.467  0.00  0.00    +0.000 OA
ATOM      9  C   UNL     1       1.415   8.125  19.874  0.00  0.00    +0.000 A 
ATOM     10  C   UNL     1       0.500   8.824  20.678  0.00  0.00    +0.000 A 
ATOM     11  C   UNL     1       0.129  10.123  20.347  0.00  0.00    +0.000 A 
ATOM     12  C   UNL     1       0.670  10.725  19.215  0.00  0.00    +0.000 A 
ATOM     13  C   UNL     1       1.574  10.022  18.410  0.00  0.00    +0.000 A 
ATOM     14  C   UNL     1       1.957   8.709  18.733  0.00  0.00    +0.000 A 
ATOM     15  C   UNL     1       2.968   7.943  17.962  0.00  0.00    +0.000 C 
ATOM     16  O   UNL     1       3.643   8.517  17.113  0.00  0.00    +0.000 OA
ENDROOT
BRANCH   6  17
ATOM     17  C   UNL     1       1.959   3.815  20.725  0.00  0.00    +0.000 C 
ATOM     18  C   UNL     1       0.630   3.183  20.364  0.00  0.00    +0.000 C 
ATOM     19  O   UNL     1       2.426   3.683  21.856  0.00  0.00    +0.000 OA
ENDBRANCH   6  17
BRANCH   1  21
ATOM     20  C   UNL     1       3.545   1.349  18.334  0.00  0.00    +0.000 C 
ATOM     21  C   UNL     1       4.172   2.386  19.262  0.00  0.00    +0.000 C 
ENDBRANCH   1  21
BRANCH   3  22
ATOM     22  O   UNL     1       4.658   6.231  16.360  0.00  0.00    +0.000 OA
ATOM     23  H   UNL     1       4.013   6.425  15.659  0.00  0.00    +0.000 HD
ENDBRANCH   3  22
BRANCH  13  24
ATOM     24  O   UNL     1       2.062  10.646  17.298  0.00  0.00    +0.000 OA
ATOM     25  H   UNL     1       3.030  10.596  17.274  0.00  0.00    +0.000 HD
ENDBRANCH  13  24
TORSDOF 4
ENDMDL
MODEL 2
REMARK VINA RESULT:      -6.6      1.364      5.592
REMARK  Name = 
REMARK  6 active torsions:
REMARK  status: ('A' for Active; 'I' for Inactive)
REMARK    1  A    between atoms: C_1  and  C_2
REMARK    2  A    between atoms: C_2  and  C_3
REMARK    3  A    between atoms: C_5  and  O_6
REMARK    4  A    between atoms: C_9  and  C_10
REMARK    5  A    between atoms: C_10  and  C_11
REMARK    6  A    between atoms: C_19  and  O_20
REMARK                            x       y       z     vdW  Elec       q    Type
REMARK                         _______ _______ _______ _____ _____    ______ ____
ROOT
ATOM      1  C   UNL     1       1.434   9.339  18.982  0.00  0.00    +0.000 A 
ATOM      2  C   UNL     1       2.215   9.182  17.824  0.00  0.00    +0.000 A 
ATOM      3  C   UNL     1       2.940   8.015  17.598  0.00  0.00    +0.000 A 
ATOM      4  C   UNL     1       2.852   6.933  18.486  0.00  0.00    +0.000 A 
ATOM      5  C   UNL     1       2.059   7.070  19.638  0.00  0.00    +0.000 A 
ATOM      6  C   UNL     1       1.408   8.293  19.939  0.00  0.00    +0.000 A 
ATOM      7  C   UNL     1       1.794   5.848  20.424  0.00  0.00    +0.000 C 
ATOM      8  O   UNL     1       0.804   5.768  21.145  0.00  0.00    +0.000 OA
ATOM      9  C   UNL     1       2.661   4.670  20.290  0.00  0.00    +0.000 A 
ATOM     10  C   UNL     1       2.559   3.647  21.246  0.00  0.00    +0.000 A 
ATOM     11  C   UNL     1       3.309   2.484  21.107  0.00  0.00    +0.000 A 
ATOM     12  C   UNL     1       4.161   2.340  20.016  0.00  0.00    +0.000 A 
ATOM     13  C   UNL     1       4.267   3.366  19.069  0.00  0.00    +0.000 A 
ATOM     14  C   UNL     1       3.515   4.546  19.197  0.00  0.00    +0.000 A 
ATOM     15  C   UNL     1       3.529   5.635  18.188  0.00  0.00    +0.000 C 
ATOM     16  O   UNL     1       4.068   5.444  17.103  0.00  0.00    +0.000 OA
ENDROOT
BRANCH   6  17
ATOM     17  C   UNL     1       0.705   8.523  21.248  0.00  0.00    +0.000 C 
ATOM     18  C   UNL     1       1.480   9.111  22.410  0.00  0.00    +0.000 C 
ATOM     19  O   UNL     1      -0.504   8.313  21.349  0.00  0.00    +0.000 OA
ENDBRANCH   6  17
BRANCH   1  21
ATOM     20  C   UNL     1      -0.759  10.404  18.396  0.00  0.00    +0.000 C 
ATOM     21  C   UNL     1       0.598  10.600  19.068  0.00  0.00    +0.000 C 
ENDBRANCH   1  21
BRANCH   3  22
ATOM     22  O   UNL     1       3.721   7.957  16.479  0.00  0.00    +0.000 OA
ATOM     23  H   UNL     1       4.134   7.083  16.379  0.00  0.00    +0.000 HD
ENDBRANCH   3  22
BRANCH  13  24
ATOM     24  O   UNL     1       5.131   3.190  18.027  0.00  0.00    +0.000 OA
ATOM     25  H   UNL     1       5.487   4.042  17.730  0.00  0.00    +0.000 HD
ENDBRANCH  13  24
TORSDOF 4
ENDMDL
MODEL 3
REMARK VINA RESULT:      -6.6      2.992      7.844
REMARK  Name = 
REMARK  6 active torsions:
REMARK  status: ('A' for Active; 'I' for Inactive)
REMARK    1  A    between atoms: C_1  and  C_2
REMARK    2  A    between atoms: C_2  and  C_3
REMARK    3  A    between atoms: C_5  and  O_6
REMARK    4  A    between atoms: C_9  and  C_10
REMARK    5  A    between atoms: C_10  and  C_11
REMARK    6  A    between atoms: C_19  and  O_20
REMARK                            x       y       z     vdW  Elec       q    Type
REMARK                         _______ _______ _______ _____ _____    ______ ____
ROOT
ATOM      1  C   UNL     1      -1.788  12.098  22.200  0.00  0.00    +0.000 A 
ATOM      2  C   UNL     1      -1.378  11.230  23.226  0.00  0.00    +0.000 A 
ATOM      3  C   UNL     1      -0.540  10.150  22.962  0.00  0.00    +0.000 A 
ATOM      4  C   UNL     1      -0.022   9.942  21.676  0.00  0.00    +0.000 A 
ATOM      5  C   UNL     1      -0.410  10.813  20.645  0.00  0.00    +0.000 A 
ATOM      6  C   UNL     1      -1.353  11.848  20.874  0.00  0.00    +0.000 A 
ATOM      7  C   UNL     1       0.326  10.719  19.367  0.00  0.00    +0.000 C 
ATOM      8  O   UNL     1       0.379  11.676  18.601  0.00  0.00    +0.000 OA
ATOM      9  C   UNL     1       1.087   9.508  19.031  0.00  0.00    +0.000 A 
ATOM     10  C   UNL     1       1.528   9.337  17.710  0.00  0.00    +0.000 A 
ATOM     11  C   UNL     1       2.315   8.240  17.372  0.00  0.00    +0.000 A 
ATOM     12  C   UNL     1       2.662   7.315  18.353  0.00  0.00    +0.000 A 
ATOM     13  C   UNL     1       2.212   7.485  19.668  0.00  0.00    +0.000 A 
ATOM     14  C   UNL     1       1.416   8.588  20.022  0.00  0.00    +0.000 A 
ATOM     15  C   UNL     1       0.973   8.860  21.412  0.00  0.00    +0.000 C 
ATOM     16  O   UNL     1       1.456   8.214  22.337  0.00  0.00    +0.000 OA
ENDROOT
BRANCH   6  17
ATOM     17  C   UNL     1      -1.919  12.677  19.754  0.00  0.00    +0.000 C 
ATOM     18  C   UNL     1      -3.087  12.137  18.953  0.00  0.00    +0.000 C 
ATOM     19  O   UNL     1      -1.493  13.812  19.545  0.00  0.00    +0.000 OA
ENDBRANCH   6  17
BRANCH   1  21
ATOM     20  C   UNL     1      -3.720  12.901  23.582  0.00  0.00    +0.000 C 
ATOM     21  C   UNL     1      -2.605  13.304  22.620  0.00  0.00    +0.000 C 
ENDBRANCH   1  21
BRANCH   3  22
ATOM     22  O   UNL     1      -0.228   9.319  24.000  0.00  0.00    +0.000 OA
ATOM     23  H   UNL     1       0.148   8.480  23.682  0.00  0.00    +0.000 HD
ENDBRANCH   3  22
BRANCH  13  24
ATOM     24  O   UNL     1       2.559   6.540  20.591  0.00  0.00    +0.000 OA
ATOM     25  H   UNL     1       3.310   6.013  20.275  0.00  0.00    +0.000 HD
ENDBRANCH  13  24
TORSDOF 4
ENDMDL
MODEL 4
REMARK VINA RESULT:      -6.6      3.550      6.410
REMARK  Name = 
REMARK  6 active torsions:
REMARK  status: ('A' for Active; 'I' for Inactive)
REMARK    1  A    between atoms: C_1  and  C_2
REMARK    2  A    between atoms: C_2  and  C_3
REMARK    3  A    between atoms: C_5  and  O_6
REMARK    4  A    between atoms: C_9  and  C_10
REMARK    5  A    between atoms: C_10  and  C_11
REMARK    6  A    between atoms: C_19  and  O_20
REMARK                            x       y       z     vdW  Elec       q    Type
REMARK                         _______ _______ _______ _____ _____    ______ ____
ROOT
ATOM      1  C   UNL     1       4.427   4.512  19.234  0.00  0.00    +0.000 A 
ATOM      2  C   UNL     1       5.495   5.413  19.392  0.00  0.00    +0.000 A 
ATOM      3  C   UNL     1       6.352   5.704  18.334  0.00  0.00    +0.000 A 
ATOM      4  C   UNL     1       6.129   5.163  17.060  0.00  0.00    +0.000 A 
ATOM      5  C   UNL     1       5.054   4.276  16.884  0.00  0.00    +0.000 A 
ATOM      6  C   UNL     1       4.242   3.880  17.978  0.00  0.00    +0.000 A 
ATOM      7  C   UNL     1       4.699   3.911  15.497  0.00  0.00    +0.000 C 
ATOM      8  O   UNL     1       3.566   3.532  15.218  0.00  0.00    +0.000 OA
ATOM      9  C   UNL     1       5.669   4.081  14.408  0.00  0.00    +0.000 A 
ATOM     10  C   UNL     1       5.410   3.466  13.174  0.00  0.00    +0.000 A 
ATOM     11  C   UNL     1       6.268   3.668  12.098  0.00  0.00    +0.000 A 
ATOM     12  C   UNL     1       7.385   4.485  12.253  0.00  0.00    +0.000 A 
ATOM     13  C   UNL     1       7.645   5.089  13.488  0.00  0.00    +0.000 A 
ATOM     14  C   UNL     1       6.787   4.893  14.583  0.00  0.00    +0.000 A 
ATOM     15  C   UNL     1       6.970   5.567  15.893  0.00  0.00    +0.000 C 
ATOM     16  O   UNL     1       7.789   6.474  15.996  0.00  0.00    +0.000 OA
ENDROOT
BRANCH   6  17
ATOM     17  C   UNL     1       3.204   2.799  17.854  0.00  0.00    +0.000 C 
ATOM     18  C   UNL     1       3.576   1.373  18.207  0.00  0.00    +0.000 C 
ATOM     19  O   UNL     1       2.046   3.084  17.548  0.00  0.00    +0.000 OA
ENDBRANCH   6  17
BRANCH   1  21
ATOM     20  C   UNL     1       2.315   5.325  20.312  0.00  0.00    +0.000 C 
ATOM     21  C   UNL     1       3.491   4.358  20.416  0.00  0.00    +0.000 C 
ENDBRANCH   1  21
BRANCH   3  22
ATOM     22  O   UNL     1       7.400   6.545  18.578  0.00  0.00    +0.000 OA
ATOM     23  H   UNL     1       8.037   6.542  17.844  0.00  0.00    +0.000 HD
ENDBRANCH   3  22
BRANCH  13  24
ATOM     24  O   UNL     1       8.764   5.864  13.599  0.00  0.00    +0.000 OA
ATOM     25  H   UNL     1       8.671   6.498  14.328  0.00  0.00    +0.000 HD
ENDBRANCH  13  24
TORSDOF 4
ENDMDL
MODEL 5
REMARK VINA RESULT:      -6.5      6.353      9.771
REMARK  Name = 
REMARK  6 active torsions:
REMARK  status: ('A' for Active; 'I' for Inactive)
REMARK    1  A    between atoms: C_1  and  C_2
REMARK    2  A    between atoms: C_2  and  C_3
REMARK    3  A    between atoms: C_5  and  O_6
REMARK    4  A    between atoms: C_9  and  C_10
REMARK    5  A    between atoms: C_10  and  C_11
REMARK    6  A    between atoms: C_19  and  O_20
REMARK                            x       y       z     vdW  Elec       q    Type
REMARK                         _______ _______ _______ _____ _____    ______ ____
ROOT
ATOM      1  C   UNL     1      -3.469  11.332  17.023  0.00  0.00    +0.000 A 
ATOM      2  C   UNL     1      -4.864  11.281  16.860  0.00  0.00    +0.000 A 
ATOM      3  C   UNL     1      -5.723  11.552  17.922  0.00  0.00    +0.000 A 
ATOM      4  C   UNL     1      -5.218  11.955  19.167  0.00  0.00    +0.000 A 
ATOM      5  C   UNL     1      -3.826  12.028  19.338  0.00  0.00    +0.000 A 
ATOM      6  C   UNL     1      -2.938  11.644  18.301  0.00  0.00    +0.000 A 
ATOM      7  C   UNL     1      -3.329  12.678  20.568  0.00  0.00    +0.000 C 
ATOM      8  O   UNL     1      -2.208  13.176  20.606  0.00  0.00    +0.000 OA
ATOM      9  C   UNL     1      -4.201  12.823  21.741  0.00  0.00    +0.000 A 
ATOM     10  C   UNL     1      -3.622  13.176  22.970  0.00  0.00    +0.000 A 
ATOM     11  C   UNL     1      -4.426  13.396  24.084  0.00  0.00    +0.000 A 
ATOM     12  C   UNL     1      -5.807  13.263  23.972  0.00  0.00    +0.000 A 
ATOM     13  C   UNL     1      -6.380  12.902  22.747  0.00  0.00    +0.000 A 
ATOM     14  C   UNL     1      -5.580  12.677  21.614  0.00  0.00    +0.000 A 
ATOM     15  C   UNL     1      -6.135  12.366  20.273  0.00  0.00    +0.000 C 
ATOM     16  O   UNL     1      -7.340  12.482  20.077  0.00  0.00    +0.000 OA
ENDROOT
BRANCH   6  17
ATOM     17  C   UNL     1      -1.453  11.541  18.516  0.00  0.00    +0.000 C 
ATOM     18  C   UNL     1      -0.877  10.261  19.087  0.00  0.00    +0.000 C 
ATOM     19  O   UNL     1      -0.709  12.453  18.156  0.00  0.00    +0.000 OA
ENDBRANCH   6  17
BRANCH   1  21
ATOM     20  C   UNL     1      -3.244  10.061  14.874  0.00  0.00    +0.000 C 
ATOM     21  C   UNL     1      -2.634  11.132  15.774  0.00  0.00    +0.000 C 
ENDBRANCH   1  21
BRANCH   3  22
ATOM     22  O   UNL     1      -7.065  11.428  17.703  0.00  0.00    +0.000 OA
ATOM     23  H   UNL     1      -7.249  11.078  16.815  0.00  0.00    +0.000 HD
ENDBRANCH   3  22
BRANCH  13  24
ATOM     24  O   UNL     1      -7.738  12.763  22.690  0.00  0.00    +0.000 OA
ATOM     25  H   UNL     1      -8.171  13.631  22.691  0.00  0.00    +0.000 HD
ENDBRANCH  13  24
TORSDOF 4
ENDMDL
MODEL 6
REMARK VINA RESULT:      -6.4      2.885      7.911
REMARK  Name = 
REMARK  6 active torsions:
REMARK  status: ('A' for Active; 'I' for Inactive)
REMARK    1  A    between atoms: C_1  and  C_2
REMARK    2  A    between atoms: C_2  and  C_3
REMARK    3  A    between atoms: C_5  and  O_6
REMARK    4  A    between atoms: C_9  and  C_10
REMARK    5  A    between atoms: C_10  and  C_11
REMARK    6  A    between atoms: C_19  and  O_20
REMARK                            x       y       z     vdW  Elec       q    Type
REMARK                         _______ _______ _______ _____ _____    ______ ____
ROOT
ATOM      1  C   UNL     1      -1.432  12.375  21.965  0.00  0.00    +0.000 A 
ATOM      2  C   UNL     1      -1.190  11.479  23.020  0.00  0.00    +0.000 A 
ATOM      3  C   UNL     1      -0.456  10.313  22.819  0.00  0.00    +0.000 A 
ATOM      4  C   UNL     1       0.126  10.037  21.573  0.00  0.00    +0.000 A 
ATOM      5  C   UNL     1      -0.093  10.935  20.515  0.00  0.00    +0.000 A 
ATOM      6  C   UNL     1      -0.934  12.066  20.673  0.00  0.00    +0.000 A 
ATOM      7  C   UNL     1       0.718  10.749  19.294  0.00  0.00    +0.000 C 
ATOM      8  O   UNL     1       0.927  11.688  18.531  0.00  0.00    +0.000 OA
ATOM      9  C   UNL     1       1.366   9.461  19.016  0.00  0.00    +0.000 A 
ATOM     10  C   UNL     1       1.879   9.230  17.730  0.00  0.00    +0.000 A 
ATOM     11  C   UNL     1       2.566   8.053  17.452  0.00  0.00    +0.000 A 
ATOM     12  C   UNL     1       2.742   7.106  18.457  0.00  0.00    +0.000 A 
ATOM     13  C   UNL     1       2.221   7.336  19.736  0.00  0.00    +0.000 A 
ATOM     14  C   UNL     1       1.525   8.521  20.030  0.00  0.00    +0.000 A 
ATOM     15  C   UNL     1       1.017   8.853  21.384  0.00  0.00    +0.000 C 
ATOM     16  O   UNL     1       1.361   8.169  22.343  0.00  0.00    +0.000 OA
ENDROOT
BRANCH   6  17
ATOM     17  C   UNL     1      -1.328  12.938  19.514  0.00  0.00    +0.000 C 
ATOM     18  C   UNL     1      -0.611  14.257  19.304  0.00  0.00    +0.000 C 
ATOM     19  O   UNL     1      -2.164  12.548  18.699  0.00  0.00    +0.000 OA
ENDBRANCH   6  17
BRANCH   1  21
ATOM     20  C   UNL     1      -1.373  14.436  23.391  0.00  0.00    +0.000 C 
ATOM     21  C   UNL     1      -2.143  13.665  22.322  0.00  0.00    +0.000 C 
ENDBRANCH   1  21
BRANCH   3  22
ATOM     22  O   UNL     1      -0.309   9.464  23.878  0.00  0.00    +0.000 OA
ATOM     23  H   UNL     1      -1.088   9.483  24.460  0.00  0.00    +0.000 HD
ENDBRANCH   3  22
BRANCH  13  24
ATOM     24  O   UNL     1       2.400   6.370  20.684  0.00  0.00    +0.000 OA
ATOM     25  H   UNL     1       3.196   6.548  21.209  0.00  0.00    +0.000 HD
ENDBRANCH  13  24
TORSDOF 4
ENDMDL
MODEL 7
REMARK VINA RESULT:      -6.4      0.882      1.012
REMARK  Name = 
REMARK  6 active torsions:
REMARK  status: ('A' for Active; 'I' for Inactive)
REMARK    1  A    between atoms: C_1  and  C_2
REMARK    2  A    between atoms: C_2  and  C_3
REMARK    3  A    between atoms: C_5  and  O_6
REMARK    4  A    between atoms: C_9  and  C_10
REMARK    5  A    between atoms: C_10  and  C_11
REMARK    6  A    between atoms: C_19  and  O_20
REMARK                            x       y       z     vdW  Elec       q    Type
REMARK                         _______ _______ _______ _____ _____    ______ ____
ROOT
ATOM      1  C   UNL     1       3.389   3.168  18.557  0.00  0.00    +0.000 A 
ATOM      2  C   UNL     1       4.095   3.783  17.509  0.00  0.00    +0.000 A 
ATOM      3  C   UNL     1       3.951   5.143  17.245  0.00  0.00    +0.000 A 
ATOM      4  C   UNL     1       3.152   5.952  18.066  0.00  0.00    +0.000 A 
ATOM      5  C   UNL     1       2.456   5.353  19.129  0.00  0.00    +0.000 A 
ATOM      6  C   UNL     1       2.501   3.951  19.339  0.00  0.00    +0.000 A 
ATOM      7  C   UNL     1       1.819   6.253  20.112  0.00  0.00    +0.000 C 
ATOM      8  O   UNL     1       1.589   5.872  21.256  0.00  0.00    +0.000 OA
ATOM      9  C   UNL     1       1.532   7.652  19.769  0.00  0.00    +0.000 A 
ATOM     10  C   UNL     1       0.679   8.388  20.605  0.00  0.00    +0.000 A 
ATOM     11  C   UNL     1       0.446   9.737  20.353  0.00  0.00    +0.000 A 
ATOM     12  C   UNL     1       1.063  10.350  19.266  0.00  0.00    +0.000 A 
ATOM     13  C   UNL     1       1.905   9.609  18.428  0.00  0.00    +0.000 A 
ATOM     14  C   UNL     1       2.149   8.247  18.672  0.00  0.00    +0.000 A 
ATOM     15  C   UNL     1       3.090   7.431  17.864  0.00  0.00    +0.000 C 
ATOM     16  O   UNL     1       3.833   7.985  17.060  0.00  0.00    +0.000 OA
ENDROOT
BRANCH   6  17
ATOM     17  C   UNL     1       1.627   3.265  20.352  0.00  0.00    +0.000 C 
ATOM     18  C   UNL     1       2.180   2.984  21.735  0.00  0.00    +0.000 C 
ATOM     19  O   UNL     1       0.452   3.010  20.087  0.00  0.00    +0.000 OA
ENDBRANCH   6  17
BRANCH   1  21
ATOM     20  C   UNL     1       4.760   1.576  19.923  0.00  0.00    +0.000 C 
ATOM     21  C   UNL     1       3.709   1.711  18.825  0.00  0.00    +0.000 C 
ENDBRANCH   1  21
BRANCH   3  22
ATOM     22  O   UNL     1       4.626   5.658  16.176  0.00  0.00    +0.000 OA
ATOM     23  H   UNL     1       5.386   5.103  15.934  0.00  0.00    +0.000 HD
ENDBRANCH   3  22
BRANCH  13  24
ATOM     24  O   UNL     1       2.471  10.248  17.362  0.00  0.00    +0.000 OA
ATOM     25  H   UNL     1       3.007   9.632  16.839  0.00  0.00    +0.000 HD
ENDBRANCH  13  24
TORSDOF 4
ENDMDL
MODEL 8
REMARK VINA RESULT:      -6.3      2.523      7.670
REMARK  Name = 
REMARK  6 active torsions:
REMARK  status: ('A' for Active; 'I' for Inactive)
REMARK    1  A    between atoms: C_1  and  C_2
REMARK    2  A    between atoms: C_2  and  C_3
REMARK    3  A    between atoms: C_5  and  O_6
REMARK    4  A    between atoms: C_9  and  C_10
REMARK    5  A    between atoms: C_10  and  C_11
REMARK    6  A    between atoms: C_19  and  O_20
REMARK                            x       y       z     vdW  Elec       q    Type
REMARK                         _______ _______ _______ _____ _____    ______ ____
ROOT
ATOM      1  C   UNL     1      -1.365  12.221  21.063  0.00  0.00    +0.000 A 
ATOM      2  C   UNL     1      -1.287  11.456  22.239  0.00  0.00    +0.000 A 
ATOM      3  C   UNL     1      -0.578  10.258  22.272  0.00  0.00    +0.000 A 
ATOM      4  C   UNL     1       0.140   9.818  21.151  0.00  0.00    +0.000 A 
ATOM      5  C   UNL     1       0.086  10.584  19.974  0.00  0.00    +0.000 A 
ATOM      6  C   UNL     1      -0.725  11.745  19.891  0.00  0.00    +0.000 A 
ATOM      7  C   UNL     1       1.032  10.232  18.895  0.00  0.00    +0.000 C 
ATOM      8  O   UNL     1       1.367  11.065  18.058  0.00  0.00    +0.000 OA
ATOM      9  C   UNL     1       1.660   8.906  18.855  0.00  0.00    +0.000 A 
ATOM     10  C   UNL     1       2.316   8.507  17.680  0.00  0.00    +0.000 A 
ATOM     11  C   UNL     1       2.987   7.289  17.633  0.00  0.00    +0.000 A 
ATOM     12  C   UNL     1       3.003   6.469  18.757  0.00  0.00    +0.000 A 
ATOM     13  C   UNL     1       2.340   6.866  19.924  0.00  0.00    +0.000 A 
ATOM     14  C   UNL     1       1.658   8.093  19.985  0.00  0.00    +0.000 A 
ATOM     15  C   UNL     1       1.002   8.600  21.217  0.00  0.00    +0.000 C 
ATOM     16  O   UNL     1       1.201   8.030  22.285  0.00  0.00    +0.000 OA
ENDROOT
BRANCH   6  17
ATOM     17  C   UNL     1      -0.941  12.478  18.595  0.00  0.00    +0.000 C 
ATOM     18  C   UNL     1      -1.938  11.929  17.594  0.00  0.00    +0.000 C 
ATOM     19  O   UNL     1      -0.377  13.552  18.389  0.00  0.00    +0.000 OA
ENDBRANCH   6  17
BRANCH   1  21
ATOM     20  C   UNL     1      -3.533  13.382  21.549  0.00  0.00    +0.000 C 
ATOM     21  C   UNL     1      -2.065  13.561  21.173  0.00  0.00    +0.000 C 
ENDBRANCH   1  21
BRANCH   3  22
ATOM     22  O   UNL     1      -0.594   9.541  23.434  0.00  0.00    +0.000 OA
ATOM     23  H   UNL     1       0.234   9.046  23.558  0.00  0.00    +0.000 HD
ENDBRANCH   3  22
BRANCH  13  24
ATOM     24  O   UNL     1       2.365   6.018  20.995  0.00  0.00    +0.000 OA
ATOM     25  H   UNL     1       2.631   6.491  21.799  0.00  0.00    +0.000 HD
ENDBRANCH  13  24
TORSDOF 4
ENDMDL
MODEL 9
REMARK VINA RESULT:      -6.3      5.021      7.921
REMARK  Name = 
REMARK  6 active torsions:
REMARK  status: ('A' for Active; 'I' for Inactive)
REMARK    1  A    between atoms: C_1  and  C_2
REMARK    2  A    between atoms: C_2  and  C_3
REMARK    3  A    between atoms: C_5  and  O_6
REMARK    4  A    between atoms: C_9  and  C_10
REMARK    5  A    between atoms: C_10  and  C_11
REMARK    6  A    between atoms: C_19  and  O_20
REMARK                            x       y       z     vdW  Elec       q    Type
REMARK                         _______ _______ _______ _____ _____    ______ ____
ROOT
ATOM      1  C   UNL     1      -0.163  10.331  18.657  0.00  0.00    +0.000 A 
ATOM      2  C   UNL     1      -0.786   9.874  17.483  0.00  0.00    +0.000 A 
ATOM      3  C   UNL     1      -2.123  10.160  17.220  0.00  0.00    +0.000 A 
ATOM      4  C   UNL     1      -2.865  10.977  18.086  0.00  0.00    +0.000 A 
ATOM      5  C   UNL     1      -2.248  11.455  19.254  0.00  0.00    +0.000 A 
ATOM      6  C   UNL     1      -0.924  11.077  19.593  0.00  0.00    +0.000 A 
ATOM      7  C   UNL     1      -2.966  12.496  20.019  0.00  0.00    +0.000 C 
ATOM      8  O   UNL     1      -2.357  13.266  20.755  0.00  0.00    +0.000 OA
ATOM      9  C   UNL     1      -4.411  12.689  19.844  0.00  0.00    +0.000 A 
ATOM     10  C   UNL     1      -5.103  13.474  20.780  0.00  0.00    +0.000 A 
ATOM     11  C   UNL     1      -6.457  13.740  20.604  0.00  0.00    +0.000 A 
ATOM     12  C   UNL     1      -7.121  13.223  19.495  0.00  0.00    +0.000 A 
ATOM     13  C   UNL     1      -6.430  12.433  18.569  0.00  0.00    +0.000 A 
ATOM     14  C   UNL     1      -5.062  12.157  18.735  0.00  0.00    +0.000 A 
ATOM     15  C   UNL     1      -4.261  11.389  17.749  0.00  0.00    +0.000 C 
ATOM     16  O   UNL     1      -4.743  11.130  16.651  0.00  0.00    +0.000 OA
ENDROOT
BRANCH   6  17
ATOM     17  C   UNL     1      -0.306  11.427  20.918  0.00  0.00    +0.000 C 
ATOM     18  C   UNL     1      -0.582  10.543  22.118  0.00  0.00    +0.000 C 
ATOM     19  O   UNL     1       0.478  12.371  21.007  0.00  0.00    +0.000 OA
ENDBRANCH   6  17
BRANCH   1  21
ATOM     20  C   UNL     1       1.740   8.882  17.905  0.00  0.00    +0.000 C 
ATOM     21  C   UNL     1       1.323  10.058  18.785  0.00  0.00    +0.000 C 
ENDBRANCH   1  21
BRANCH   3  22
ATOM     22  O   UNL     1      -2.675   9.636  16.087  0.00  0.00    +0.000 OA
ATOM     23  H   UNL     1      -2.539   8.674  16.038  0.00  0.00    +0.000 HD
ENDBRANCH   3  22
BRANCH  13  24
ATOM     24  O   UNL     1      -7.128  11.930  17.508  0.00  0.00    +0.000 OA
ATOM     25  H   UNL     1      -7.964  11.538  17.804  0.00  0.00    +0.000 HD
ENDBRANCH  13  24
TORSDOF 4
ENDMDL
