MODEL 1
REMARK VINA RESULT:      -7.3      0.000      0.000
REMARK  Name = 
REMARK  10 active torsions:
REMARK  status: ('A' for Active; 'I' for Inactive)
REMARK    1  A    between atoms: C_1  and  O_2
REMARK    2  A    between atoms: O_2  and  C_3
REMARK    3  A    between atoms: C_8  and  N_9
REMARK    4  A    between atoms: N_12  and  C_13
REMARK    5  A    between atoms: C_13  and  C_14
REMARK    6  A    between atoms: C_14  and  C_15
REMARK    7  A    between atoms: C_15  and  C_16
REMARK    8  A    between atoms: C_16  and  N_17
REMARK    9  A    between atoms: C_18  and  C_20
REMARK   10  A    between atoms: C_22  and  C_23
REMARK                            x       y       z     vdW  Elec       q    Type
REMARK                         _______ _______ _______ _____ _____    ______ ____
ROOT
ATOM      1  C   UNL     1       2.366   5.783  19.706  0.00  0.00    +0.000 C 
ENDROOT
BRANCH   1   2
ATOM      2  C   UNL     1       1.601   6.031  21.008  0.00  0.00    +0.000 C 
BRANCH   2   3
ATOM      3  C   UNL     1       0.673   7.254  20.950  0.00  0.00    +0.000 C 
BRANCH   3   7
ATOM      4  N   UNL     1      -0.546  10.529  21.950  0.00  0.00    +0.000 N 
ATOM      5  C   UNL     1      -0.572  10.054  20.564  0.00  0.00    +0.000 C 
ATOM      6  C   UNL     1       0.836   9.575  20.147  0.00  0.00    +0.000 C 
ATOM      7  N   UNL     1       1.408   8.524  21.032  0.00  0.00    +0.000 NA
ATOM      8  C   UNL     1       1.407   9.058  22.416  0.00  0.00    +0.000 C 
ATOM      9  C   UNL     1       0.043   9.590  22.922  0.00  0.00    +0.000 C 
BRANCH   4  15
ATOM     10  C   UNL     1      -0.287  12.993  22.169  0.00  0.00    +0.000 A 
ATOM     11  C   UNL     1      -0.818  14.206  22.643  0.00  0.00    +0.000 A 
ATOM     12  C   UNL     1      -2.064  14.257  23.259  0.00  0.00    +0.000 A 
ATOM     13  C   UNL     1      -2.795  13.092  23.411  0.00  0.00    +0.000 A 
ATOM     14  C   UNL     1      -2.270  11.881  22.957  0.00  0.00    +0.000 A 
ATOM     15  C   UNL     1      -1.003  11.780  22.340  0.00  0.00    +0.000 A 
BRANCH  10  17
ATOM     16  C   UNL     1       1.133  13.551  20.351  0.00  0.00    +0.000 C 
ATOM     17  O   UNL     1       0.982  12.944  21.634  0.00  0.00    +0.000 OA
ENDBRANCH  10  17
ENDBRANCH   4  15
ENDBRANCH   3   7
ENDBRANCH   2   3
ENDBRANCH   1   2
BRANCH   1  18
ATOM     18  C   UNL     1       3.266   4.558  19.816  0.00  0.00    +0.000 C 
BRANCH  18  19
ATOM     19  N   UNL     1       4.169   4.453  18.708  0.00  0.00    +0.000 N 
ATOM     20  C   UNL     1       5.469   4.890  18.774  0.00  0.00    +0.000 C 
ATOM     21  O   UNL     1       5.974   5.400  19.769  0.00  0.00    +0.000 OA
ATOM     22  H   UNL     1       3.893   3.996  17.845  0.00  0.00    +0.000 HD
BRANCH  20  23
ATOM     23  C   UNL     1       6.206   4.687  17.525  0.00  0.00    +0.000 A 
ATOM     24  C   UNL     1       5.630   4.491  16.249  0.00  0.00    +0.000 A 
ATOM     25  C   UNL     1       6.691   4.368  15.383  0.00  0.00    +0.000 A 
ATOM     26  N   UNL     1       7.812   4.454  16.157  0.00  0.00    +0.000 N 
ATOM     27  N   UNL     1       7.554   4.666  17.465  0.00  0.00    +0.000 NA
ATOM     28  H   UNL     1       8.778   4.389  15.851  0.00  0.00    +0.000 HD
BRANCH  25  29
ATOM     29  C   UNL     1       6.725   4.203  13.975  0.00  0.00    +0.000 A 
ATOM     30  C   UNL     1       7.432   4.942  13.044  0.00  0.00    +0.000 A 
ATOM     31  C   UNL     1       7.164   4.381  11.773  0.00  0.00    +0.000 A 
ATOM     32  C   UNL     1       6.301   3.336  11.999  0.00  0.00    +0.000 A 
ATOM     33  O   UNL     1       6.030   3.220  13.324  0.00  0.00    +0.000 OA
ENDBRANCH  25  29
ENDBRANCH  20  23
ENDBRANCH  18  19
ENDBRANCH   1  18
TORSDOF 9
ENDMDL
MODEL 2
REMARK VINA RESULT:      -7.3      7.130      9.398
REMARK  Name = 
REMARK  10 active torsions:
REMARK  status: ('A' for Active; 'I' for Inactive)
REMARK    1  A    between atoms: C_1  and  O_2
REMARK    2  A    between atoms: O_2  and  C_3
REMARK    3  A    between atoms: C_8  and  N_9
REMARK    4  A    between atoms: N_12  and  C_13
REMARK    5  A    between atoms: C_13  and  C_14
REMARK    6  A    between atoms: C_14  and  C_15
REMARK    7  A    between atoms: C_15  and  C_16
REMARK    8  A    between atoms: C_16  and  N_17
REMARK    9  A    between atoms: C_18  and  C_20
REMARK   10  A    between atoms: C_22  and  C_23
REMARK                            x       y       z     vdW  Elec       q    Type
REMARK                         _______ _______ _______ _____ _____    ______ ____
ROOT
ATOM      1  C   UNL     1       8.110   9.542  17.979  0.00  0.00    +0.000 C 
ENDROOT
BRANCH   1   2
ATOM      2  C   UNL     1       9.036   9.597  19.196  0.00  0.00    +0.000 C 
BRANCH   2   3
ATOM      3  C   UNL     1       9.646  10.986  19.439  0.00  0.00    +0.000 C 
BRANCH   3   7
ATOM      4  N   UNL     1      10.316  14.533  19.008  0.00  0.00    +0.000 N 
ATOM      5  C   UNL     1       8.962  13.972  19.048  0.00  0.00    +0.000 C 
ATOM      6  C   UNL     1       8.837  12.827  18.019  0.00  0.00    +0.000 C 
ATOM      7  N   UNL     1       9.840  11.742  18.192  0.00  0.00    +0.000 NA
ATOM      8  C   UNL     1      11.185  12.365  18.146  0.00  0.00    +0.000 C 
ATOM      9  C   UNL     1      11.404  13.546  19.125  0.00  0.00    +0.000 C 
BRANCH   4  15
ATOM     10  C   UNL     1      10.474  16.865  19.856  0.00  0.00    +0.000 A 
ATOM     11  C   UNL     1      10.720  18.220  19.569  0.00  0.00    +0.000 A 
ATOM     12  C   UNL     1      11.101  18.630  18.296  0.00  0.00    +0.000 A 
ATOM     13  C   UNL     1      11.241  17.688  17.291  0.00  0.00    +0.000 A 
ATOM     14  C   UNL     1      10.986  16.343  17.564  0.00  0.00    +0.000 A 
ATOM     15  C   UNL     1      10.581  15.884  18.837  0.00  0.00    +0.000 A 
BRANCH  10  17
ATOM     16  C   UNL     1      11.027  16.288  22.091  0.00  0.00    +0.000 C 
ATOM     17  O   UNL     1      10.019  16.484  21.100  0.00  0.00    +0.000 OA
ENDBRANCH  10  17
ENDBRANCH   4  15
ENDBRANCH   3   7
ENDBRANCH   2   3
ENDBRANCH   1   2
BRANCH   1  18
ATOM     18  C   UNL     1       8.230   8.208  17.251  0.00  0.00    +0.000 C 
BRANCH  18  19
ATOM     19  N   UNL     1       7.380   7.205  17.822  0.00  0.00    +0.000 N 
ATOM     20  C   UNL     1       6.961   6.106  17.115  0.00  0.00    +0.000 C 
ATOM     21  O   UNL     1       7.270   5.878  15.949  0.00  0.00    +0.000 OA
ATOM     22  H   UNL     1       7.101   7.243  18.797  0.00  0.00    +0.000 HD
BRANCH  20  23
ATOM     23  C   UNL     1       6.098   5.217  17.895  0.00  0.00    +0.000 A 
ATOM     24  C   UNL     1       4.689   5.150  17.809  0.00  0.00    +0.000 A 
ATOM     25  C   UNL     1       4.312   4.171  18.697  0.00  0.00    +0.000 A 
ATOM     26  N   UNL     1       5.468   3.740  19.282  0.00  0.00    +0.000 N 
ATOM     27  N   UNL     1       6.577   4.342  18.805  0.00  0.00    +0.000 NA
ATOM     28  H   UNL     1       5.565   3.029  20.001  0.00  0.00    +0.000 HD
BRANCH  25  29
ATOM     29  C   UNL     1       3.035   3.636  19.004  0.00  0.00    +0.000 A 
ATOM     30  C   UNL     1       2.046   4.185  19.801  0.00  0.00    +0.000 A 
ATOM     31  C   UNL     1       0.949   3.292  19.781  0.00  0.00    +0.000 A 
ATOM     32  C   UNL     1       1.332   2.244  18.979  0.00  0.00    +0.000 A 
ATOM     33  O   UNL     1       2.590   2.442  18.505  0.00  0.00    +0.000 OA
ENDBRANCH  25  29
ENDBRANCH  20  23
ENDBRANCH  18  19
ENDBRANCH   1  18
TORSDOF 9
ENDMDL
MODEL 3
REMARK VINA RESULT:      -7.2      4.996     10.288
REMARK  Name = 
REMARK  10 active torsions:
REMARK  status: ('A' for Active; 'I' for Inactive)
REMARK    1  A    between atoms: C_1  and  O_2
REMARK    2  A    between atoms: O_2  and  C_3
REMARK    3  A    between atoms: C_8  and  N_9
REMARK    4  A    between atoms: N_12  and  C_13
REMARK    5  A    between atoms: C_13  and  C_14
REMARK    6  A    between atoms: C_14  and  C_15
REMARK    7  A    between atoms: C_15  and  C_16
REMARK    8  A    between atoms: C_16  and  N_17
REMARK    9  A    between atoms: C_18  and  C_20
REMARK   10  A    between atoms: C_22  and  C_23
REMARK                            x       y       z     vdW  Elec       q    Type
REMARK                         _______ _______ _______ _____ _____    ______ ____
ROOT
ATOM      1  C   UNL     1       8.821   9.600  18.686  0.00  0.00    +0.000 C 
ENDROOT
BRANCH   1   2
ATOM      2  C   UNL     1       8.109   8.614  17.756  0.00  0.00    +0.000 C 
BRANCH   2   3
ATOM      3  C   UNL     1       7.915   7.221  18.375  0.00  0.00    +0.000 C 
BRANCH   3   7
ATOM      4  N   UNL     1       4.927   5.151  18.301  0.00  0.00    +0.000 N 
ATOM      5  C   UNL     1       6.170   4.741  18.961  0.00  0.00    +0.000 C 
ATOM      6  C   UNL     1       7.352   4.858  17.974  0.00  0.00    +0.000 C 
ATOM      7  N   UNL     1       7.517   6.214  17.380  0.00  0.00    +0.000 NA
ATOM      8  C   UNL     1       6.233   6.576  16.733  0.00  0.00    +0.000 C 
ATOM      9  C   UNL     1       4.978   6.464  17.634  0.00  0.00    +0.000 C 
BRANCH   4  15
ATOM     10  C   UNL     1       2.499   4.783  18.695  0.00  0.00    +0.000 A 
ATOM     11  C   UNL     1       1.411   3.891  18.658  0.00  0.00    +0.000 A 
ATOM     12  C   UNL     1       1.555   2.597  18.173  0.00  0.00    +0.000 A 
ATOM     13  C   UNL     1       2.793   2.174  17.719  0.00  0.00    +0.000 A 
ATOM     14  C   UNL     1       3.881   3.047  17.764  0.00  0.00    +0.000 A 
ATOM     15  C   UNL     1       3.785   4.365  18.263  0.00  0.00    +0.000 A 
BRANCH  10  17
ATOM     16  C   UNL     1       1.962   6.059  20.622  0.00  0.00    +0.000 C 
ATOM     17  O   UNL     1       2.361   6.035  19.252  0.00  0.00    +0.000 OA
ENDBRANCH  10  17
ENDBRANCH   4  15
ENDBRANCH   3   7
ENDBRANCH   2   3
ENDBRANCH   1   2
BRANCH   1  18
ATOM     18  C   UNL     1       9.343  10.808  17.917  0.00  0.00    +0.000 C 
BRANCH  18  19
ATOM     19  N   UNL     1       8.455  11.929  18.011  0.00  0.00    +0.000 N 
ATOM     20  C   UNL     1       8.885  13.224  17.851  0.00  0.00    +0.000 C 
ATOM     21  O   UNL     1      10.047  13.539  17.615  0.00  0.00    +0.000 OA
ATOM     22  H   UNL     1       7.457  11.802  18.143  0.00  0.00    +0.000 HD
BRANCH  20  23
ATOM     23  C   UNL     1       7.808  14.207  17.991  0.00  0.00    +0.000 A 
ATOM     24  C   UNL     1       6.426  13.941  17.858  0.00  0.00    +0.000 A 
ATOM     25  C   UNL     1       5.798  15.141  18.092  0.00  0.00    +0.000 A 
ATOM     26  N   UNL     1       6.798  16.045  18.308  0.00  0.00    +0.000 N 
ATOM     27  N   UNL     1       8.035  15.507  18.272  0.00  0.00    +0.000 NA
ATOM     28  H   UNL     1       6.699  17.038  18.499  0.00  0.00    +0.000 HD
BRANCH  25  29
ATOM     29  C   UNL     1       4.421  15.474  18.140  0.00  0.00    +0.000 A 
ATOM     30  C   UNL     1       3.818  16.674  17.809  0.00  0.00    +0.000 A 
ATOM     31  C   UNL     1       2.425  16.509  17.998  0.00  0.00    +0.000 A 
ATOM     32  C   UNL     1       2.256  15.220  18.442  0.00  0.00    +0.000 A 
ATOM     33  O   UNL     1       3.454  14.587  18.532  0.00  0.00    +0.000 OA
ENDBRANCH  25  29
ENDBRANCH  20  23
ENDBRANCH  18  19
ENDBRANCH   1  18
TORSDOF 9
ENDMDL
MODEL 4
REMARK VINA RESULT:      -7.2      5.986      9.747
REMARK  Name = 
REMARK  10 active torsions:
REMARK  status: ('A' for Active; 'I' for Inactive)
REMARK    1  A    between atoms: C_1  and  O_2
REMARK    2  A    between atoms: O_2  and  C_3
REMARK    3  A    between atoms: C_8  and  N_9
REMARK    4  A    between atoms: N_12  and  C_13
REMARK    5  A    between atoms: C_13  and  C_14
REMARK    6  A    between atoms: C_14  and  C_15
REMARK    7  A    between atoms: C_15  and  C_16
REMARK    8  A    between atoms: C_16  and  N_17
REMARK    9  A    between atoms: C_18  and  C_20
REMARK   10  A    between atoms: C_22  and  C_23
REMARK                            x       y       z     vdW  Elec       q    Type
REMARK                         _______ _______ _______ _____ _____    ______ ____
ROOT
ATOM      1  C   UNL     1       7.255   8.049  17.534  0.00  0.00    +0.000 C 
ENDROOT
BRANCH   1   2
ATOM      2  C   UNL     1       7.735   6.756  16.870  0.00  0.00    +0.000 C 
BRANCH   2   3
ATOM      3  C   UNL     1       6.594   5.903  16.296  0.00  0.00    +0.000 C 
BRANCH   3   7
ATOM      4  N   UNL     1       4.161   4.579  18.650  0.00  0.00    +0.000 N 
ATOM      5  C   UNL     1       5.391   5.260  19.067  0.00  0.00    +0.000 C 
ATOM      6  C   UNL     1       6.611   4.603  18.386  0.00  0.00    +0.000 C 
ATOM      7  N   UNL     1       6.532   4.564  16.900  0.00  0.00    +0.000 NA
ATOM      8  C   UNL     1       5.273   3.870  16.539  0.00  0.00    +0.000 C 
ATOM      9  C   UNL     1       3.989   4.437  17.193  0.00  0.00    +0.000 C 
BRANCH   4  15
ATOM     10  C   UNL     1       1.985   4.669  19.850  0.00  0.00    +0.000 A 
ATOM     11  C   UNL     1       1.131   4.091  20.807  0.00  0.00    +0.000 A 
ATOM     12  C   UNL     1       1.465   2.904  21.449  0.00  0.00    +0.000 A 
ATOM     13  C   UNL     1       2.662   2.279  21.144  0.00  0.00    +0.000 A 
ATOM     14  C   UNL     1       3.523   2.853  20.206  0.00  0.00    +0.000 A 
ATOM     15  C   UNL     1       3.231   4.065  19.542  0.00  0.00    +0.000 A 
BRANCH  10  17
ATOM     16  C   UNL     1       2.184   7.031  19.968  0.00  0.00    +0.000 C 
ATOM     17  O   UNL     1       1.679   5.886  19.281  0.00  0.00    +0.000 OA
ENDBRANCH  10  17
ENDBRANCH   4  15
ENDBRANCH   3   7
ENDBRANCH   2   3
ENDBRANCH   1   2
BRANCH   1  18
ATOM     18  C   UNL     1       8.262   8.552  18.562  0.00  0.00    +0.000 C 
BRANCH  18  19
ATOM     19  N   UNL     1       8.845   9.803  18.176  0.00  0.00    +0.000 N 
ATOM     20  C   UNL     1       9.356  10.691  19.091  0.00  0.00    +0.000 C 
ATOM     21  O   UNL     1       9.365  10.501  20.303  0.00  0.00    +0.000 OA
ATOM     22  H   UNL     1       8.954  10.055  17.199  0.00  0.00    +0.000 HD
BRANCH  20  23
ATOM     23  C   UNL     1       9.898  11.903  18.473  0.00  0.00    +0.000 A 
ATOM     24  C   UNL     1       9.492  13.226  18.758  0.00  0.00    +0.000 A 
ATOM     25  C   UNL     1      10.280  14.030  17.969  0.00  0.00    +0.000 A 
ATOM     26  N   UNL     1      11.065  13.180  17.245  0.00  0.00    +0.000 N 
ATOM     27  N   UNL     1      10.872  11.877  17.539  0.00  0.00    +0.000 NA
ATOM     28  H   UNL     1      11.759  13.428  16.547  0.00  0.00    +0.000 HD
BRANCH  25  29
ATOM     29  C   UNL     1      10.354  15.442  17.864  0.00  0.00    +0.000 A 
ATOM     30  C   UNL     1      10.989  16.196  16.894  0.00  0.00    +0.000 A 
ATOM     31  C   UNL     1      10.762  17.557  17.206  0.00  0.00    +0.000 A 
ATOM     32  C   UNL     1      10.007  17.558  18.354  0.00  0.00    +0.000 A 
ATOM     33  O   UNL     1       9.755  16.287  18.760  0.00  0.00    +0.000 OA
ENDBRANCH  25  29
ENDBRANCH  20  23
ENDBRANCH  18  19
ENDBRANCH   1  18
TORSDOF 9
ENDMDL
MODEL 5
REMARK VINA RESULT:      -7.2      2.105     10.310
REMARK  Name = 
REMARK  10 active torsions:
REMARK  status: ('A' for Active; 'I' for Inactive)
REMARK    1  A    between atoms: C_1  and  O_2
REMARK    2  A    between atoms: O_2  and  C_3
REMARK    3  A    between atoms: C_8  and  N_9
REMARK    4  A    between atoms: N_12  and  C_13
REMARK    5  A    between atoms: C_13  and  C_14
REMARK    6  A    between atoms: C_14  and  C_15
REMARK    7  A    between atoms: C_15  and  C_16
REMARK    8  A    between atoms: C_16  and  N_17
REMARK    9  A    between atoms: C_18  and  C_20
REMARK   10  A    between atoms: C_22  and  C_23
REMARK                            x       y       z     vdW  Elec       q    Type
REMARK                         _______ _______ _______ _____ _____    ______ ____
ROOT
ATOM      1  C   UNL     1       2.238   4.097  21.788  0.00  0.00    +0.000 C 
ENDROOT
BRANCH   1   2
ATOM      2  C   UNL     1       2.363   2.673  21.242  0.00  0.00    +0.000 C 
BRANCH   2   3
ATOM      3  C   UNL     1       1.668   2.474  19.887  0.00  0.00    +0.000 C 
BRANCH   3   7
ATOM      4  N   UNL     1       4.279   3.715  17.682  0.00  0.00    +0.000 N 
ATOM      5  C   UNL     1       2.869   3.636  17.289  0.00  0.00    +0.000 C 
ATOM      6  C   UNL     1       2.336   2.207  17.532  0.00  0.00    +0.000 C 
ATOM      7  N   UNL     1       2.500   1.726  18.932  0.00  0.00    +0.000 NA
ATOM      8  C   UNL     1       3.938   1.831  19.274  0.00  0.00    +0.000 C 
ATOM      9  C   UNL     1       4.578   3.223  19.039  0.00  0.00    +0.000 C 
BRANCH   4  15
ATOM     10  C   UNL     1       6.227   5.182  17.193  0.00  0.00    +0.000 A 
ATOM     11  C   UNL     1       7.178   5.620  16.253  0.00  0.00    +0.000 A 
ATOM     12  C   UNL     1       7.241   5.067  14.979  0.00  0.00    +0.000 A 
ATOM     13  C   UNL     1       6.350   4.069  14.625  0.00  0.00    +0.000 A 
ATOM     14  C   UNL     1       5.393   3.638  15.547  0.00  0.00    +0.000 A 
ATOM     15  C   UNL     1       5.283   4.181  16.846  0.00  0.00    +0.000 A 
BRANCH  10  17
ATOM     16  C   UNL     1       7.289   5.728  19.243  0.00  0.00    +0.000 C 
ATOM     17  O   UNL     1       6.123   5.794  18.423  0.00  0.00    +0.000 OA
ENDBRANCH  10  17
ENDBRANCH   4  15
ENDBRANCH   3   7
ENDBRANCH   2   3
ENDBRANCH   1   2
BRANCH   1  18
ATOM     18  C   UNL     1       2.310   5.129  20.669  0.00  0.00    +0.000 C 
BRANCH  18  19
ATOM     19  N   UNL     1       1.744   6.386  21.060  0.00  0.00    +0.000 N 
ATOM     20  C   UNL     1       1.797   7.499  20.257  0.00  0.00    +0.000 C 
ATOM     21  O   UNL     1       2.322   7.523  19.148  0.00  0.00    +0.000 OA
ATOM     22  H   UNL     1       1.227   6.485  21.928  0.00  0.00    +0.000 HD
BRANCH  20  23
ATOM     23  C   UNL     1       1.157   8.671  20.858  0.00  0.00    +0.000 A 
ATOM     24  C   UNL     1       0.530   9.722  20.152  0.00  0.00    +0.000 A 
ATOM     25  C   UNL     1       0.057  10.581  21.115  0.00  0.00    +0.000 A 
ATOM     26  N   UNL     1       0.442  10.044  22.309  0.00  0.00    +0.000 N 
ATOM     27  N   UNL     1       1.099   8.871  22.192  0.00  0.00    +0.000 NA
ATOM     28  H   UNL     1       0.274  10.422  23.237  0.00  0.00    +0.000 HD
BRANCH  25  29
ATOM     29  C   UNL     1      -0.694  11.779  21.003  0.00  0.00    +0.000 A 
ATOM     30  C   UNL     1      -1.539  12.168  19.980  0.00  0.00    +0.000 A 
ATOM     31  C   UNL     1      -2.074  13.428  20.335  0.00  0.00    +0.000 A 
ATOM     32  C   UNL     1      -1.520  13.743  21.552  0.00  0.00    +0.000 A 
ATOM     33  O   UNL     1      -0.685  12.754  21.964  0.00  0.00    +0.000 OA
ENDBRANCH  25  29
ENDBRANCH  20  23
ENDBRANCH  18  19
ENDBRANCH   1  18
TORSDOF 9
ENDMDL
MODEL 6
REMARK VINA RESULT:      -7.1      0.961      1.081
REMARK  Name = 
REMARK  10 active torsions:
REMARK  status: ('A' for Active; 'I' for Inactive)
REMARK    1  A    between atoms: C_1  and  O_2
REMARK    2  A    between atoms: O_2  and  C_3
REMARK    3  A    between atoms: C_8  and  N_9
REMARK    4  A    between atoms: N_12  and  C_13
REMARK    5  A    between atoms: C_13  and  C_14
REMARK    6  A    between atoms: C_14  and  C_15
REMARK    7  A    between atoms: C_15  and  C_16
REMARK    8  A    between atoms: C_16  and  N_17
REMARK    9  A    between atoms: C_18  and  C_20
REMARK   10  A    between atoms: C_22  and  C_23
REMARK                            x       y       z     vdW  Elec       q    Type
REMARK                         _______ _______ _______ _____ _____    ______ ____
ROOT
ATOM      1  C   UNL     1       1.800   5.302  19.810  0.00  0.00    +0.000 C 
ENDROOT
BRANCH   1   2
ATOM      2  C   UNL     1       1.311   6.751  19.755  0.00  0.00    +0.000 C 
BRANCH   2   3
ATOM      3  C   UNL     1       1.074   7.371  21.140  0.00  0.00    +0.000 C 
BRANCH   3   7
ATOM      4  N   UNL     1      -0.546  10.454  22.182  0.00  0.00    +0.000 N 
ATOM      5  C   UNL     1      -0.492  10.009  20.786  0.00  0.00    +0.000 C 
ATOM      6  C   UNL     1       0.969   9.712  20.385  0.00  0.00    +0.000 C 
ATOM      7  N   UNL     1       1.650   8.719  21.260  0.00  0.00    +0.000 NA
ATOM      8  C   UNL     1       1.563   9.218  22.653  0.00  0.00    +0.000 C 
ATOM      9  C   UNL     1       0.138   9.572  23.145  0.00  0.00    +0.000 C 
BRANCH   4  15
ATOM     10  C   UNL     1      -0.612  12.930  22.404  0.00  0.00    +0.000 A 
ATOM     11  C   UNL     1      -1.289  14.061  22.895  0.00  0.00    +0.000 A 
ATOM     12  C   UNL     1      -2.514  13.945  23.541  0.00  0.00    +0.000 A 
ATOM     13  C   UNL     1      -3.080  12.692  23.708  0.00  0.00    +0.000 A 
ATOM     14  C   UNL     1      -2.408  11.563  23.236  0.00  0.00    +0.000 A 
ATOM     15  C   UNL     1      -1.155  11.632  22.587  0.00  0.00    +0.000 A 
BRANCH  10  17
ATOM     16  C   UNL     1       0.659  13.498  20.482  0.00  0.00    +0.000 C 
ATOM     17  O   UNL     1       0.638  13.052  21.837  0.00  0.00    +0.000 OA
ENDBRANCH  10  17
ENDBRANCH   4  15
ENDBRANCH   3   7
ENDBRANCH   2   3
ENDBRANCH   1   2
BRANCH   1  18
ATOM     18  C   UNL     1       3.220   5.216  20.358  0.00  0.00    +0.000 C 
BRANCH  18  19
ATOM     19  N   UNL     1       4.199   5.178  19.312  0.00  0.00    +0.000 N 
ATOM     20  C   UNL     1       4.974   4.071  19.070  0.00  0.00    +0.000 C 
ATOM     21  O   UNL     1       4.904   3.027  19.712  0.00  0.00    +0.000 OA
ATOM     22  H   UNL     1       4.314   5.955  18.669  0.00  0.00    +0.000 HD
BRANCH  20  23
ATOM     23  C   UNL     1       5.906   4.256  17.956  0.00  0.00    +0.000 A 
ATOM     24  C   UNL     1       5.570   4.217  16.583  0.00  0.00    +0.000 A 
ATOM     25  C   UNL     1       6.744   4.463  15.911  0.00  0.00    +0.000 A 
ATOM     26  N   UNL     1       7.701   4.594  16.875  0.00  0.00    +0.000 N 
ATOM     27  N   UNL     1       7.223   4.491  18.133  0.00  0.00    +0.000 NA
ATOM     28  H   UNL     1       8.692   4.767  16.739  0.00  0.00    +0.000 HD
BRANCH  25  29
ATOM     29  C   UNL     1       7.010   4.591  14.524  0.00  0.00    +0.000 A 
ATOM     30  C   UNL     1       6.405   3.929  13.471  0.00  0.00    +0.000 A 
ATOM     31  C   UNL     1       6.993   4.412  12.279  0.00  0.00    +0.000 A 
ATOM     32  C   UNL     1       7.931   5.337  12.671  0.00  0.00    +0.000 A 
ATOM     33  O   UNL     1       7.949   5.452  14.024  0.00  0.00    +0.000 OA
ENDBRANCH  25  29
ENDBRANCH  20  23
ENDBRANCH  18  19
ENDBRANCH   1  18
TORSDOF 9
ENDMDL
MODEL 7
REMARK VINA RESULT:      -7.0      5.617     10.557
REMARK  Name = 
REMARK  10 active torsions:
REMARK  status: ('A' for Active; 'I' for Inactive)
REMARK    1  A    between atoms: C_1  and  O_2
REMARK    2  A    between atoms: O_2  and  C_3
REMARK    3  A    between atoms: C_8  and  N_9
REMARK    4  A    between atoms: N_12  and  C_13
REMARK    5  A    between atoms: C_13  and  C_14
REMARK    6  A    between atoms: C_14  and  C_15
REMARK    7  A    between atoms: C_15  and  C_16
REMARK    8  A    between atoms: C_16  and  N_17
REMARK    9  A    between atoms: C_18  and  C_20
REMARK   10  A    between atoms: C_22  and  C_23
REMARK                            x       y       z     vdW  Elec       q    Type
REMARK                         _______ _______ _______ _____ _____    ______ ____
ROOT
ATOM      1  C   UNL     1       8.310   9.965  18.041  0.00  0.00    +0.000 C 
ENDROOT
BRANCH   1   2
ATOM      2  C   UNL     1       8.214   8.483  17.669  0.00  0.00    +0.000 C 
BRANCH   2   3
ATOM      3  C   UNL     1       6.829   7.874  17.935  0.00  0.00    +0.000 C 
BRANCH   3   7
ATOM      4  N   UNL     1       4.295   5.312  18.416  0.00  0.00    +0.000 N 
ATOM      5  C   UNL     1       5.623   5.252  19.035  0.00  0.00    +0.000 C 
ATOM      6  C   UNL     1       6.714   5.415  17.953  0.00  0.00    +0.000 C 
ATOM      7  N   UNL     1       6.587   6.658  17.144  0.00  0.00    +0.000 NA
ATOM      8  C   UNL     1       5.230   6.665  16.548  0.00  0.00    +0.000 C 
ATOM      9  C   UNL     1       4.062   6.481  17.549  0.00  0.00    +0.000 C 
BRANCH   4  15
ATOM     10  C   UNL     1       2.415   4.281  19.677  0.00  0.00    +0.000 A 
ATOM     11  C   UNL     1       1.498   3.220  19.785  0.00  0.00    +0.000 A 
ATOM     12  C   UNL     1       1.435   2.219  18.823  0.00  0.00    +0.000 A 
ATOM     13  C   UNL     1       2.292   2.265  17.737  0.00  0.00    +0.000 A 
ATOM     14  C   UNL     1       3.215   3.307  17.628  0.00  0.00    +0.000 A 
ATOM     15  C   UNL     1       3.325   4.336  18.589  0.00  0.00    +0.000 A 
BRANCH  10  17
ATOM     16  C   UNL     1       1.603   6.310  20.601  0.00  0.00    +0.000 C 
ATOM     17  O   UNL     1       2.522   5.222  20.678  0.00  0.00    +0.000 OA
ENDBRANCH  10  17
ENDBRANCH   4  15
ENDBRANCH   3   7
ENDBRANCH   2   3
ENDBRANCH   1   2
BRANCH   1  18
ATOM     18  C   UNL     1       9.562  10.251  18.861  0.00  0.00    +0.000 C 
BRANCH  18  19
ATOM     19  N   UNL     1       9.248  10.803  20.146  0.00  0.00    +0.000 N 
ATOM     20  C   UNL     1       9.229  12.155  20.382  0.00  0.00    +0.000 C 
ATOM     21  O   UNL     1       9.473  13.006  19.531  0.00  0.00    +0.000 OA
ATOM     22  H   UNL     1       8.970  10.209  20.921  0.00  0.00    +0.000 HD
BRANCH  20  23
ATOM     23  C   UNL     1       8.886  12.492  21.765  0.00  0.00    +0.000 A 
ATOM     24  C   UNL     1       8.110  11.698  22.639  0.00  0.00    +0.000 A 
ATOM     25  C   UNL     1       8.068  12.390  23.825  0.00  0.00    +0.000 A 
ATOM     26  N   UNL     1       8.764  13.544  23.603  0.00  0.00    +0.000 N 
ATOM     27  N   UNL     1       9.291  13.631  22.364  0.00  0.00    +0.000 NA
ATOM     28  H   UNL     1       8.925  14.301  24.260  0.00  0.00    +0.000 HD
BRANCH  25  29
ATOM     29  C   UNL     1       7.477  12.063  25.072  0.00  0.00    +0.000 A 
ATOM     30  C   UNL     1       7.650  12.690  26.293  0.00  0.00    +0.000 A 
ATOM     31  C   UNL     1       6.832  12.015  27.229  0.00  0.00    +0.000 A 
ATOM     32  C   UNL     1       6.212  11.008  26.530  0.00  0.00    +0.000 A 
ATOM     33  O   UNL     1       6.594  11.028  25.227  0.00  0.00    +0.000 OA
ENDBRANCH  25  29
ENDBRANCH  20  23
ENDBRANCH  18  19
ENDBRANCH   1  18
TORSDOF 9
ENDMDL
MODEL 8
REMARK VINA RESULT:      -7.0      5.646     10.374
REMARK  Name = 
REMARK  10 active torsions:
REMARK  status: ('A' for Active; 'I' for Inactive)
REMARK    1  A    between atoms: C_1  and  O_2
REMARK    2  A    between atoms: O_2  and  C_3
REMARK    3  A    between atoms: C_8  and  N_9
REMARK    4  A    between atoms: N_12  and  C_13
REMARK    5  A    between atoms: C_13  and  C_14
REMARK    6  A    between atoms: C_14  and  C_15
REMARK    7  A    between atoms: C_15  and  C_16
REMARK    8  A    between atoms: C_16  and  N_17
REMARK    9  A    between atoms: C_18  and  C_20
REMARK   10  A    between atoms: C_22  and  C_23
REMARK                            x       y       z     vdW  Elec       q    Type
REMARK                         _______ _______ _______ _____ _____    ______ ____
ROOT
ATOM      1  C   UNL     1       7.423   8.407  17.820  0.00  0.00    +0.000 C 
ENDROOT
BRANCH   1   2
ATOM      2  C   UNL     1       7.827   6.949  17.589  0.00  0.00    +0.000 C 
BRANCH   2   3
ATOM      3  C   UNL     1       6.871   6.190  16.657  0.00  0.00    +0.000 C 
BRANCH   3   7
ATOM      4  N   UNL     1       4.200   4.720  18.638  0.00  0.00    +0.000 N 
ATOM      5  C   UNL     1       5.434   5.253  19.225  0.00  0.00    +0.000 C 
ATOM      6  C   UNL     1       6.660   4.615  18.537  0.00  0.00    +0.000 C 
ATOM      7  N   UNL     1       6.687   4.787  17.058  0.00  0.00    +0.000 NA
ATOM      8  C   UNL     1       5.420   4.236  16.522  0.00  0.00    +0.000 C 
ATOM      9  C   UNL     1       4.126   4.793  17.167  0.00  0.00    +0.000 C 
BRANCH   4  15
ATOM     10  C   UNL     1       3.194   2.831  19.904  0.00  0.00    +0.000 A 
ATOM     11  C   UNL     1       2.085   2.332  20.611  0.00  0.00    +0.000 A 
ATOM     12  C   UNL     1       0.965   3.120  20.847  0.00  0.00    +0.000 A 
ATOM     13  C   UNL     1       0.937   4.422  20.376  0.00  0.00    +0.000 A 
ATOM     14  C   UNL     1       2.028   4.922  19.662  0.00  0.00    +0.000 A 
ATOM     15  C   UNL     1       3.179   4.152  19.385  0.00  0.00    +0.000 A 
BRANCH  10  17
ATOM     16  C   UNL     1       5.020   1.560  20.729  0.00  0.00    +0.000 C 
ATOM     17  O   UNL     1       4.263   2.014  19.608  0.00  0.00    +0.000 OA
ENDBRANCH  10  17
ENDBRANCH   4  15
ENDBRANCH   3   7
ENDBRANCH   2   3
ENDBRANCH   1   2
BRANCH   1  18
ATOM     18  C   UNL     1       8.620   9.342  17.688  0.00  0.00    +0.000 C 
BRANCH  18  19
ATOM     19  N   UNL     1       8.728  10.237  18.802  0.00  0.00    +0.000 N 
ATOM     20  C   UNL     1       9.758  11.137  18.926  0.00  0.00    +0.000 C 
ATOM     21  O   UNL     1      10.666  11.260  18.110  0.00  0.00    +0.000 OA
ATOM     22  H   UNL     1       8.010  10.278  19.518  0.00  0.00    +0.000 HD
BRANCH  20  23
ATOM     23  C   UNL     1       9.669  11.947  20.142  0.00  0.00    +0.000 A 
ATOM     24  C   UNL     1       8.889  11.642  21.281  0.00  0.00    +0.000 A 
ATOM     25  C   UNL     1       9.130  12.659  22.174  0.00  0.00    +0.000 A 
ATOM     26  N   UNL     1       9.982  13.515  21.537  0.00  0.00    +0.000 N 
ATOM     27  N   UNL     1      10.345  13.103  20.304  0.00  0.00    +0.000 NA
ATOM     28  H   UNL     1      10.361  14.386  21.896  0.00  0.00    +0.000 HD
BRANCH  25  29
ATOM     29  C   UNL     1       8.664  12.863  23.497  0.00  0.00    +0.000 A 
ATOM     30  C   UNL     1       8.266  14.047  24.092  0.00  0.00    +0.000 A 
ATOM     31  C   UNL     1       7.861  13.737  25.411  0.00  0.00    +0.000 A 
ATOM     32  C   UNL     1       8.042  12.383  25.552  0.00  0.00    +0.000 A 
ATOM     33  O   UNL     1       8.526  11.845  24.402  0.00  0.00    +0.000 OA
ENDBRANCH  25  29
ENDBRANCH  20  23
ENDBRANCH  18  19
ENDBRANCH   1  18
TORSDOF 9
ENDMDL
MODEL 9
REMARK VINA RESULT:      -7.0      2.442      2.863
REMARK  Name = 
REMARK  10 active torsions:
REMARK  status: ('A' for Active; 'I' for Inactive)
REMARK    1  A    between atoms: C_1  and  O_2
REMARK    2  A    between atoms: O_2  and  C_3
REMARK    3  A    between atoms: C_8  and  N_9
REMARK    4  A    between atoms: N_12  and  C_13
REMARK    5  A    between atoms: C_13  and  C_14
REMARK    6  A    between atoms: C_14  and  C_15
REMARK    7  A    between atoms: C_15  and  C_16
REMARK    8  A    between atoms: C_16  and  N_17
REMARK    9  A    between atoms: C_18  and  C_20
REMARK   10  A    between atoms: C_22  and  C_23
REMARK                            x       y       z     vdW  Elec       q    Type
REMARK                         _______ _______ _______ _____ _____    ______ ____
ROOT
ATOM      1  C   UNL     1       2.679   4.046  20.019  0.00  0.00    +0.000 C 
ENDROOT
BRANCH   1   2
ATOM      2  C   UNL     1       2.284   4.854  18.780  0.00  0.00    +0.000 C 
BRANCH   2   3
ATOM      3  C   UNL     1       1.525   6.148  19.110  0.00  0.00    +0.000 C 
BRANCH   3   7
ATOM      4  N   UNL     1       0.818   9.713  19.044  0.00  0.00    +0.000 N 
ATOM      5  C   UNL     1       1.306   8.971  17.877  0.00  0.00    +0.000 C 
ATOM      6  C   UNL     1       2.588   8.194  18.249  0.00  0.00    +0.000 C 
ATOM      7  N   UNL     1       2.427   7.271  19.405  0.00  0.00    +0.000 NA
ATOM      8  C   UNL     1       1.930   8.072  20.549  0.00  0.00    +0.000 C 
ATOM      9  C   UNL     1       0.659   8.913  20.271  0.00  0.00    +0.000 C 
BRANCH   4  15
ATOM     10  C   UNL     1      -0.577  11.673  18.412  0.00  0.00    +0.000 A 
ATOM     11  C   UNL     1      -0.731  13.071  18.412  0.00  0.00    +0.000 A 
ATOM     12  C   UNL     1       0.193  13.899  19.039  0.00  0.00    +0.000 A 
ATOM     13  C   UNL     1       1.289  13.338  19.674  0.00  0.00    +0.000 A 
ATOM     14  C   UNL     1       1.457  11.952  19.667  0.00  0.00    +0.000 A 
ATOM     15  C   UNL     1       0.552  11.075  19.029  0.00  0.00    +0.000 A 
BRANCH  10  17
ATOM     16  C   UNL     1      -2.785  11.378  17.593  0.00  0.00    +0.000 C 
ATOM     17  O   UNL     1      -1.457  10.871  17.718  0.00  0.00    +0.000 OA
ENDBRANCH  10  17
ENDBRANCH   4  15
ENDBRANCH   3   7
ENDBRANCH   2   3
ENDBRANCH   1   2
BRANCH   1  18
ATOM     18  C   UNL     1       4.189   3.859  20.101  0.00  0.00    +0.000 C 
BRANCH  18  19
ATOM     19  N   UNL     1       4.838   4.175  18.863  0.00  0.00    +0.000 N 
ATOM     20  C   UNL     1       6.029   4.856  18.809  0.00  0.00    +0.000 C 
ATOM     21  O   UNL     1       6.642   5.251  19.796  0.00  0.00    +0.000 OA
ATOM     22  H   UNL     1       4.466   3.854  17.975  0.00  0.00    +0.000 HD
BRANCH  20  23
ATOM     23  C   UNL     1       6.506   5.071  17.441  0.00  0.00    +0.000 A 
ATOM     24  C   UNL     1       6.210   4.253  16.326  0.00  0.00    +0.000 A 
ATOM     25  C   UNL     1       6.844   4.844  15.259  0.00  0.00    +0.000 A 
ATOM     26  N   UNL     1       7.498   5.927  15.772  0.00  0.00    +0.000 N 
ATOM     27  N   UNL     1       7.300   6.105  17.095  0.00  0.00    +0.000 NA
ATOM     28  H   UNL     1       8.083   6.587  15.269  0.00  0.00    +0.000 HD
BRANCH  25  29
ATOM     29  C   UNL     1       6.866   4.498  13.884  0.00  0.00    +0.000 A 
ATOM     30  C   UNL     1       7.675   5.008  12.885  0.00  0.00    +0.000 A 
ATOM     31  C   UNL     1       7.340   4.332  11.689  0.00  0.00    +0.000 A 
ATOM     32  C   UNL     1       6.339   3.451  12.022  0.00  0.00    +0.000 A 
ATOM     33  O   UNL     1       6.045   3.543  13.345  0.00  0.00    +0.000 OA
ENDBRANCH  25  29
ENDBRANCH  20  23
ENDBRANCH  18  19
ENDBRANCH   1  18
TORSDOF 9
ENDMDL
