MODEL 1
REMARK VINA RESULT:      -7.8      0.000      0.000
REMARK  Name = 
REMARK  3 active torsions:
REMARK  status: ('A' for Active; 'I' for Inactive)
REMARK    1  A    between atoms: C_1  and  N_2
REMARK    2  A    between atoms: N_5  and  C_6
REMARK    3  A    between atoms: C_8  and  C_9
REMARK                            x       y       z     vdW  Elec       q    Type
REMARK                         _______ _______ _______ _____ _____    ______ ____
ROOT
ATOM      1  C   UNL     1      -1.159  11.857  19.795  0.00  0.00    +0.000 C 
ATOM      2  C   UNL     1      -1.725  12.997  20.687  0.00  0.00    +0.000 C 
ATOM      3  C   UNL     1      -1.781  12.524  22.163  0.00  0.00    +0.000 C 
ATOM      4  C   UNL     1      -1.047  11.212  22.122  0.00  0.00    +0.000 A 
ATOM      5  C   UNL     1      -0.750  10.382  23.195  0.00  0.00    +0.000 A 
ATOM      6  C   UNL     1      -0.019   9.216  22.958  0.00  0.00    +0.000 A 
ATOM      7  C   UNL     1       0.425   8.911  21.663  0.00  0.00    +0.000 A 
ATOM      8 CL   UNL     1       1.340   7.476  21.400  0.00  0.00    +0.000 Cl
ATOM      9  C   UNL     1       0.126   9.745  20.586  0.00  0.00    +0.000 A 
ATOM     10  C   UNL     1      -0.630  10.887  20.826  0.00  0.00    +0.000 A 
ENDROOT
BRANCH   1  15
ATOM     11  C   UNL     1      -4.249  10.542  15.098  0.00  0.00    +0.000 C 
ATOM     12  N   UNL     1      -3.467  11.080  16.207  0.00  0.00    +0.000 NA
ATOM     13  C   UNL     1      -2.323  10.199  16.521  0.00  0.00    +0.000 C 
ATOM     14  C   UNL     1      -1.375  10.797  17.591  0.00  0.00    +0.000 C 
ATOM     15  N   UNL     1      -2.070  11.218  18.822  0.00  0.00    +0.000 NA
ATOM     16  C   UNL     1      -3.229  12.054  18.457  0.00  0.00    +0.000 C 
ATOM     17  C   UNL     1      -4.231  11.401  17.441  0.00  0.00    +0.000 C 
ATOM     18  C   UNL     1      -5.370  12.439  17.206  0.00  0.00    +0.000 C 
ATOM     19  C   UNL     1      -6.672  11.720  17.529  0.00  0.00    +0.000 C 
ATOM     20  C   UNL     1      -6.274  10.724  18.604  0.00  0.00    +0.000 C 
ATOM     21  C   UNL     1      -4.947  10.182  18.093  0.00  0.00    +0.000 C 
ENDBRANCH   1  15
BRANCH   3  22
ATOM     22  C   UNL     1      -3.193  12.538  22.717  0.00  0.00    +0.000 A 
ATOM     23  C   UNL     1      -4.327  12.771  21.923  0.00  0.00    +0.000 A 
ATOM     24  C   UNL     1      -5.590  12.915  22.502  0.00  0.00    +0.000 A 
ATOM     25  C   UNL     1      -5.732  12.789  23.877  0.00  0.00    +0.000 A 
ATOM     26  F   UNL     1      -6.941  12.940  24.433  0.00  0.00    +0.000 F 
ATOM     27  C   UNL     1      -4.637  12.512  24.683  0.00  0.00    +0.000 A 
ATOM     28  C   UNL     1      -3.371  12.394  24.107  0.00  0.00    +0.000 A 
ENDBRANCH   3  22
TORSDOF 2
ENDMDL
MODEL 2
REMARK VINA RESULT:      -7.2      3.575      6.155
REMARK  Name = 
REMARK  3 active torsions:
REMARK  status: ('A' for Active; 'I' for Inactive)
REMARK    1  A    between atoms: C_1  and  N_2
REMARK    2  A    between atoms: N_5  and  C_6
REMARK    3  A    between atoms: C_8  and  C_9
REMARK                            x       y       z     vdW  Elec       q    Type
REMARK                         _______ _______ _______ _____ _____    ______ ____
ROOT
ATOM      1  C   UNL     1      -2.134  13.297  22.008  0.00  0.00    +0.000 C 
ATOM      2  C   UNL     1      -1.589  11.953  21.448  0.00  0.00    +0.000 C 
ATOM      3  C   UNL     1      -0.925  12.195  20.067  0.00  0.00    +0.000 C 
ATOM      4  C   UNL     1      -0.906  13.694  19.964  0.00  0.00    +0.000 A 
ATOM      5  C   UNL     1      -0.360  14.459  18.941  0.00  0.00    +0.000 A 
ATOM      6  C   UNL     1      -0.407  15.851  19.046  0.00  0.00    +0.000 A 
ATOM      7  C   UNL     1      -0.971  16.456  20.178  0.00  0.00    +0.000 A 
ATOM      8 CL   UNL     1      -1.001  18.174  20.292  0.00  0.00    +0.000 Cl
ATOM      9  C   UNL     1      -1.520  15.687  21.205  0.00  0.00    +0.000 A 
ATOM     10  C   UNL     1      -1.498  14.303  21.077  0.00  0.00    +0.000 A 
ENDROOT
BRANCH   1  15
ATOM     11  C   UNL     1      -7.757  12.527  23.067  0.00  0.00    +0.000 C 
ATOM     12  N   UNL     1      -6.322  12.502  22.801  0.00  0.00    +0.000 NA
ATOM     13  C   UNL     1      -5.613  13.485  23.645  0.00  0.00    +0.000 C 
ATOM     14  C   UNL     1      -4.072  13.397  23.511  0.00  0.00    +0.000 C 
ATOM     15  N   UNL     1      -3.598  13.462  22.116  0.00  0.00    +0.000 NA
ATOM     16  C   UNL     1      -4.367  12.500  21.304  0.00  0.00    +0.000 C 
ATOM     17  C   UNL     1      -5.926  12.657  21.376  0.00  0.00    +0.000 C 
ATOM     18  C   UNL     1      -6.530  11.561  20.448  0.00  0.00    +0.000 C 
ATOM     19  C   UNL     1      -7.430  12.291  19.460  0.00  0.00    +0.000 C 
ATOM     20  C   UNL     1      -6.762  13.645  19.300  0.00  0.00    +0.000 C 
ATOM     21  C   UNL     1      -6.365  14.001  20.726  0.00  0.00    +0.000 C 
ENDBRANCH   1  15
BRANCH   3  22
ATOM     22  C   UNL     1      -1.600  11.408  18.960  0.00  0.00    +0.000 A 
ATOM     23  C   UNL     1      -0.973  10.358  18.271  0.00  0.00    +0.000 A 
ATOM     24  C   UNL     1      -1.584   9.759  17.167  0.00  0.00    +0.000 A 
ATOM     25  C   UNL     1      -2.845  10.182  16.769  0.00  0.00    +0.000 A 
ATOM     26  F   UNL     1      -3.425   9.616  15.703  0.00  0.00    +0.000 F 
ATOM     27  C   UNL     1      -3.511  11.185  17.459  0.00  0.00    +0.000 A 
ATOM     28  C   UNL     1      -2.888  11.800  18.547  0.00  0.00    +0.000 A 
ENDBRANCH   3  22
TORSDOF 2
ENDMDL
MODEL 3
REMARK VINA RESULT:      -7.1      3.612      5.994
REMARK  Name = 
REMARK  3 active torsions:
REMARK  status: ('A' for Active; 'I' for Inactive)
REMARK    1  A    between atoms: C_1  and  N_2
REMARK    2  A    between atoms: N_5  and  C_6
REMARK    3  A    between atoms: C_8  and  C_9
REMARK                            x       y       z     vdW  Elec       q    Type
REMARK                         _______ _______ _______ _____ _____    ______ ____
ROOT
ATOM      1  C   UNL     1      -2.132  12.682  23.649  0.00  0.00    +0.000 C 
ATOM      2  C   UNL     1      -1.518  11.473  22.887  0.00  0.00    +0.000 C 
ATOM      3  C   UNL     1      -0.457  11.980  21.876  0.00  0.00    +0.000 C 
ATOM      4  C   UNL     1      -0.326  13.435  22.230  0.00  0.00    +0.000 A 
ATOM      5  C   UNL     1       0.543  14.361  21.668  0.00  0.00    +0.000 A 
ATOM      6  C   UNL     1       0.543  15.667  22.164  0.00  0.00    +0.000 A 
ATOM      7  C   UNL     1      -0.302  16.021  23.225  0.00  0.00    +0.000 A 
ATOM      8 CL   UNL     1      -0.270  17.633  23.830  0.00  0.00    +0.000 Cl
ATOM      9  C   UNL     1      -1.175  15.090  23.789  0.00  0.00    +0.000 A 
ATOM     10  C   UNL     1      -1.192  13.801  23.268  0.00  0.00    +0.000 A 
ENDROOT
BRANCH   1  15
ATOM     11  C   UNL     1      -7.827  12.435  22.727  0.00  0.00    +0.000 C 
ATOM     12  N   UNL     1      -6.382  12.291  22.883  0.00  0.00    +0.000 NA
ATOM     13  C   UNL     1      -5.941  12.804  24.196  0.00  0.00    +0.000 C 
ATOM     14  C   UNL     1      -4.440  12.541  24.475  0.00  0.00    +0.000 C 
ATOM     15  N   UNL     1      -3.550  13.014  23.398  0.00  0.00    +0.000 NA
ATOM     16  C   UNL     1      -4.057  12.518  22.104  0.00  0.00    +0.000 C 
ATOM     17  C   UNL     1      -5.554  12.869  21.793  0.00  0.00    +0.000 C 
ATOM     18  C   UNL     1      -5.872  12.265  20.392  0.00  0.00    +0.000 C 
ATOM     19  C   UNL     1      -6.391  13.417  19.542  0.00  0.00    +0.000 C 
ATOM     20  C   UNL     1      -5.660  14.628  20.095  0.00  0.00    +0.000 C 
ATOM     21  C   UNL     1      -5.720  14.405  21.599  0.00  0.00    +0.000 C 
ENDBRANCH   1  15
BRANCH   3  22
ATOM     22  C   UNL     1      -0.810  11.619  20.446  0.00  0.00    +0.000 A 
ATOM     23  C   UNL     1      -1.842  12.243  19.728  0.00  0.00    +0.000 A 
ATOM     24  C   UNL     1      -2.219  11.778  18.466  0.00  0.00    +0.000 A 
ATOM     25  C   UNL     1      -1.541  10.709  17.898  0.00  0.00    +0.000 A 
ATOM     26  F   UNL     1      -1.912  10.256  16.694  0.00  0.00    +0.000 F 
ATOM     27  C   UNL     1      -0.486  10.101  18.563  0.00  0.00    +0.000 A 
ATOM     28  C   UNL     1      -0.126  10.550  19.835  0.00  0.00    +0.000 A 
ENDBRANCH   3  22
TORSDOF 2
ENDMDL
MODEL 4
REMARK VINA RESULT:      -7.1      3.309      6.283
REMARK  Name = 
REMARK  3 active torsions:
REMARK  status: ('A' for Active; 'I' for Inactive)
REMARK    1  A    between atoms: C_1  and  N_2
REMARK    2  A    between atoms: N_5  and  C_6
REMARK    3  A    between atoms: C_8  and  C_9
REMARK                            x       y       z     vdW  Elec       q    Type
REMARK                         _______ _______ _______ _____ _____    ______ ____
ROOT
ATOM      1  C   UNL     1      -0.094  11.940  21.741  0.00  0.00    +0.000 C 
ATOM      2  C   UNL     1      -0.603  10.650  21.037  0.00  0.00    +0.000 C 
ATOM      3  C   UNL     1      -0.171  10.665  19.548  0.00  0.00    +0.000 C 
ATOM      4  C   UNL     1       0.758  11.844  19.480  0.00  0.00    +0.000 A 
ATOM      5  C   UNL     1       1.483  12.281  18.379  0.00  0.00    +0.000 A 
ATOM      6  C   UNL     1       2.330  13.382  18.527  0.00  0.00    +0.000 A 
ATOM      7  C   UNL     1       2.459  14.012  19.773  0.00  0.00    +0.000 A 
ATOM      8 CL   UNL     1       3.523  15.356  19.934  0.00  0.00    +0.000 Cl
ATOM      9  C   UNL     1       1.730  13.573  20.879  0.00  0.00    +0.000 A 
ATOM     10  C   UNL     1       0.866  12.497  20.714  0.00  0.00    +0.000 A 
ENDROOT
BRANCH   1  15
ATOM     11  C   UNL     1      -3.392  15.493  24.876  0.00  0.00    +0.000 C 
ATOM     12  N   UNL     1      -2.531  14.482  24.270  0.00  0.00    +0.000 NA
ATOM     13  C   UNL     1      -1.513  15.109  23.402  0.00  0.00    +0.000 C 
ATOM     14  C   UNL     1      -0.479  14.095  22.851  0.00  0.00    +0.000 C 
ATOM     15  N   UNL     1      -1.094  12.931  22.186  0.00  0.00    +0.000 NA
ATOM     16  C   UNL     1      -2.135  12.369  23.069  0.00  0.00    +0.000 C 
ATOM     17  C   UNL     1      -3.229  13.387  23.547  0.00  0.00    +0.000 C 
ATOM     18  C   UNL     1      -4.219  12.589  24.447  0.00  0.00    +0.000 C 
ATOM     19  C   UNL     1      -5.603  12.804  23.849  0.00  0.00    +0.000 C 
ATOM     20  C   UNL     1      -5.330  12.969  22.365  0.00  0.00    +0.000 C 
ATOM     21  C   UNL     1      -4.094  13.857  22.341  0.00  0.00    +0.000 C 
ENDBRANCH   1  15
BRANCH   3  22
ATOM     22  C   UNL     1      -1.360  10.633  18.606  0.00  0.00    +0.000 A 
ATOM     23  C   UNL     1      -1.396   9.850  17.441  0.00  0.00    +0.000 A 
ATOM     24  C   UNL     1      -2.453   9.963  16.535  0.00  0.00    +0.000 A 
ATOM     25  C   UNL     1      -3.500  10.833  16.807  0.00  0.00    +0.000 A 
ATOM     26  F   UNL     1      -4.506  10.950  15.931  0.00  0.00    +0.000 F 
ATOM     27  C   UNL     1      -3.514  11.586  17.973  0.00  0.00    +0.000 A 
ATOM     28  C   UNL     1      -2.446  11.491  18.866  0.00  0.00    +0.000 A 
ENDBRANCH   3  22
TORSDOF 2
ENDMDL
MODEL 5
REMARK VINA RESULT:      -6.9      3.265      5.981
REMARK  Name = 
REMARK  3 active torsions:
REMARK  status: ('A' for Active; 'I' for Inactive)
REMARK    1  A    between atoms: C_1  and  N_2
REMARK    2  A    between atoms: N_5  and  C_6
REMARK    3  A    between atoms: C_8  and  C_9
REMARK                            x       y       z     vdW  Elec       q    Type
REMARK                         _______ _______ _______ _____ _____    ______ ____
ROOT
ATOM      1  C   UNL     1      -0.468  11.957  21.717  0.00  0.00    +0.000 C 
ATOM      2  C   UNL     1      -0.624  10.695  20.823  0.00  0.00    +0.000 C 
ATOM      3  C   UNL     1      -0.240  11.042  19.361  0.00  0.00    +0.000 C 
ATOM      4  C   UNL     1       0.334  12.425  19.485  0.00  0.00    +0.000 A 
ATOM      5  C   UNL     1       0.893  13.196  18.474  0.00  0.00    +0.000 A 
ATOM      6  C   UNL     1       1.413  14.452  18.799  0.00  0.00    +0.000 A 
ATOM      7  C   UNL     1       1.392  14.905  20.125  0.00  0.00    +0.000 A 
ATOM      8 CL   UNL     1       2.055  16.448  20.503  0.00  0.00    +0.000 Cl
ATOM      9  C   UNL     1       0.829  14.130  21.140  0.00  0.00    +0.000 A 
ATOM     10  C   UNL     1       0.285  12.896  20.803  0.00  0.00    +0.000 A 
ENDROOT
BRANCH   1  15
ATOM     11  C   UNL     1      -5.875  12.986  23.462  0.00  0.00    +0.000 C 
ATOM     12  N   UNL     1      -4.598  12.583  22.880  0.00  0.00    +0.000 NA
ATOM     13  C   UNL     1      -3.592  12.341  23.934  0.00  0.00    +0.000 C 
ATOM     14  C   UNL     1      -2.263  11.768  23.382  0.00  0.00    +0.000 C 
ATOM     15  N   UNL     1      -1.691  12.565  22.280  0.00  0.00    +0.000 NA
ATOM     16  C   UNL     1      -2.743  12.821  21.278  0.00  0.00    +0.000 C 
ATOM     17  C   UNL     1      -4.051  13.487  21.834  0.00  0.00    +0.000 C 
ATOM     18  C   UNL     1      -5.009  13.674  20.620  0.00  0.00    +0.000 C 
ATOM     19  C   UNL     1      -5.375  15.152  20.593  0.00  0.00    +0.000 C 
ATOM     20  C   UNL     1      -4.143  15.836  21.158  0.00  0.00    +0.000 C 
ATOM     21  C   UNL     1      -3.756  14.935  22.322  0.00  0.00    +0.000 C 
ENDBRANCH   1  15
BRANCH   3  22
ATOM     22  C   UNL     1      -1.393  10.827  18.399  0.00  0.00    +0.000 A 
ATOM     23  C   UNL     1      -1.366   9.876  17.367  0.00  0.00    +0.000 A 
ATOM     24  C   UNL     1      -2.394   9.815  16.423  0.00  0.00    +0.000 A 
ATOM     25  C   UNL     1      -3.474  10.680  16.527  0.00  0.00    +0.000 A 
ATOM     26  F   UNL     1      -4.452  10.629  15.614  0.00  0.00    +0.000 F 
ATOM     27  C   UNL     1      -3.551  11.599  17.564  0.00  0.00    +0.000 A 
ATOM     28  C   UNL     1      -2.512  11.678  18.493  0.00  0.00    +0.000 A 
ENDBRANCH   3  22
TORSDOF 2
ENDMDL
MODEL 6
REMARK VINA RESULT:      -6.8      3.372      6.085
REMARK  Name = 
REMARK  3 active torsions:
REMARK  status: ('A' for Active; 'I' for Inactive)
REMARK    1  A    between atoms: C_1  and  N_2
REMARK    2  A    between atoms: N_5  and  C_6
REMARK    3  A    between atoms: C_8  and  C_9
REMARK                            x       y       z     vdW  Elec       q    Type
REMARK                         _______ _______ _______ _____ _____    ______ ____
ROOT
ATOM      1  C   UNL     1      -0.416  12.309  21.776  0.00  0.00    +0.000 C 
ATOM      2  C   UNL     1      -0.877  11.005  21.067  0.00  0.00    +0.000 C 
ATOM      3  C   UNL     1      -0.301  10.964  19.628  0.00  0.00    +0.000 C 
ATOM      4  C   UNL     1       0.651  12.127  19.614  0.00  0.00    +0.000 A 
ATOM      5  C   UNL     1       1.487  12.516  18.576  0.00  0.00    +0.000 A 
ATOM      6  C   UNL     1       2.334  13.610  18.772  0.00  0.00    +0.000 A 
ATOM      7  C   UNL     1       2.352  14.278  20.004  0.00  0.00    +0.000 A 
ATOM      8 CL   UNL     1       3.418  15.612  20.226  0.00  0.00    +0.000 Cl
ATOM      9  C   UNL     1       1.511  13.887  21.046  0.00  0.00    +0.000 A 
ATOM     10  C   UNL     1       0.649  12.818  20.832  0.00  0.00    +0.000 A 
ENDROOT
BRANCH   1  15
ATOM     11  C   UNL     1      -4.601  15.409  24.268  0.00  0.00    +0.000 C 
ATOM     12  N   UNL     1      -3.621  14.456  23.756  0.00  0.00    +0.000 NA
ATOM     13  C   UNL     1      -2.266  15.047  23.751  0.00  0.00    +0.000 C 
ATOM     14  C   UNL     1      -1.165  14.031  23.358  0.00  0.00    +0.000 C 
ATOM     15  N   UNL     1      -1.438  13.329  22.090  0.00  0.00    +0.000 NA
ATOM     16  C   UNL     1      -2.815  12.799  22.122  0.00  0.00    +0.000 C 
ATOM     17  C   UNL     1      -3.932  13.857  22.432  0.00  0.00    +0.000 C 
ATOM     18  C   UNL     1      -5.290  13.093  22.407  0.00  0.00    +0.000 C 
ATOM     19  C   UNL     1      -6.170  13.826  21.403  0.00  0.00    +0.000 C 
ATOM     20  C   UNL     1      -5.179  14.374  20.392  0.00  0.00    +0.000 C 
ATOM     21  C   UNL     1      -4.043  14.883  21.267  0.00  0.00    +0.000 C 
ENDBRANCH   1  15
BRANCH   3  22
ATOM     22  C   UNL     1      -1.393  10.917  18.575  0.00  0.00    +0.000 A 
ATOM     23  C   UNL     1      -2.566  11.684  18.651  0.00  0.00    +0.000 A 
ATOM     24  C   UNL     1      -3.602  11.501  17.732  0.00  0.00    +0.000 A 
ATOM     25  C   UNL     1      -3.455  10.576  16.708  0.00  0.00    +0.000 A 
ATOM     26  F   UNL     1      -4.454  10.392  15.836  0.00  0.00    +0.000 F 
ATOM     27  C   UNL     1      -2.288   9.836  16.580  0.00  0.00    +0.000 A 
ATOM     28  C   UNL     1      -1.263  10.001  17.513  0.00  0.00    +0.000 A 
ENDBRANCH   3  22
TORSDOF 2
ENDMDL
MODEL 7
REMARK VINA RESULT:      -6.7      3.739      5.978
REMARK  Name = 
REMARK  3 active torsions:
REMARK  status: ('A' for Active; 'I' for Inactive)
REMARK    1  A    between atoms: C_1  and  N_2
REMARK    2  A    between atoms: N_5  and  C_6
REMARK    3  A    between atoms: C_8  and  C_9
REMARK                            x       y       z     vdW  Elec       q    Type
REMARK                         _______ _______ _______ _____ _____    ______ ____
ROOT
ATOM      1  C   UNL     1      -1.401  12.873  20.685  0.00  0.00    +0.000 C 
ATOM      2  C   UNL     1      -0.674  11.652  21.315  0.00  0.00    +0.000 C 
ATOM      3  C   UNL     1       0.789  11.596  20.803  0.00  0.00    +0.000 C 
ATOM      4  C   UNL     1       0.936  12.900  20.069  0.00  0.00    +0.000 A 
ATOM      5  C   UNL     1       2.081  13.395  19.458  0.00  0.00    +0.000 A 
ATOM      6  C   UNL     1       2.028  14.655  18.857  0.00  0.00    +0.000 A 
ATOM      7  C   UNL     1       0.847  15.409  18.897  0.00  0.00    +0.000 A 
ATOM      8 CL   UNL     1       0.812  16.966  18.164  0.00  0.00    +0.000 Cl
ATOM      9  C   UNL     1      -0.303  14.910  19.510  0.00  0.00    +0.000 A 
ATOM     10  C   UNL     1      -0.251  13.642  20.078  0.00  0.00    +0.000 A 
ENDROOT
BRANCH   1  15
ATOM     11  C   UNL     1      -6.072  10.814  17.987  0.00  0.00    +0.000 C 
ATOM     12  N   UNL     1      -4.888  11.142  18.776  0.00  0.00    +0.000 NA
ATOM     13  C   UNL     1      -4.985  12.509  19.328  0.00  0.00    +0.000 C 
ATOM     14  C   UNL     1      -3.825  12.854  20.294  0.00  0.00    +0.000 C 
ATOM     15  N   UNL     1      -2.488  12.612  19.719  0.00  0.00    +0.000 NA
ATOM     16  C   UNL     1      -2.455  11.256  19.139  0.00  0.00    +0.000 C 
ATOM     17  C   UNL     1      -3.583  10.948  18.092  0.00  0.00    +0.000 C 
ATOM     18  C   UNL     1      -3.354   9.485  17.606  0.00  0.00    +0.000 C 
ATOM     19  C   UNL     1      -3.247   9.554  16.089  0.00  0.00    +0.000 C 
ATOM     20  C   UNL     1      -2.640  10.922  15.834  0.00  0.00    +0.000 C 
ATOM     21  C   UNL     1      -3.387  11.815  16.814  0.00  0.00    +0.000 C 
ENDBRANCH   1  15
BRANCH   3  22
ATOM     22  C   UNL     1       1.085  10.312  20.052  0.00  0.00    +0.000 A 
ATOM     23  C   UNL     1       1.366   9.095  20.692  0.00  0.00    +0.000 A 
ATOM     24  C   UNL     1       1.770   7.977  19.959  0.00  0.00    +0.000 A 
ATOM     25  C   UNL     1       1.860   8.059  18.576  0.00  0.00    +0.000 A 
ATOM     26  F   UNL     1       2.260   6.991  17.875  0.00  0.00    +0.000 F 
ATOM     27  C   UNL     1       1.544   9.235  17.911  0.00  0.00    +0.000 A 
ATOM     28  C   UNL     1       1.164  10.360  18.646  0.00  0.00    +0.000 A 
ENDBRANCH   3  22
TORSDOF 2
ENDMDL
MODEL 8
REMARK VINA RESULT:      -6.7      3.319      6.116
REMARK  Name = 
REMARK  3 active torsions:
REMARK  status: ('A' for Active; 'I' for Inactive)
REMARK    1  A    between atoms: C_1  and  N_2
REMARK    2  A    between atoms: N_5  and  C_6
REMARK    3  A    between atoms: C_8  and  C_9
REMARK                            x       y       z     vdW  Elec       q    Type
REMARK                         _______ _______ _______ _____ _____    ______ ____
ROOT
ATOM      1  C   UNL     1       0.138  11.478  21.660  0.00  0.00    +0.000 C 
ATOM      2  C   UNL     1      -0.359  10.279  20.804  0.00  0.00    +0.000 C 
ATOM      3  C   UNL     1      -0.047  10.543  19.308  0.00  0.00    +0.000 C 
ATOM      4  C   UNL     1       0.812  11.775  19.357  0.00  0.00    +0.000 A 
ATOM      5  C   UNL     1       1.423  12.416  18.287  0.00  0.00    +0.000 A 
ATOM      6  C   UNL     1       2.220  13.534  18.543  0.00  0.00    +0.000 A 
ATOM      7  C   UNL     1       2.416  13.978  19.858  0.00  0.00    +0.000 A 
ATOM      8 CL   UNL     1       3.418  15.348  20.148  0.00  0.00    +0.000 Cl
ATOM      9  C   UNL     1       1.801  13.334  20.932  0.00  0.00    +0.000 A 
ATOM     10  C   UNL     1       0.983  12.242  20.666  0.00  0.00    +0.000 A 
ENDROOT
BRANCH   1  15
ATOM     11  C   UNL     1      -4.781  14.010  23.311  0.00  0.00    +0.000 C 
ATOM     12  N   UNL     1      -3.643  13.324  22.706  0.00  0.00    +0.000 NA
ATOM     13  C   UNL     1      -3.012  12.400  23.671  0.00  0.00    +0.000 C 
ATOM     14  C   UNL     1      -1.892  11.536  23.038  0.00  0.00    +0.000 C 
ATOM     15  N   UNL     1      -0.874  12.327  22.322  0.00  0.00    +0.000 NA
ATOM     16  C   UNL     1      -1.552  13.266  21.407  0.00  0.00    +0.000 C 
ATOM     17  C   UNL     1      -2.620  14.199  22.078  0.00  0.00    +0.000 C 
ATOM     18  C   UNL     1      -3.195  15.104  20.947  0.00  0.00    +0.000 C 
ATOM     19  C   UNL     1      -3.001  16.541  21.414  0.00  0.00    +0.000 C 
ATOM     20  C   UNL     1      -1.741  16.476  22.258  0.00  0.00    +0.000 C 
ATOM     21  C   UNL     1      -1.931  15.194  23.057  0.00  0.00    +0.000 C 
ENDBRANCH   1  15
BRANCH   3  22
ATOM     22  C   UNL     1      -1.304  10.576  18.459  0.00  0.00    +0.000 A 
ATOM     23  C   UNL     1      -1.459   9.820  17.287  0.00  0.00    +0.000 A 
ATOM     24  C   UNL     1      -2.576   9.993  16.466  0.00  0.00    +0.000 A 
ATOM     25  C   UNL     1      -3.563  10.897  16.832  0.00  0.00    +0.000 A 
ATOM     26  F   UNL     1      -4.627  11.071  16.038  0.00  0.00    +0.000 F 
ATOM     27  C   UNL     1      -3.460  11.625  18.009  0.00  0.00    +0.000 A 
ATOM     28  C   UNL     1      -2.332  11.471  18.816  0.00  0.00    +0.000 A 
ENDBRANCH   3  22
TORSDOF 2
ENDMDL
MODEL 9
REMARK VINA RESULT:      -6.7      3.368      6.342
REMARK  Name = 
REMARK  3 active torsions:
REMARK  status: ('A' for Active; 'I' for Inactive)
REMARK    1  A    between atoms: C_1  and  N_2
REMARK    2  A    between atoms: N_5  and  C_6
REMARK    3  A    between atoms: C_8  and  C_9
REMARK                            x       y       z     vdW  Elec       q    Type
REMARK                         _______ _______ _______ _____ _____    ______ ____
ROOT
ATOM      1  C   UNL     1       0.461  11.327  21.538  0.00  0.00    +0.000 C 
ATOM      2  C   UNL     1      -0.167  10.233  20.629  0.00  0.00    +0.000 C 
ATOM      3  C   UNL     1       0.050  10.608  19.140  0.00  0.00    +0.000 C 
ATOM      4  C   UNL     1       0.982  11.784  19.222  0.00  0.00    +0.000 A 
ATOM      5  C   UNL     1       1.552  12.481  18.164  0.00  0.00    +0.000 A 
ATOM      6  C   UNL     1       2.431  13.529  18.448  0.00  0.00    +0.000 A 
ATOM      7  C   UNL     1       2.748  13.846  19.776  0.00  0.00    +0.000 A 
ATOM      8 CL   UNL     1       3.848  15.131  20.098  0.00  0.00    +0.000 Cl
ATOM      9  C   UNL     1       2.175  13.146  20.838  0.00  0.00    +0.000 A 
ATOM     10  C   UNL     1       1.276  12.126  20.548  0.00  0.00    +0.000 A 
ENDROOT
BRANCH   1  15
ATOM     11  C   UNL     1      -4.085  14.268  23.541  0.00  0.00    +0.000 C 
ATOM     12  N   UNL     1      -3.031  13.545  22.837  0.00  0.00    +0.000 NA
ATOM     13  C   UNL     1      -2.655  12.318  23.569  0.00  0.00    +0.000 C 
ATOM     14  C   UNL     1      -1.646  11.435  22.793  0.00  0.00    +0.000 C 
ATOM     15  N   UNL     1      -0.448  12.168  22.344  0.00  0.00    +0.000 NA
ATOM     16  C   UNL     1      -0.871  13.406  21.662  0.00  0.00    +0.000 C 
ATOM     17  C   UNL     1      -1.821  14.337  22.494  0.00  0.00    +0.000 C 
ATOM     18  C   UNL     1      -2.130  15.575  21.599  0.00  0.00    +0.000 C 
ATOM     19  C   UNL     1      -1.738  16.798  22.417  0.00  0.00    +0.000 C 
ATOM     20  C   UNL     1      -0.589  16.301  23.276  0.00  0.00    +0.000 C 
ATOM     21  C   UNL     1      -1.064  14.926  23.721  0.00  0.00    +0.000 C 
ENDBRANCH   1  15
BRANCH   3  22
ATOM     22  C   UNL     1      -1.260  10.781  18.396  0.00  0.00    +0.000 A 
ATOM     23  C   UNL     1      -2.267  11.667  18.810  0.00  0.00    +0.000 A 
ATOM     24  C   UNL     1      -3.510  11.687  18.173  0.00  0.00    +0.000 A 
ATOM     25  C   UNL     1      -3.741  10.847  17.092  0.00  0.00    +0.000 A 
ATOM     26  F   UNL     1      -4.937  10.858  16.491  0.00  0.00    +0.000 F 
ATOM     27  C   UNL     1      -2.749   9.994  16.630  0.00  0.00    +0.000 A 
ATOM     28  C   UNL     1      -1.515   9.956  17.283  0.00  0.00    +0.000 A 
ENDBRANCH   3  22
TORSDOF 2
ENDMDL
