MODEL 1
REMARK VINA RESULT:      -9.0      0.000      0.000
REMARK  Name = 
REMARK  11 active torsions:
REMARK  status: ('A' for Active; 'I' for Inactive)
REMARK    1  A    between atoms: N_1  and  C_2
REMARK    2  A    between atoms: C_7  and  N_8
REMARK    3  A    between atoms: C_9  and  C_11
REMARK    4  A    between atoms: C_12  and  C_13
REMARK    5  A    between atoms: N_15  and  C_16
REMARK    6  A    between atoms: C_18  and  C_19
REMARK    7  A    between atoms: C_19  and  O_21
REMARK    8  A    between atoms: N_22  and  C_23
REMARK    9  A    between atoms: C_23  and  C_24
REMARK   10  A    between atoms: C_24  and  C_25
REMARK   11  A    between atoms: C_25  and  C_26
REMARK                            x       y       z     vdW  Elec       q    Type
REMARK                         _______ _______ _______ _____ _____    ______ ____
ROOT
ATOM      1  C   UNL     1       6.995   6.418  17.418  0.00  0.00    +0.000 A 
ATOM      2  C   UNL     1       5.936   5.835  18.071  0.00  0.00    +0.000 A 
ATOM      3  N   UNL     1       5.862   4.591  17.513  0.00  0.00    +0.000 N 
ATOM      4  N   UNL     1       6.810   4.430  16.571  0.00  0.00    +0.000 NA
ATOM      5  N   UNL     1       7.521   5.550  16.512  0.00  0.00    +0.000 NA
ENDROOT
BRANCH   3   6
ATOM      6  C   UNL     1       4.854   3.585  17.756  0.00  0.00    +0.000 C 
ATOM      7  C   UNL     1       4.559   3.292  19.222  0.00  0.00    +0.000 C 
ATOM      8  C   UNL     1       3.146   2.754  19.155  0.00  0.00    +0.000 C 
ATOM      9  N   UNL     1       2.420   3.654  18.190  0.00  0.00    +0.000 NA
ATOM     10  C   UNL     1       3.472   3.911  17.154  0.00  0.00    +0.000 C 
BRANCH   8  11
ATOM     11  C   UNL     1       2.495   2.561  20.521  0.00  0.00    +0.000 C 
ATOM     12  O   UNL     1       1.293   2.532  20.723  0.00  0.00    +0.000 OA
BRANCH  11  13
ATOM     13  O   UNL     1       3.408   2.529  21.525  0.00  0.00    +0.000 OA
ATOM     14  H   UNL     1       4.149   1.937  21.280  0.00  0.00    +0.000 HD
ENDBRANCH  11  13
ENDBRANCH   8  11
BRANCH   9  15
ATOM     15  C   UNL     1       1.977   4.946  18.778  0.00  0.00    +0.000 C 
BRANCH  15  16
ATOM     16  C   UNL     1       2.122   6.161  17.835  0.00  0.00    +0.000 C 
BRANCH  16  17
ATOM     17  C   UNL     1       2.855   7.364  18.441  0.00  0.00    +0.000 C 
BRANCH  17  18
ATOM     18  C   UNL     1       1.860   8.402  18.913  0.00  0.00    +0.000 A 
ATOM     19  C   UNL     1       1.455   8.434  20.255  0.00  0.00    +0.000 A 
ATOM     20  C   UNL     1       0.475   9.335  20.680  0.00  0.00    +0.000 A 
ATOM     21  C   UNL     1      -0.108  10.213  19.769  0.00  0.00    +0.000 A 
ATOM     22  C   UNL     1       0.294  10.196  18.433  0.00  0.00    +0.000 A 
ATOM     23  C   UNL     1       1.273   9.296  18.007  0.00  0.00    +0.000 A 
ENDBRANCH  17  18
ENDBRANCH  16  17
ENDBRANCH  15  16
ENDBRANCH   9  15
ENDBRANCH   3   6
BRANCH   1  25
ATOM     24  C   UNL     1       8.393   8.122  18.534  0.00  0.00    +0.000 C 
ATOM     25  C   UNL     1       7.482   7.728  17.628  0.00  0.00    +0.000 C 
BRANCH  24  27
ATOM     26  N   UNL     1       9.602   9.961  19.537  0.00  0.00    +0.000 N 
ATOM     27  C   UNL     1       8.716   9.576  18.555  0.00  0.00    +0.000 C 
ATOM     28  O   UNL     1       8.208  10.311  17.708  0.00  0.00    +0.000 OA
ATOM     29  H   UNL     1      10.108   9.248  20.038  0.00  0.00    +0.000 HD
BRANCH  26  35
ATOM     30  C   UNL     1      10.763  12.029  18.877  0.00  0.00    +0.000 A 
ATOM     31  C   UNL     1      11.036  13.388  19.130  0.00  0.00    +0.000 A 
ATOM     32  C   UNL     1      10.626  14.008  20.314  0.00  0.00    +0.000 A 
ATOM     33  C   UNL     1       9.910  13.282  21.252  0.00  0.00    +0.000 A 
ATOM     34  C   UNL     1       9.595  11.947  20.999  0.00  0.00    +0.000 A 
ATOM     35  C   UNL     1       9.977  11.311  19.805  0.00  0.00    +0.000 A 
BRANCH  30  36
ATOM     36  N   UNL     1      11.077  11.531  17.594  0.00  0.00    +0.000 N 
ATOM     37  H   UNL     1      10.785  12.155  16.847  0.00  0.00    +0.000 HD
ATOM     38  H   UNL     1      12.031  11.225  17.467  0.00  0.00    +0.000 HD
ENDBRANCH  30  36
ENDBRANCH  26  35
ENDBRANCH  24  27
ENDBRANCH   1  25
TORSDOF 11
ENDMDL
MODEL 2
REMARK VINA RESULT:      -8.9      1.243      1.398
REMARK  Name = 
REMARK  11 active torsions:
REMARK  status: ('A' for Active; 'I' for Inactive)
REMARK    1  A    between atoms: N_1  and  C_2
REMARK    2  A    between atoms: C_7  and  N_8
REMARK    3  A    between atoms: C_9  and  C_11
REMARK    4  A    between atoms: C_12  and  C_13
REMARK    5  A    between atoms: N_15  and  C_16
REMARK    6  A    between atoms: C_18  and  C_19
REMARK    7  A    between atoms: C_19  and  O_21
REMARK    8  A    between atoms: N_22  and  C_23
REMARK    9  A    between atoms: C_23  and  C_24
REMARK   10  A    between atoms: C_24  and  C_25
REMARK   11  A    between atoms: C_25  and  C_26
REMARK                            x       y       z     vdW  Elec       q    Type
REMARK                         _______ _______ _______ _____ _____    ______ ____
ROOT
ATOM      1  C   UNL     1       7.176   6.997  17.468  0.00  0.00    +0.000 A 
ATOM      2  C   UNL     1       6.360   6.177  18.211  0.00  0.00    +0.000 A 
ATOM      3  N   UNL     1       6.150   5.108  17.390  0.00  0.00    +0.000 N 
ATOM      4  N   UNL     1       6.788   5.271  16.215  0.00  0.00    +0.000 NA
ATOM      5  N   UNL     1       7.433   6.431  16.259  0.00  0.00    +0.000 NA
ENDROOT
BRANCH   3   6
ATOM      6  C   UNL     1       5.272   3.985  17.627  0.00  0.00    +0.000 C 
ATOM      7  C   UNL     1       4.960   3.694  19.090  0.00  0.00    +0.000 C 
ATOM      8  C   UNL     1       3.633   2.975  18.990  0.00  0.00    +0.000 C 
ATOM      9  N   UNL     1       2.834   3.747  17.973  0.00  0.00    +0.000 NA
ATOM     10  C   UNL     1       3.884   4.112  16.967  0.00  0.00    +0.000 C 
BRANCH   8  11
ATOM     11  C   UNL     1       2.960   2.733  20.338  0.00  0.00    +0.000 C 
ATOM     12  O   UNL     1       3.499   2.876  21.422  0.00  0.00    +0.000 OA
BRANCH  11  13
ATOM     13  O   UNL     1       1.706   2.231  20.203  0.00  0.00    +0.000 OA
ATOM     14  H   UNL     1       1.584   1.477  20.817  0.00  0.00    +0.000 HD
ENDBRANCH  11  13
ENDBRANCH   8  11
BRANCH   9  15
ATOM     15  C   UNL     1       2.206   4.985  18.505  0.00  0.00    +0.000 C 
BRANCH  15  16
ATOM     16  C   UNL     1       2.427   6.241  17.633  0.00  0.00    +0.000 C 
BRANCH  16  17
ATOM     17  C   UNL     1       3.060   7.430  18.364  0.00  0.00    +0.000 C 
BRANCH  17  18
ATOM     18  C   UNL     1       1.984   8.353  18.896  0.00  0.00    +0.000 A 
ATOM     19  C   UNL     1       1.566   8.256  20.231  0.00  0.00    +0.000 A 
ATOM     20  C   UNL     1       0.516   9.046  20.706  0.00  0.00    +0.000 A 
ATOM     21  C   UNL     1      -0.124   9.942  19.852  0.00  0.00    +0.000 A 
ATOM     22  C   UNL     1       0.290  10.053  18.525  0.00  0.00    +0.000 A 
ATOM     23  C   UNL     1       1.338   9.264  18.049  0.00  0.00    +0.000 A 
ENDBRANCH  17  18
ENDBRANCH  16  17
ENDBRANCH  15  16
ENDBRANCH   9  15
ENDBRANCH   3   6
BRANCH   1  25
ATOM     24  C   UNL     1       8.731   8.490  18.676  0.00  0.00    +0.000 C 
ATOM     25  C   UNL     1       7.680   8.255  17.872  0.00  0.00    +0.000 C 
BRANCH  24  27
ATOM     26  N   UNL     1       9.189  10.713  17.841  0.00  0.00    +0.000 N 
ATOM     27  C   UNL     1       9.040   9.919  18.957  0.00  0.00    +0.000 C 
ATOM     28  O   UNL     1       9.116  10.294  20.127  0.00  0.00    +0.000 OA
ATOM     29  H   UNL     1       8.903  10.346  16.946  0.00  0.00    +0.000 HD
BRANCH  26  35
ATOM     30  C   UNL     1      10.945  12.435  17.756  0.00  0.00    +0.000 A 
ATOM     31  C   UNL     1      11.288  13.800  17.692  0.00  0.00    +0.000 A 
ATOM     32  C   UNL     1      10.325  14.804  17.829  0.00  0.00    +0.000 A 
ATOM     33  C   UNL     1       8.996  14.454  18.004  0.00  0.00    +0.000 A 
ATOM     34  C   UNL     1       8.633  13.108  18.027  0.00  0.00    +0.000 A 
ATOM     35  C   UNL     1       9.582  12.084  17.868  0.00  0.00    +0.000 A 
BRANCH  30  36
ATOM     36  N   UNL     1      11.955  11.496  17.452  0.00  0.00    +0.000 N 
ATOM     37  H   UNL     1      12.890  11.857  17.618  0.00  0.00    +0.000 HD
ATOM     38  H   UNL     1      11.834  10.580  17.859  0.00  0.00    +0.000 HD
ENDBRANCH  30  36
ENDBRANCH  26  35
ENDBRANCH  24  27
ENDBRANCH   1  25
TORSDOF 11
ENDMDL
MODEL 3
REMARK VINA RESULT:      -8.7      1.552      2.210
REMARK  Name = 
REMARK  11 active torsions:
REMARK  status: ('A' for Active; 'I' for Inactive)
REMARK    1  A    between atoms: N_1  and  C_2
REMARK    2  A    between atoms: C_7  and  N_8
REMARK    3  A    between atoms: C_9  and  C_11
REMARK    4  A    between atoms: C_12  and  C_13
REMARK    5  A    between atoms: N_15  and  C_16
REMARK    6  A    between atoms: C_18  and  C_19
REMARK    7  A    between atoms: C_19  and  O_21
REMARK    8  A    between atoms: N_22  and  C_23
REMARK    9  A    between atoms: C_23  and  C_24
REMARK   10  A    between atoms: C_24  and  C_25
REMARK   11  A    between atoms: C_25  and  C_26
REMARK                            x       y       z     vdW  Elec       q    Type
REMARK                         _______ _______ _______ _____ _____    ______ ____
ROOT
ATOM      1  C   UNL     1       7.818   7.938  18.015  0.00  0.00    +0.000 A 
ATOM      2  C   UNL     1       6.821   7.311  17.307  0.00  0.00    +0.000 A 
ATOM      3  N   UNL     1       6.815   6.045  17.816  0.00  0.00    +0.000 N 
ATOM      4  N   UNL     1       7.759   5.905  18.767  0.00  0.00    +0.000 NA
ATOM      5  N   UNL     1       8.376   7.073  18.904  0.00  0.00    +0.000 NA
ENDROOT
BRANCH   3   6
ATOM      6  C   UNL     1       6.028   4.924  17.357  0.00  0.00    +0.000 C 
ATOM      7  C   UNL     1       5.501   4.002  18.449  0.00  0.00    +0.000 C 
ATOM      8  C   UNL     1       4.290   3.386  17.782  0.00  0.00    +0.000 C 
ATOM      9  N   UNL     1       3.604   4.523  17.071  0.00  0.00    +0.000 NA
ATOM     10  C   UNL     1       4.769   5.316  16.558  0.00  0.00    +0.000 C 
BRANCH   8  11
ATOM     11  C   UNL     1       3.424   2.556  18.724  0.00  0.00    +0.000 C 
ATOM     12  O   UNL     1       3.344   2.724  19.929  0.00  0.00    +0.000 OA
BRANCH  11  13
ATOM     13  O   UNL     1       2.819   1.521  18.087  0.00  0.00    +0.000 OA
ATOM     14  H   UNL     1       2.720   1.731  17.135  0.00  0.00    +0.000 HD
ENDBRANCH  11  13
ENDBRANCH   8  11
BRANCH   9  15
ATOM     15  C   UNL     1       2.772   5.381  17.955  0.00  0.00    +0.000 C 
BRANCH  15  16
ATOM     16  C   UNL     1       3.394   6.756  18.284  0.00  0.00    +0.000 C 
BRANCH  16  17
ATOM     17  C   UNL     1       2.580   7.964  17.806  0.00  0.00    +0.000 C 
BRANCH  17  18
ATOM     18  C   UNL     1       1.784   8.548  18.953  0.00  0.00    +0.000 A 
ATOM     19  C   UNL     1       1.031   9.717  18.769  0.00  0.00    +0.000 A 
ATOM     20  C   UNL     1       0.362  10.307  19.844  0.00  0.00    +0.000 A 
ATOM     21  C   UNL     1       0.436   9.734  21.111  0.00  0.00    +0.000 A 
ATOM     22  C   UNL     1       1.173   8.567  21.304  0.00  0.00    +0.000 A 
ATOM     23  C   UNL     1       1.844   7.976  20.231  0.00  0.00    +0.000 A 
ENDBRANCH  17  18
ENDBRANCH  16  17
ENDBRANCH  15  16
ENDBRANCH   9  15
ENDBRANCH   3   6
BRANCH   1  25
ATOM     24  C   UNL     1       9.065   9.974  18.653  0.00  0.00    +0.000 C 
ATOM     25  C   UNL     1       8.233   9.280  17.856  0.00  0.00    +0.000 C 
BRANCH  24  27
ATOM     26  N   UNL     1      10.507  11.914  18.731  0.00  0.00    +0.000 N 
ATOM     27  C   UNL     1       9.323  11.388  18.264  0.00  0.00    +0.000 C 
ATOM     28  O   UNL     1       8.503  11.970  17.553  0.00  0.00    +0.000 OA
ATOM     29  H   UNL     1      11.191  11.287  19.126  0.00  0.00    +0.000 HD
BRANCH  26  35
ATOM     30  C   UNL     1      11.863  13.615  17.579  0.00  0.00    +0.000 A 
ATOM     31  C   UNL     1      12.169  14.975  17.381  0.00  0.00    +0.000 A 
ATOM     32  C   UNL     1      11.627  15.974  18.195  0.00  0.00    +0.000 A 
ATOM     33  C   UNL     1      10.745  15.626  19.204  0.00  0.00    +0.000 A 
ATOM     34  C   UNL     1      10.398  14.288  19.388  0.00  0.00    +0.000 A 
ATOM     35  C   UNL     1      10.912  13.271  18.566  0.00  0.00    +0.000 A 
BRANCH  30  36
ATOM     36  N   UNL     1      12.331  12.696  16.616  0.00  0.00    +0.000 N 
ATOM     37  H   UNL     1      12.088  11.734  16.837  0.00  0.00    +0.000 HD
ATOM     38  H   UNL     1      12.112  12.920  15.656  0.00  0.00    +0.000 HD
ENDBRANCH  30  36
ENDBRANCH  26  35
ENDBRANCH  24  27
ENDBRANCH   1  25
TORSDOF 11
ENDMDL
MODEL 4
REMARK VINA RESULT:      -8.7      1.226      1.546
REMARK  Name = 
REMARK  11 active torsions:
REMARK  status: ('A' for Active; 'I' for Inactive)
REMARK    1  A    between atoms: N_1  and  C_2
REMARK    2  A    between atoms: C_7  and  N_8
REMARK    3  A    between atoms: C_9  and  C_11
REMARK    4  A    between atoms: C_12  and  C_13
REMARK    5  A    between atoms: N_15  and  C_16
REMARK    6  A    between atoms: C_18  and  C_19
REMARK    7  A    between atoms: C_19  and  O_21
REMARK    8  A    between atoms: N_22  and  C_23
REMARK    9  A    between atoms: C_23  and  C_24
REMARK   10  A    between atoms: C_24  and  C_25
REMARK   11  A    between atoms: C_25  and  C_26
REMARK                            x       y       z     vdW  Elec       q    Type
REMARK                         _______ _______ _______ _____ _____    ______ ____
ROOT
ATOM      1  C   UNL     1       7.418   7.150  17.675  0.00  0.00    +0.000 A 
ATOM      2  C   UNL     1       6.412   6.435  18.279  0.00  0.00    +0.000 A 
ATOM      3  N   UNL     1       6.026   5.549  17.316  0.00  0.00    +0.000 N 
ATOM      4  N   UNL     1       6.744   5.721  16.189  0.00  0.00    +0.000 NA
ATOM      5  N   UNL     1       7.614   6.701  16.406  0.00  0.00    +0.000 NA
ENDROOT
BRANCH   3   6
ATOM      6  C   UNL     1       4.922   4.619  17.378  0.00  0.00    +0.000 C 
ATOM      7  C   UNL     1       4.937   3.661  18.562  0.00  0.00    +0.000 C 
ATOM      8  C   UNL     1       3.471   3.315  18.703  0.00  0.00    +0.000 C 
ATOM      9  N   UNL     1       2.733   4.617  18.529  0.00  0.00    +0.000 NA
ATOM     10  C   UNL     1       3.533   5.284  17.451  0.00  0.00    +0.000 C 
BRANCH   8  11
ATOM     11  C   UNL     1       3.145   2.515  19.961  0.00  0.00    +0.000 C 
ATOM     12  O   UNL     1       3.960   2.169  20.798  0.00  0.00    +0.000 OA
BRANCH  11  13
ATOM     13  O   UNL     1       1.844   2.128  20.000  0.00  0.00    +0.000 OA
ATOM     14  H   UNL     1       1.282   2.885  20.267  0.00  0.00    +0.000 HD
ENDBRANCH  11  13
ENDBRANCH   8  11
BRANCH   9  15
ATOM     15  C   UNL     1       2.721   5.477  19.742  0.00  0.00    +0.000 C 
BRANCH  15  16
ATOM     16  C   UNL     1       2.400   6.963  19.470  0.00  0.00    +0.000 C 
BRANCH  16  17
ATOM     17  C   UNL     1       1.784   7.717  20.654  0.00  0.00    +0.000 C 
BRANCH  17  18
ATOM     18  C   UNL     1       1.058   8.953  20.168  0.00  0.00    +0.000 A 
ATOM     19  C   UNL     1       0.127   9.598  20.995  0.00  0.00    +0.000 A 
ATOM     20  C   UNL     1      -0.607  10.689  20.523  0.00  0.00    +0.000 A 
ATOM     21  C   UNL     1      -0.417  11.148  19.222  0.00  0.00    +0.000 A 
ATOM     22  C   UNL     1       0.513  10.521  18.394  0.00  0.00    +0.000 A 
ATOM     23  C   UNL     1       1.248   9.430  18.864  0.00  0.00    +0.000 A 
ENDBRANCH  17  18
ENDBRANCH  16  17
ENDBRANCH  15  16
ENDBRANCH   9  15
ENDBRANCH   3   6
BRANCH   1  25
ATOM     24  C   UNL     1       8.172   9.495  17.868  0.00  0.00    +0.000 C 
ATOM     25  C   UNL     1       8.152   8.209  18.257  0.00  0.00    +0.000 C 
BRANCH  24  27
ATOM     26  N   UNL     1       9.251  11.648  18.087  0.00  0.00    +0.000 N 
ATOM     27  C   UNL     1       9.050  10.407  18.651  0.00  0.00    +0.000 C 
ATOM     28  O   UNL     1       9.505  10.018  19.727  0.00  0.00    +0.000 OA
ATOM     29  H   UNL     1       8.667  11.927  17.315  0.00  0.00    +0.000 HD
BRANCH  26  35
ATOM     30  C   UNL     1      11.511  12.598  18.314  0.00  0.00    +0.000 A 
ATOM     31  C   UNL     1      12.333  13.647  18.769  0.00  0.00    +0.000 A 
ATOM     32  C   UNL     1      11.832  14.672  19.576  0.00  0.00    +0.000 A 
ATOM     33  C   UNL     1      10.490  14.677  19.918  0.00  0.00    +0.000 A 
ATOM     34  C   UNL     1       9.652  13.669  19.442  0.00  0.00    +0.000 A 
ATOM     35  C   UNL     1      10.130  12.643  18.610  0.00  0.00    +0.000 A 
BRANCH  30  36
ATOM     36  N   UNL     1      12.064  11.696  17.380  0.00  0.00    +0.000 N 
ATOM     37  H   UNL     1      12.332  10.810  17.799  0.00  0.00    +0.000 HD
ATOM     38  H   UNL     1      11.527  11.559  16.536  0.00  0.00    +0.000 HD
ENDBRANCH  30  36
ENDBRANCH  26  35
ENDBRANCH  24  27
ENDBRANCH   1  25
TORSDOF 11
ENDMDL
MODEL 5
REMARK VINA RESULT:      -8.7      1.389      1.824
REMARK  Name = 
REMARK  11 active torsions:
REMARK  status: ('A' for Active; 'I' for Inactive)
REMARK    1  A    between atoms: N_1  and  C_2
REMARK    2  A    between atoms: C_7  and  N_8
REMARK    3  A    between atoms: C_9  and  C_11
REMARK    4  A    between atoms: C_12  and  C_13
REMARK    5  A    between atoms: N_15  and  C_16
REMARK    6  A    between atoms: C_18  and  C_19
REMARK    7  A    between atoms: C_19  and  O_21
REMARK    8  A    between atoms: N_22  and  C_23
REMARK    9  A    between atoms: C_23  and  C_24
REMARK   10  A    between atoms: C_24  and  C_25
REMARK   11  A    between atoms: C_25  and  C_26
REMARK                            x       y       z     vdW  Elec       q    Type
REMARK                         _______ _______ _______ _____ _____    ______ ____
ROOT
ATOM      1  C   UNL     1       7.456   7.210  17.490  0.00  0.00    +0.000 A 
ATOM      2  C   UNL     1       6.291   6.608  17.902  0.00  0.00    +0.000 A 
ATOM      3  N   UNL     1       6.050   5.680  16.931  0.00  0.00    +0.000 N 
ATOM      4  N   UNL     1       7.003   5.722  15.979  0.00  0.00    +0.000 NA
ATOM      5  N   UNL     1       7.881   6.658  16.323  0.00  0.00    +0.000 NA
ENDROOT
BRANCH   3   6
ATOM      6  C   UNL     1       4.889   4.830  16.805  0.00  0.00    +0.000 C 
ATOM      7  C   UNL     1       4.907   3.565  17.654  0.00  0.00    +0.000 C 
ATOM      8  C   UNL     1       3.431   3.267  17.802  0.00  0.00    +0.000 C 
ATOM      9  N   UNL     1       2.779   4.597  18.073  0.00  0.00    +0.000 NA
ATOM     10  C   UNL     1       3.558   5.512  17.177  0.00  0.00    +0.000 C 
BRANCH   8  11
ATOM     11  C   UNL     1       3.125   2.149  18.794  0.00  0.00    +0.000 C 
ATOM     12  O   UNL     1       2.005   1.794  19.121  0.00  0.00    +0.000 OA
BRANCH  11  13
ATOM     13  O   UNL     1       4.249   1.649  19.367  0.00  0.00    +0.000 OA
ATOM     14  H   UNL     1       4.019   0.882  19.932  0.00  0.00    +0.000 HD
ENDBRANCH  11  13
ENDBRANCH   8  11
BRANCH   9  15
ATOM     15  C   UNL     1       2.900   5.060  19.480  0.00  0.00    +0.000 C 
BRANCH  15  16
ATOM     16  C   UNL     1       2.563   6.552  19.695  0.00  0.00    +0.000 C 
BRANCH  16  17
ATOM     17  C   UNL     1       1.648   6.842  20.891  0.00  0.00    +0.000 C 
BRANCH  17  18
ATOM     18  C   UNL     1       1.152   8.271  20.837  0.00  0.00    +0.000 A 
ATOM     19  C   UNL     1       1.241   9.007  19.647  0.00  0.00    +0.000 A 
ATOM     20  C   UNL     1       0.862  10.351  19.613  0.00  0.00    +0.000 A 
ATOM     21  C   UNL     1       0.389  10.972  20.766  0.00  0.00    +0.000 A 
ATOM     22  C   UNL     1       0.287  10.248  21.953  0.00  0.00    +0.000 A 
ATOM     23  C   UNL     1       0.666   8.904  21.990  0.00  0.00    +0.000 A 
ENDBRANCH  17  18
ENDBRANCH  16  17
ENDBRANCH  15  16
ENDBRANCH   9  15
ENDBRANCH   3   6
BRANCH   1  25
ATOM     24  C   UNL     1       8.231   9.541  17.761  0.00  0.00    +0.000 C 
ATOM     25  C   UNL     1       8.129   8.260  18.156  0.00  0.00    +0.000 C 
BRANCH  24  27
ATOM     26  N   UNL     1       9.297  11.683  18.114  0.00  0.00    +0.000 N 
ATOM     27  C   UNL     1       9.018  10.443  18.646  0.00  0.00    +0.000 C 
ATOM     28  O   UNL     1       9.336  10.048  19.769  0.00  0.00    +0.000 OA
ATOM     29  H   UNL     1       8.813  11.969  17.278  0.00  0.00    +0.000 HD
BRANCH  26  35
ATOM     30  C   UNL     1      11.505  12.705  18.485  0.00  0.00    +0.000 A 
ATOM     31  C   UNL     1      12.268  13.748  19.046  0.00  0.00    +0.000 A 
ATOM     32  C   UNL     1      11.701  14.682  19.918  0.00  0.00    +0.000 A 
ATOM     33  C   UNL     1      10.351  14.602  20.218  0.00  0.00    +0.000 A 
ATOM     34  C   UNL     1       9.572  13.602  19.638  0.00  0.00    +0.000 A 
ATOM     35  C   UNL     1      10.117  12.668  18.741  0.00  0.00    +0.000 A 
BRANCH  30  36
ATOM     36  N   UNL     1      12.123  11.906  17.498  0.00  0.00    +0.000 N 
ATOM     37  H   UNL     1      12.241  12.393  16.614  0.00  0.00    +0.000 HD
ATOM     38  H   UNL     1      12.974  11.444  17.782  0.00  0.00    +0.000 HD
ENDBRANCH  30  36
ENDBRANCH  26  35
ENDBRANCH  24  27
ENDBRANCH   1  25
TORSDOF 11
ENDMDL
MODEL 6
REMARK VINA RESULT:      -8.5      4.315      8.739
REMARK  Name = 
REMARK  11 active torsions:
REMARK  status: ('A' for Active; 'I' for Inactive)
REMARK    1  A    between atoms: N_1  and  C_2
REMARK    2  A    between atoms: C_7  and  N_8
REMARK    3  A    between atoms: C_9  and  C_11
REMARK    4  A    between atoms: C_12  and  C_13
REMARK    5  A    between atoms: N_15  and  C_16
REMARK    6  A    between atoms: C_18  and  C_19
REMARK    7  A    between atoms: C_19  and  O_21
REMARK    8  A    between atoms: N_22  and  C_23
REMARK    9  A    between atoms: C_23  and  C_24
REMARK   10  A    between atoms: C_24  and  C_25
REMARK   11  A    between atoms: C_25  and  C_26
REMARK                            x       y       z     vdW  Elec       q    Type
REMARK                         _______ _______ _______ _____ _____    ______ ____
ROOT
ATOM      1  C   UNL     1       1.045   8.914  20.391  0.00  0.00    +0.000 A 
ATOM      2  C   UNL     1       1.304   7.732  21.044  0.00  0.00    +0.000 A 
ATOM      3  N   UNL     1       2.061   7.032  20.151  0.00  0.00    +0.000 N 
ATOM      4  N   UNL     1       2.243   7.738  19.018  0.00  0.00    +0.000 NA
ATOM      5  N   UNL     1       1.627   8.906  19.162  0.00  0.00    +0.000 NA
ENDROOT
BRANCH   3   6
ATOM      6  C   UNL     1       2.526   5.671  20.279  0.00  0.00    +0.000 C 
ATOM      7  C   UNL     1       1.587   4.603  19.732  0.00  0.00    +0.000 C 
ATOM      8  C   UNL     1       2.543   3.469  19.431  0.00  0.00    +0.000 C 
ATOM      9  N   UNL     1       3.742   4.117  18.788  0.00  0.00    +0.000 NA
ATOM     10  C   UNL     1       3.867   5.387  19.575  0.00  0.00    +0.000 C 
BRANCH   8  11
ATOM     11  C   UNL     1       1.907   2.313  18.666  0.00  0.00    +0.000 C 
ATOM     12  O   UNL     1       0.734   2.254  18.340  0.00  0.00    +0.000 OA
BRANCH  11  13
ATOM     13  O   UNL     1       2.773   1.286  18.474  0.00  0.00    +0.000 OA
ATOM     14  H   UNL     1       2.337   0.577  17.959  0.00  0.00    +0.000 HD
ENDBRANCH  11  13
ENDBRANCH   8  11
BRANCH   9  15
ATOM     15  C   UNL     1       3.560   4.441  17.349  0.00  0.00    +0.000 C 
BRANCH  15  16
ATOM     16  C   UNL     1       4.576   3.760  16.405  0.00  0.00    +0.000 C 
BRANCH  16  17
ATOM     17  C   UNL     1       5.567   4.714  15.728  0.00  0.00    +0.000 C 
BRANCH  17  18
ATOM     18  C   UNL     1       6.388   5.444  16.769  0.00  0.00    +0.000 A 
ATOM     19  C   UNL     1       6.509   6.840  16.724  0.00  0.00    +0.000 A 
ATOM     20  C   UNL     1       7.332   7.512  17.631  0.00  0.00    +0.000 A 
ATOM     21  C   UNL     1       8.041   6.796  18.592  0.00  0.00    +0.000 A 
ATOM     22  C   UNL     1       7.922   5.408  18.652  0.00  0.00    +0.000 A 
ATOM     23  C   UNL     1       7.100   4.735  17.746  0.00  0.00    +0.000 A 
ENDBRANCH  17  18
ENDBRANCH  16  17
ENDBRANCH  15  16
ENDBRANCH   9  15
ENDBRANCH   3   6
BRANCH   1  25
ATOM     24  C   UNL     1       0.657  11.277  20.998  0.00  0.00    +0.000 C 
ATOM     25  C   UNL     1       0.280   9.991  20.894  0.00  0.00    +0.000 C 
BRANCH  24  27
ATOM     26  N   UNL     1      -1.606  11.686  21.747  0.00  0.00    +0.000 N 
ATOM     27  C   UNL     1      -0.343  12.212  21.583  0.00  0.00    +0.000 C 
ATOM     28  O   UNL     1       0.014  13.348  21.896  0.00  0.00    +0.000 OA
ATOM     29  H   UNL     1      -1.730  10.691  21.649  0.00  0.00    +0.000 HD
BRANCH  26  35
ATOM     30  C   UNL     1      -3.483  13.210  21.283  0.00  0.00    +0.000 A 
ATOM     31  C   UNL     1      -4.651  13.851  21.740  0.00  0.00    +0.000 A 
ATOM     32  C   UNL     1      -5.034  13.804  23.083  0.00  0.00    +0.000 A 
ATOM     33  C   UNL     1      -4.267  13.087  23.986  0.00  0.00    +0.000 A 
ATOM     34  C   UNL     1      -3.130  12.411  23.544  0.00  0.00    +0.000 A 
ATOM     35  C   UNL     1      -2.740  12.426  22.194  0.00  0.00    +0.000 A 
BRANCH  30  36
ATOM     36  N   UNL     1      -3.260  13.180  19.890  0.00  0.00    +0.000 N 
ATOM     37  H   UNL     1      -3.751  12.419  19.428  0.00  0.00    +0.000 HD
ATOM     38  H   UNL     1      -3.399  14.056  19.407  0.00  0.00    +0.000 HD
ENDBRANCH  30  36
ENDBRANCH  26  35
ENDBRANCH  24  27
ENDBRANCH   1  25
TORSDOF 11
ENDMDL
MODEL 7
REMARK VINA RESULT:      -8.4      1.139      1.536
REMARK  Name = 
REMARK  11 active torsions:
REMARK  status: ('A' for Active; 'I' for Inactive)
REMARK    1  A    between atoms: N_1  and  C_2
REMARK    2  A    between atoms: C_7  and  N_8
REMARK    3  A    between atoms: C_9  and  C_11
REMARK    4  A    between atoms: C_12  and  C_13
REMARK    5  A    between atoms: N_15  and  C_16
REMARK    6  A    between atoms: C_18  and  C_19
REMARK    7  A    between atoms: C_19  and  O_21
REMARK    8  A    between atoms: N_22  and  C_23
REMARK    9  A    between atoms: C_23  and  C_24
REMARK   10  A    between atoms: C_24  and  C_25
REMARK   11  A    between atoms: C_25  and  C_26
REMARK                            x       y       z     vdW  Elec       q    Type
REMARK                         _______ _______ _______ _____ _____    ______ ____
ROOT
ATOM      1  C   UNL     1       7.559   6.909  17.814  0.00  0.00    +0.000 A 
ATOM      2  C   UNL     1       6.902   5.923  18.511  0.00  0.00    +0.000 A 
ATOM      3  N   UNL     1       6.437   5.095  17.531  0.00  0.00    +0.000 N 
ATOM      4  N   UNL     1       6.779   5.555  16.311  0.00  0.00    +0.000 NA
ATOM      5  N   UNL     1       7.481   6.669  16.478  0.00  0.00    +0.000 NA
ENDROOT
BRANCH   3   6
ATOM      6  C   UNL     1       5.580   3.944  17.695  0.00  0.00    +0.000 C 
ATOM      7  C   UNL     1       4.937   3.795  19.068  0.00  0.00    +0.000 C 
ATOM      8  C   UNL     1       3.708   2.972  18.751  0.00  0.00    +0.000 C 
ATOM      9  N   UNL     1       3.145   3.564  17.485  0.00  0.00    +0.000 NA
ATOM     10  C   UNL     1       4.390   3.891  16.717  0.00  0.00    +0.000 C 
BRANCH   8  11
ATOM     11  C   UNL     1       2.740   2.833  19.922  0.00  0.00    +0.000 C 
ATOM     12  O   UNL     1       2.865   3.389  21.000  0.00  0.00    +0.000 OA
BRANCH  11  13
ATOM     13  O   UNL     1       1.762   1.925  19.675  0.00  0.00    +0.000 OA
ATOM     14  H   UNL     1       1.509   1.961  18.729  0.00  0.00    +0.000 HD
ENDBRANCH  11  13
ENDBRANCH   8  11
BRANCH   9  15
ATOM     15  C   UNL     1       2.350   4.802  17.693  0.00  0.00    +0.000 C 
BRANCH  15  16
ATOM     16  C   UNL     1       3.171   6.015  18.187  0.00  0.00    +0.000 C 
BRANCH  16  17
ATOM     17  C   UNL     1       2.705   6.609  19.521  0.00  0.00    +0.000 C 
BRANCH  17  18
ATOM     18  C   UNL     1       1.987   7.921  19.289  0.00  0.00    +0.000 A 
ATOM     19  C   UNL     1       1.941   8.485  18.005  0.00  0.00    +0.000 A 
ATOM     20  C   UNL     1       1.354   9.735  17.799  0.00  0.00    +0.000 A 
ATOM     21  C   UNL     1       0.805  10.434  18.871  0.00  0.00    +0.000 A 
ATOM     22  C   UNL     1       0.837   9.880  20.150  0.00  0.00    +0.000 A 
ATOM     23  C   UNL     1       1.424   8.630  20.359  0.00  0.00    +0.000 A 
ENDBRANCH  17  18
ENDBRANCH  16  17
ENDBRANCH  15  16
ENDBRANCH   9  15
ENDBRANCH   3   6
BRANCH   1  25
ATOM     24  C   UNL     1       8.194   9.294  17.930  0.00  0.00    +0.000 C 
ATOM     25  C   UNL     1       8.217   8.026  18.377  0.00  0.00    +0.000 C 
BRANCH  24  27
ATOM     26  N   UNL     1       9.175  11.499  18.088  0.00  0.00    +0.000 N 
ATOM     27  C   UNL     1       8.996  10.281  18.705  0.00  0.00    +0.000 C 
ATOM     28  O   UNL     1       9.411   9.966  19.821  0.00  0.00    +0.000 OA
ATOM     29  H   UNL     1       8.620  11.714  17.275  0.00  0.00    +0.000 HD
BRANCH  26  35
ATOM     30  C   UNL     1      10.937  13.187  17.767  0.00  0.00    +0.000 A 
ATOM     31  C   UNL     1      11.655  14.287  18.277  0.00  0.00    +0.000 A 
ATOM     32  C   UNL     1      11.514  14.702  19.605  0.00  0.00    +0.000 A 
ATOM     33  C   UNL     1      10.627  14.037  20.435  0.00  0.00    +0.000 A 
ATOM     34  C   UNL     1       9.878  12.972  19.936  0.00  0.00    +0.000 A 
ATOM     35  C   UNL     1       9.987  12.555  18.599  0.00  0.00    +0.000 A 
BRANCH  30  36
ATOM     36  N   UNL     1      11.026  12.940  16.381  0.00  0.00    +0.000 N 
ATOM     37  H   UNL     1      10.220  13.284  15.867  0.00  0.00    +0.000 HD
ATOM     38  H   UNL     1      11.891  13.219  15.942  0.00  0.00    +0.000 HD
ENDBRANCH  30  36
ENDBRANCH  26  35
ENDBRANCH  24  27
ENDBRANCH   1  25
TORSDOF 11
ENDMDL
MODEL 8
REMARK VINA RESULT:      -8.4      1.091      1.466
REMARK  Name = 
REMARK  11 active torsions:
REMARK  status: ('A' for Active; 'I' for Inactive)
REMARK    1  A    between atoms: N_1  and  C_2
REMARK    2  A    between atoms: C_7  and  N_8
REMARK    3  A    between atoms: C_9  and  C_11
REMARK    4  A    between atoms: C_12  and  C_13
REMARK    5  A    between atoms: N_15  and  C_16
REMARK    6  A    between atoms: C_18  and  C_19
REMARK    7  A    between atoms: C_19  and  O_21
REMARK    8  A    between atoms: N_22  and  C_23
REMARK    9  A    between atoms: C_23  and  C_24
REMARK   10  A    between atoms: C_24  and  C_25
REMARK   11  A    between atoms: C_25  and  C_26
REMARK                            x       y       z     vdW  Elec       q    Type
REMARK                         _______ _______ _______ _____ _____    ______ ____
ROOT
ATOM      1  C   UNL     1       7.399   6.918  18.126  0.00  0.00    +0.000 A 
ATOM      2  C   UNL     1       6.245   6.366  17.624  0.00  0.00    +0.000 A 
ATOM      3  N   UNL     1       6.308   5.066  18.031  0.00  0.00    +0.000 N 
ATOM      4  N   UNL     1       7.438   4.835  18.727  0.00  0.00    +0.000 NA
ATOM      5  N   UNL     1       8.113   5.976  18.799  0.00  0.00    +0.000 NA
ENDROOT
BRANCH   3   6
ATOM      6  C   UNL     1       5.397   3.999  17.688  0.00  0.00    +0.000 C 
ATOM      7  C   UNL     1       4.708   3.321  18.866  0.00  0.00    +0.000 C 
ATOM      8  C   UNL     1       3.453   2.773  18.221  0.00  0.00    +0.000 C 
ATOM      9  N   UNL     1       2.955   3.871  17.318  0.00  0.00    +0.000 NA
ATOM     10  C   UNL     1       4.235   4.425  16.769  0.00  0.00    +0.000 C 
BRANCH   8  11
ATOM     11  C   UNL     1       2.446   2.206  19.217  0.00  0.00    +0.000 C 
ATOM     12  O   UNL     1       1.364   1.730  18.920  0.00  0.00    +0.000 OA
BRANCH  11  13
ATOM     13  O   UNL     1       2.838   2.387  20.504  0.00  0.00    +0.000 OA
ATOM     14  H   UNL     1       3.263   3.264  20.600  0.00  0.00    +0.000 HD
ENDBRANCH  11  13
ENDBRANCH   8  11
BRANCH   9  15
ATOM     15  C   UNL     1       2.210   4.948  18.023  0.00  0.00    +0.000 C 
BRANCH  15  16
ATOM     16  C   UNL     1       2.871   6.341  17.944  0.00  0.00    +0.000 C 
BRANCH  16  17
ATOM     17  C   UNL     1       2.942   7.098  19.275  0.00  0.00    +0.000 C 
BRANCH  17  18
ATOM     18  C   UNL     1       1.899   8.194  19.312  0.00  0.00    +0.000 A 
ATOM     19  C   UNL     1       1.649   8.971  18.171  0.00  0.00    +0.000 A 
ATOM     20  C   UNL     1       0.748  10.038  18.221  0.00  0.00    +0.000 A 
ATOM     21  C   UNL     1       0.088  10.338  19.410  0.00  0.00    +0.000 A 
ATOM     22  C   UNL     1       0.322   9.567  20.549  0.00  0.00    +0.000 A 
ATOM     23  C   UNL     1       1.222   8.500  20.500  0.00  0.00    +0.000 A 
ENDBRANCH  17  18
ENDBRANCH  16  17
ENDBRANCH  15  16
ENDBRANCH   9  15
ENDBRANCH   3   6
BRANCH   1  25
ATOM     24  C   UNL     1       8.698   8.930  18.731  0.00  0.00    +0.000 C 
ATOM     25  C   UNL     1       7.816   8.260  17.970  0.00  0.00    +0.000 C 
BRANCH  24  27
ATOM     26  N   UNL     1       9.956  10.970  19.058  0.00  0.00    +0.000 N 
ATOM     27  C   UNL     1       8.946  10.350  18.356  0.00  0.00    +0.000 C 
ATOM     28  O   UNL     1       8.273  10.855  17.457  0.00  0.00    +0.000 OA
ATOM     29  H   UNL     1      10.571  10.403  19.620  0.00  0.00    +0.000 HD
BRANCH  26  35
ATOM     30  C   UNL     1      11.400  12.741  18.142  0.00  0.00    +0.000 A 
ATOM     31  C   UNL     1      11.653  14.116  17.969  0.00  0.00    +0.000 A 
ATOM     32  C   UNL     1      10.901  15.088  18.635  0.00  0.00    +0.000 A 
ATOM     33  C   UNL     1       9.863  14.696  19.464  0.00  0.00    +0.000 A 
ATOM     34  C   UNL     1       9.572  13.341  19.614  0.00  0.00    +0.000 A 
ATOM     35  C   UNL     1      10.299  12.349  18.936  0.00  0.00    +0.000 A 
BRANCH  30  36
ATOM     36  N   UNL     1      12.104  11.841  17.313  0.00  0.00    +0.000 N 
ATOM     37  H   UNL     1      11.489  11.236  16.777  0.00  0.00    +0.000 HD
ATOM     38  H   UNL     1      12.817  12.253  16.730  0.00  0.00    +0.000 HD
ENDBRANCH  30  36
ENDBRANCH  26  35
ENDBRANCH  24  27
ENDBRANCH   1  25
TORSDOF 11
ENDMDL
MODEL 9
REMARK VINA RESULT:      -8.4      3.083      8.135
REMARK  Name = 
REMARK  11 active torsions:
REMARK  status: ('A' for Active; 'I' for Inactive)
REMARK    1  A    between atoms: N_1  and  C_2
REMARK    2  A    between atoms: C_7  and  N_8
REMARK    3  A    between atoms: C_9  and  C_11
REMARK    4  A    between atoms: C_12  and  C_13
REMARK    5  A    between atoms: N_15  and  C_16
REMARK    6  A    between atoms: C_18  and  C_19
REMARK    7  A    between atoms: C_19  and  O_21
REMARK    8  A    between atoms: N_22  and  C_23
REMARK    9  A    between atoms: C_23  and  C_24
REMARK   10  A    between atoms: C_24  and  C_25
REMARK   11  A    between atoms: C_25  and  C_26
REMARK                            x       y       z     vdW  Elec       q    Type
REMARK                         _______ _______ _______ _____ _____    ______ ____
ROOT
ATOM      1  C   UNL     1       2.706   6.123  19.704  0.00  0.00    +0.000 A 
ATOM      2  C   UNL     1       3.693   6.126  18.748  0.00  0.00    +0.000 A 
ATOM      3  N   UNL     1       4.279   4.902  18.891  0.00  0.00    +0.000 N 
ATOM      4  N   UNL     1       3.693   4.201  19.880  0.00  0.00    +0.000 NA
ATOM      5  N   UNL     1       2.713   4.944  20.381  0.00  0.00    +0.000 NA
ENDROOT
BRANCH   3   6
ATOM      6  C   UNL     1       5.451   4.411  18.203  0.00  0.00    +0.000 C 
ATOM      7  C   UNL     1       5.405   4.499  16.683  0.00  0.00    +0.000 C 
ATOM      8  C   UNL     1       6.875   4.536  16.327  0.00  0.00    +0.000 C 
ATOM      9  N   UNL     1       7.505   5.472  17.326  0.00  0.00    +0.000 NA
ATOM     10  C   UNL     1       6.759   5.132  18.581  0.00  0.00    +0.000 C 
BRANCH   8  11
ATOM     11  C   UNL     1       7.145   4.835  14.856  0.00  0.00    +0.000 C 
ATOM     12  O   UNL     1       7.999   5.603  14.445  0.00  0.00    +0.000 OA
BRANCH  11  13
ATOM     13  O   UNL     1       6.250   4.229  14.035  0.00  0.00    +0.000 OA
ATOM     14  H   UNL     1       6.718   3.618  13.429  0.00  0.00    +0.000 HD
ENDBRANCH  11  13
ENDBRANCH   8  11
BRANCH   9  15
ATOM     15  C   UNL     1       7.319   6.913  17.012  0.00  0.00    +0.000 C 
BRANCH  15  16
ATOM     16  C   UNL     1       8.016   7.878  17.997  0.00  0.00    +0.000 C 
BRANCH  16  17
ATOM     17  C   UNL     1       7.927   9.361  17.619  0.00  0.00    +0.000 C 
BRANCH  17  18
ATOM     18  C   UNL     1       8.986  10.154  18.355  0.00  0.00    +0.000 A 
ATOM     19  C   UNL     1       9.066  10.099  19.754  0.00  0.00    +0.000 A 
ATOM     20  C   UNL     1       9.986  10.892  20.444  0.00  0.00    +0.000 A 
ATOM     21  C   UNL     1      10.835  11.746  19.745  0.00  0.00    +0.000 A 
ATOM     22  C   UNL     1      10.770  11.802  18.353  0.00  0.00    +0.000 A 
ATOM     23  C   UNL     1       9.851  11.010  17.661  0.00  0.00    +0.000 A 
ENDBRANCH  17  18
ENDBRANCH  16  17
ENDBRANCH  15  16
ENDBRANCH   9  15
ENDBRANCH   3   6
BRANCH   1  25
ATOM     24  C   UNL     1       1.432   7.641  21.181  0.00  0.00    +0.000 C 
ATOM     25  C   UNL     1       1.807   7.181  19.974  0.00  0.00    +0.000 C 
BRANCH  24  27
ATOM     26  N   UNL     1       0.715   9.768  20.280  0.00  0.00    +0.000 N 
ATOM     27  C   UNL     1       0.452   8.762  21.183  0.00  0.00    +0.000 C 
ATOM     28  O   UNL     1      -0.513   8.708  21.947  0.00  0.00    +0.000 OA
ATOM     29  H   UNL     1       1.411   9.607  19.568  0.00  0.00    +0.000 HD
BRANCH  26  35
ATOM     30  C   UNL     1      -0.653  11.330  18.958  0.00  0.00    +0.000 A 
ATOM     31  C   UNL     1      -1.457  12.485  18.918  0.00  0.00    +0.000 A 
ATOM     32  C   UNL     1      -1.575  13.334  20.023  0.00  0.00    +0.000 A 
ATOM     33  C   UNL     1      -0.910  13.020  21.197  0.00  0.00    +0.000 A 
ATOM     34  C   UNL     1      -0.142  11.858  21.267  0.00  0.00    +0.000 A 
ATOM     35  C   UNL     1      -0.030  10.980  20.176  0.00  0.00    +0.000 A 
BRANCH  30  36
ATOM     36  N   UNL     1      -0.718  10.455  17.853  0.00  0.00    +0.000 N 
ATOM     37  H   UNL     1       0.100  10.517  17.252  0.00  0.00    +0.000 HD
ATOM     38  H   UNL     1      -0.945   9.495  18.069  0.00  0.00    +0.000 HD
ENDBRANCH  30  36
ENDBRANCH  26  35
ENDBRANCH  24  27
ENDBRANCH   1  25
TORSDOF 11
ENDMDL
