MODEL 1
REMARK VINA RESULT:      -7.5      0.000      0.000
REMARK  Name = 
REMARK  7 active torsions:
REMARK  status: ('A' for Active; 'I' for Inactive)
REMARK    1  A    between atoms: C_2  and  C_3
REMARK    2  A    between atoms: C_3  and  C_4
REMARK    3  A    between atoms: C_4  and  N_5
REMARK    4  A    between atoms: C_7  and  C_8
REMARK    5  A    between atoms: C_8  and  C_9
REMARK    6  A    between atoms: C_19  and  C_20
REMARK    7  A    between atoms: C_22  and  N_23
REMARK                            x       y       z     vdW  Elec       q    Type
REMARK                         _______ _______ _______ _____ _____    ______ ____
ROOT
ATOM      1  N   UNL     1       7.177   7.006  17.945  0.00  0.00    +0.000 N 
ATOM      2  N   UNL     1       6.020   7.156  17.255  0.00  0.00    +0.000 NA
ATOM      3  C   UNL     1       5.284   6.080  17.600  0.00  0.00    +0.000 A 
ATOM      4  C   UNL     1       5.985   5.270  18.535  0.00  0.00    +0.000 A 
ATOM      5  C   UNL     1       7.182   5.910  18.775  0.00  0.00    +0.000 A 
ENDROOT
BRANCH   5   6
ATOM      6  N   UNL     1       8.210   5.610  19.615  0.00  0.00    +0.000 N 
ATOM      7  H   UNL     1       8.237   6.034  20.541  0.00  0.00    +0.000 HD
ATOM      8  H   UNL     1       9.147   5.423  19.273  0.00  0.00    +0.000 HD
ENDBRANCH   5   6
BRANCH   4   9
ATOM      9  C   UNL     1       5.548   4.069  19.162  0.00  0.00    +0.000 C 
ATOM     10  N   UNL     1       5.196   3.088  19.674  0.00  0.00    +0.000 NA
ENDBRANCH   4   9
BRANCH   1  11
ATOM     11  C   UNL     1       8.286   7.907  17.693  0.00  0.00    +0.000 C 
BRANCH  11  12
ATOM     12  C   UNL     1       7.996   9.375  17.930  0.00  0.00    +0.000 C 
BRANCH  12  14
ATOM     13  N   UNL     1       9.837  10.696  19.542  0.00  0.00    +0.000 NA
ATOM     14  C   UNL     1       9.002  10.097  18.811  0.00  0.00    +0.000 C 
ENDBRANCH  12  14
ENDBRANCH  11  12
ENDBRANCH   1  11
BRANCH   3  15
ATOM     15  C   UNL     1       3.862   5.916  17.127  0.00  0.00    +0.000 C 
BRANCH  15  16
ATOM     16  C   UNL     1       2.950   5.854  18.341  0.00  0.00    +0.000 A 
ATOM     17  C   UNL     1       2.791   7.028  19.107  0.00  0.00    +0.000 A 
ATOM     18  C   UNL     1       2.007   7.042  20.256  0.00  0.00    +0.000 A 
ATOM     19  C   UNL     1       1.359   5.882  20.665  0.00  0.00    +0.000 A 
ATOM     20  C   UNL     1       1.441   4.710  19.901  0.00  0.00    +0.000 A 
ATOM     21  C   UNL     1       0.729   3.572  20.311  0.00  0.00    +0.000 A 
ATOM     22  C   UNL     1       0.727   2.412  19.542  0.00  0.00    +0.000 A 
ATOM     23  C   UNL     1       1.445   2.376  18.355  0.00  0.00    +0.000 A 
ATOM     24  C   UNL     1       2.193   3.488  17.956  0.00  0.00    +0.000 A 
ATOM     25  C   UNL     1       2.220   4.683  18.712  0.00  0.00    +0.000 A 
ENDBRANCH  15  16
ENDBRANCH   3  15
TORSDOF 7
ENDMDL
MODEL 2
REMARK VINA RESULT:      -7.3      2.375      4.777
REMARK  Name = 
REMARK  7 active torsions:
REMARK  status: ('A' for Active; 'I' for Inactive)
REMARK    1  A    between atoms: C_2  and  C_3
REMARK    2  A    between atoms: C_3  and  C_4
REMARK    3  A    between atoms: C_4  and  N_5
REMARK    4  A    between atoms: C_7  and  C_8
REMARK    5  A    between atoms: C_8  and  C_9
REMARK    6  A    between atoms: C_19  and  C_20
REMARK    7  A    between atoms: C_22  and  N_23
REMARK                            x       y       z     vdW  Elec       q    Type
REMARK                         _______ _______ _______ _____ _____    ______ ____
ROOT
ATOM      1  N   UNL     1       4.837   4.436  18.681  0.00  0.00    +0.000 N 
ATOM      2  N   UNL     1       4.343   5.464  19.413  0.00  0.00    +0.000 NA
ATOM      3  C   UNL     1       3.042   5.155  19.586  0.00  0.00    +0.000 A 
ATOM      4  C   UNL     1       2.736   3.907  18.976  0.00  0.00    +0.000 A 
ATOM      5  C   UNL     1       3.917   3.442  18.439  0.00  0.00    +0.000 A 
ENDROOT
BRANCH   5   6
ATOM      6  N   UNL     1       4.217   2.285  17.791  0.00  0.00    +0.000 N 
ATOM      7  H   UNL     1       4.805   1.593  18.252  0.00  0.00    +0.000 HD
ATOM      8  H   UNL     1       4.332   2.247  16.783  0.00  0.00    +0.000 HD
ENDBRANCH   5   6
BRANCH   4   9
ATOM      9  C   UNL     1       1.490   3.218  18.955  0.00  0.00    +0.000 C 
ATOM     10  N   UNL     1       0.472   2.659  18.942  0.00  0.00    +0.000 NA
ENDBRANCH   4   9
BRANCH   1  11
ATOM     11  C   UNL     1       6.190   4.508  18.163  0.00  0.00    +0.000 C 
BRANCH  11  12
ATOM     12  C   UNL     1       7.066   5.580  18.780  0.00  0.00    +0.000 C 
BRANCH  12  14
ATOM     13  N   UNL     1       7.654   7.724  17.111  0.00  0.00    +0.000 NA
ATOM     14  C   UNL     1       7.388   6.751  17.867  0.00  0.00    +0.000 C 
ENDBRANCH  12  14
ENDBRANCH  11  12
ENDBRANCH   1  11
BRANCH   3  15
ATOM     15  C   UNL     1       2.141   6.000  20.450  0.00  0.00    +0.000 C 
BRANCH  15  16
ATOM     16  C   UNL     1       1.899   7.326  19.750  0.00  0.00    +0.000 A 
ATOM     17  C   UNL     1       2.292   7.440  18.399  0.00  0.00    +0.000 A 
ATOM     18  C   UNL     1       2.143   8.634  17.701  0.00  0.00    +0.000 A 
ATOM     19  C   UNL     1       1.593   9.742  18.335  0.00  0.00    +0.000 A 
ATOM     20  C   UNL     1       1.134   9.655  19.656  0.00  0.00    +0.000 A 
ATOM     21  C   UNL     1       0.532  10.777  20.249  0.00  0.00    +0.000 A 
ATOM     22  C   UNL     1       0.000  10.709  21.533  0.00  0.00    +0.000 A 
ATOM     23  C   UNL     1       0.071   9.519  22.242  0.00  0.00    +0.000 A 
ATOM     24  C   UNL     1       0.705   8.406  21.680  0.00  0.00    +0.000 A 
ATOM     25  C   UNL     1       1.259   8.437  20.379  0.00  0.00    +0.000 A 
ENDBRANCH  15  16
ENDBRANCH   3  15
TORSDOF 7
ENDMDL
MODEL 3
REMARK VINA RESULT:      -7.2      2.626      4.923
REMARK  Name = 
REMARK  7 active torsions:
REMARK  status: ('A' for Active; 'I' for Inactive)
REMARK    1  A    between atoms: C_2  and  C_3
REMARK    2  A    between atoms: C_3  and  C_4
REMARK    3  A    between atoms: C_4  and  N_5
REMARK    4  A    between atoms: C_7  and  C_8
REMARK    5  A    between atoms: C_8  and  C_9
REMARK    6  A    between atoms: C_19  and  C_20
REMARK    7  A    between atoms: C_22  and  N_23
REMARK                            x       y       z     vdW  Elec       q    Type
REMARK                         _______ _______ _______ _____ _____    ______ ____
ROOT
ATOM      1  N   UNL     1       5.163   4.771  18.714  0.00  0.00    +0.000 N 
ATOM      2  N   UNL     1       4.572   5.685  19.521  0.00  0.00    +0.000 NA
ATOM      3  C   UNL     1       3.260   5.374  19.472  0.00  0.00    +0.000 A 
ATOM      4  C   UNL     1       3.044   4.237  18.646  0.00  0.00    +0.000 A 
ATOM      5  C   UNL     1       4.288   3.840  18.205  0.00  0.00    +0.000 A 
ENDROOT
BRANCH   5   6
ATOM      6  N   UNL     1       4.676   2.789  17.434  0.00  0.00    +0.000 N 
ATOM      7  H   UNL     1       4.322   1.857  17.646  0.00  0.00    +0.000 HD
ATOM      8  H   UNL     1       5.599   2.741  17.016  0.00  0.00    +0.000 HD
ENDBRANCH   5   6
BRANCH   4   9
ATOM      9  C   UNL     1       1.815   3.579  18.357  0.00  0.00    +0.000 C 
ATOM     10  N   UNL     1       0.810   3.043  18.126  0.00  0.00    +0.000 NA
ENDBRANCH   4   9
BRANCH   1  11
ATOM     11  C   UNL     1       6.572   4.899  18.395  0.00  0.00    +0.000 C 
BRANCH  11  12
ATOM     12  C   UNL     1       6.917   5.995  17.407  0.00  0.00    +0.000 C 
BRANCH  12  14
ATOM     13  N   UNL     1       7.307   5.140  14.789  0.00  0.00    +0.000 NA
ATOM     14  C   UNL     1       7.131   5.528  15.976  0.00  0.00    +0.000 C 
ENDBRANCH  12  14
ENDBRANCH  11  12
ENDBRANCH   1  11
BRANCH   3  15
ATOM     15  C   UNL     1       2.249   6.093  20.328  0.00  0.00    +0.000 C 
BRANCH  15  16
ATOM     16  C   UNL     1       1.947   7.440  19.695  0.00  0.00    +0.000 A 
ATOM     17  C   UNL     1       2.298   7.627  18.341  0.00  0.00    +0.000 A 
ATOM     18  C   UNL     1       2.093   8.845  17.702  0.00  0.00    +0.000 A 
ATOM     19  C   UNL     1       1.527   9.905  18.399  0.00  0.00    +0.000 A 
ATOM     20  C   UNL     1       1.108   9.746  19.727  0.00  0.00    +0.000 A 
ATOM     21  C   UNL     1       0.488  10.820  20.386  0.00  0.00    +0.000 A 
ATOM     22  C   UNL     1      -0.006  10.678  21.679  0.00  0.00    +0.000 A 
ATOM     23  C   UNL     1       0.122   9.461  22.332  0.00  0.00    +0.000 A 
ATOM     24  C   UNL     1       0.774   8.395  21.703  0.00  0.00    +0.000 A 
ATOM     25  C   UNL     1       1.290   8.502  20.391  0.00  0.00    +0.000 A 
ENDBRANCH  15  16
ENDBRANCH   3  15
TORSDOF 7
ENDMDL
MODEL 4
REMARK VINA RESULT:      -7.0      3.507      5.137
REMARK  Name = 
REMARK  7 active torsions:
REMARK  status: ('A' for Active; 'I' for Inactive)
REMARK    1  A    between atoms: C_2  and  C_3
REMARK    2  A    between atoms: C_3  and  C_4
REMARK    3  A    between atoms: C_4  and  N_5
REMARK    4  A    between atoms: C_7  and  C_8
REMARK    5  A    between atoms: C_8  and  C_9
REMARK    6  A    between atoms: C_19  and  C_20
REMARK    7  A    between atoms: C_22  and  N_23
REMARK                            x       y       z     vdW  Elec       q    Type
REMARK                         _______ _______ _______ _____ _____    ______ ____
ROOT
ATOM      1  N   UNL     1       6.078   4.179  14.107  0.00  0.00    +0.000 N 
ATOM      2  N   UNL     1       5.114   3.484  14.758  0.00  0.00    +0.000 NA
ATOM      3  C   UNL     1       5.470   3.557  16.057  0.00  0.00    +0.000 A 
ATOM      4  C   UNL     1       6.654   4.329  16.210  0.00  0.00    +0.000 A 
ATOM      5  C   UNL     1       7.001   4.756  14.947  0.00  0.00    +0.000 A 
ENDROOT
BRANCH   5   6
ATOM      6  N   UNL     1       8.009   5.559  14.513  0.00  0.00    +0.000 N 
ATOM      7  H   UNL     1       8.888   5.139  14.214  0.00  0.00    +0.000 HD
ATOM      8  H   UNL     1       8.162   6.486  14.897  0.00  0.00    +0.000 HD
ENDBRANCH   5   6
BRANCH   4   9
ATOM      9  C   UNL     1       7.336   4.666  17.414  0.00  0.00    +0.000 C 
ATOM     10  N   UNL     1       7.890   4.939  18.398  0.00  0.00    +0.000 NA
ENDBRANCH   4   9
BRANCH   1  11
ATOM     11  C   UNL     1       6.109   4.177  12.656  0.00  0.00    +0.000 C 
BRANCH  11  12
ATOM     12  C   UNL     1       5.540   2.937  11.996  0.00  0.00    +0.000 C 
BRANCH  12  14
ATOM     13  N   UNL     1       3.249   3.357  10.477  0.00  0.00    +0.000 NA
ATOM     14  C   UNL     1       4.288   3.167  11.166  0.00  0.00    +0.000 C 
ENDBRANCH  12  14
ENDBRANCH  11  12
ENDBRANCH   1  11
BRANCH   3  15
ATOM     15  C   UNL     1       4.592   2.995  17.145  0.00  0.00    +0.000 C 
BRANCH  15  16
ATOM     16  C   UNL     1       3.837   4.138  17.801  0.00  0.00    +0.000 A 
ATOM     17  C   UNL     1       3.974   5.426  17.241  0.00  0.00    +0.000 A 
ATOM     18  C   UNL     1       3.348   6.532  17.808  0.00  0.00    +0.000 A 
ATOM     19  C   UNL     1       2.568   6.376  18.946  0.00  0.00    +0.000 A 
ATOM     20  C   UNL     1       2.356   5.107  19.500  0.00  0.00    +0.000 A 
ATOM     21  C   UNL     1       1.516   4.976  20.618  0.00  0.00    +0.000 A 
ATOM     22  C   UNL     1       1.225   3.725  21.153  0.00  0.00    +0.000 A 
ATOM     23  C   UNL     1       1.776   2.589  20.579  0.00  0.00    +0.000 A 
ATOM     24  C   UNL     1       2.648   2.708  19.492  0.00  0.00    +0.000 A 
ATOM     25  C   UNL     1       2.970   3.962  18.922  0.00  0.00    +0.000 A 
ENDBRANCH  15  16
ENDBRANCH   3  15
TORSDOF 7
ENDMDL
MODEL 5
REMARK VINA RESULT:      -6.9      2.567      6.102
REMARK  Name = 
REMARK  7 active torsions:
REMARK  status: ('A' for Active; 'I' for Inactive)
REMARK    1  A    between atoms: C_2  and  C_3
REMARK    2  A    between atoms: C_3  and  C_4
REMARK    3  A    between atoms: C_4  and  N_5
REMARK    4  A    between atoms: C_7  and  C_8
REMARK    5  A    between atoms: C_8  and  C_9
REMARK    6  A    between atoms: C_19  and  C_20
REMARK    7  A    between atoms: C_22  and  N_23
REMARK                            x       y       z     vdW  Elec       q    Type
REMARK                         _______ _______ _______ _____ _____    ______ ____
ROOT
ATOM      1  N   UNL     1       2.778   3.413  18.380  0.00  0.00    +0.000 N 
ATOM      2  N   UNL     1       2.322   4.653  18.076  0.00  0.00    +0.000 NA
ATOM      3  C   UNL     1       3.345   5.471  18.395  0.00  0.00    +0.000 A 
ATOM      4  C   UNL     1       4.455   4.724  18.876  0.00  0.00    +0.000 A 
ATOM      5  C   UNL     1       4.082   3.399  18.815  0.00  0.00    +0.000 A 
ENDROOT
BRANCH   5   6
ATOM      6  N   UNL     1       4.764   2.258  19.103  0.00  0.00    +0.000 N 
ATOM      7  H   UNL     1       5.543   1.979  18.508  0.00  0.00    +0.000 HD
ATOM      8  H   UNL     1       4.309   1.447  19.510  0.00  0.00    +0.000 HD
ENDBRANCH   5   6
BRANCH   4   9
ATOM      9  C   UNL     1       5.730   5.207  19.289  0.00  0.00    +0.000 C 
ATOM     10  N   UNL     1       6.768   5.604  19.624  0.00  0.00    +0.000 NA
ENDBRANCH   4   9
BRANCH   1  11
ATOM     11  C   UNL     1       1.874   2.280  18.317  0.00  0.00    +0.000 C 
BRANCH  11  12
ATOM     12  C   UNL     1       0.793   2.251  19.379  0.00  0.00    +0.000 C 
BRANCH  12  14
ATOM     13  N   UNL     1       1.666   2.794  21.962  0.00  0.00    +0.000 NA
ATOM     14  C   UNL     1       1.270   2.547  20.791  0.00  0.00    +0.000 C 
ENDBRANCH  12  14
ENDBRANCH  11  12
ENDBRANCH   1  11
BRANCH   3  15
ATOM     15  C   UNL     1       3.289   6.950  18.106  0.00  0.00    +0.000 C 
BRANCH  15  16
ATOM     16  C   UNL     1       2.372   7.609  19.122  0.00  0.00    +0.000 A 
ATOM     17  C   UNL     1       2.036   6.877  20.280  0.00  0.00    +0.000 A 
ATOM     18  C   UNL     1       1.169   7.395  21.237  0.00  0.00    +0.000 A 
ATOM     19  C   UNL     1       0.619   8.658  21.060  0.00  0.00    +0.000 A 
ATOM     20  C   UNL     1       0.972   9.444  19.955  0.00  0.00    +0.000 A 
ATOM     21  C   UNL     1       0.442  10.739  19.834  0.00  0.00    +0.000 A 
ATOM     22  C   UNL     1       0.824  11.575  18.790  0.00  0.00    +0.000 A 
ATOM     23  C   UNL     1       1.736  11.122  17.847  0.00  0.00    +0.000 A 
ATOM     24  C   UNL     1       2.240   9.819  17.931  0.00  0.00    +0.000 A 
ATOM     25  C   UNL     1       1.874   8.940  18.977  0.00  0.00    +0.000 A 
ENDBRANCH  15  16
ENDBRANCH   3  15
TORSDOF 7
ENDMDL
MODEL 6
REMARK VINA RESULT:      -6.9      2.052      3.586
REMARK  Name = 
REMARK  7 active torsions:
REMARK  status: ('A' for Active; 'I' for Inactive)
REMARK    1  A    between atoms: C_2  and  C_3
REMARK    2  A    between atoms: C_3  and  C_4
REMARK    3  A    between atoms: C_4  and  N_5
REMARK    4  A    between atoms: C_7  and  C_8
REMARK    5  A    between atoms: C_8  and  C_9
REMARK    6  A    between atoms: C_19  and  C_20
REMARK    7  A    between atoms: C_22  and  N_23
REMARK                            x       y       z     vdW  Elec       q    Type
REMARK                         _______ _______ _______ _____ _____    ______ ____
ROOT
ATOM      1  N   UNL     1       6.762   4.464  17.574  0.00  0.00    +0.000 N 
ATOM      2  N   UNL     1       5.522   4.157  18.027  0.00  0.00    +0.000 NA
ATOM      3  C   UNL     1       4.778   4.040  16.909  0.00  0.00    +0.000 A 
ATOM      4  C   UNL     1       5.575   4.252  15.750  0.00  0.00    +0.000 A 
ATOM      5  C   UNL     1       6.858   4.478  16.203  0.00  0.00    +0.000 A 
ENDROOT
BRANCH   5   6
ATOM      6  N   UNL     1       8.024   4.688  15.535  0.00  0.00    +0.000 N 
ATOM      7  H   UNL     1       8.905   4.647  16.045  0.00  0.00    +0.000 HD
ATOM      8  H   UNL     1       8.087   5.329  14.750  0.00  0.00    +0.000 HD
ENDBRANCH   5   6
BRANCH   4   9
ATOM      9  C   UNL     1       5.179   4.190  14.384  0.00  0.00    +0.000 C 
ATOM     10  N   UNL     1       4.858   4.137  13.269  0.00  0.00    +0.000 NA
ENDBRANCH   4   9
BRANCH   1  11
ATOM     11  C   UNL     1       7.803   4.825  18.519  0.00  0.00    +0.000 C 
BRANCH  11  12
ATOM     12  C   UNL     1       7.726   6.239  19.060  0.00  0.00    +0.000 C 
BRANCH  12  14
ATOM     13  N   UNL     1       7.714   8.240  17.129  0.00  0.00    +0.000 NA
ATOM     14  C   UNL     1       7.719   7.333  18.005  0.00  0.00    +0.000 C 
ENDBRANCH  12  14
ENDBRANCH  11  12
ENDBRANCH   1  11
BRANCH   3  15
ATOM     15  C   UNL     1       3.339   3.595  16.965  0.00  0.00    +0.000 C 
BRANCH  15  16
ATOM     16  C   UNL     1       2.809   3.838  18.367  0.00  0.00    +0.000 A 
ATOM     17  C   UNL     1       2.654   2.721  19.216  0.00  0.00    +0.000 A 
ATOM     18  C   UNL     1       2.135   2.854  20.500  0.00  0.00    +0.000 A 
ATOM     19  C   UNL     1       1.761   4.108  20.967  0.00  0.00    +0.000 A 
ATOM     20  C   UNL     1       1.954   5.252  20.180  0.00  0.00    +0.000 A 
ATOM     21  C   UNL     1       1.618   6.511  20.704  0.00  0.00    +0.000 A 
ATOM     22  C   UNL     1       1.861   7.675  19.982  0.00  0.00    +0.000 A 
ATOM     23  C   UNL     1       2.436   7.593  18.722  0.00  0.00    +0.000 A 
ATOM     24  C   UNL     1       2.737   6.343  18.171  0.00  0.00    +0.000 A 
ATOM     25  C   UNL     1       2.503   5.138  18.874  0.00  0.00    +0.000 A 
ENDBRANCH  15  16
ENDBRANCH   3  15
TORSDOF 7
ENDMDL
MODEL 7
REMARK VINA RESULT:      -6.9      1.509      3.096
REMARK  Name = 
REMARK  7 active torsions:
REMARK  status: ('A' for Active; 'I' for Inactive)
REMARK    1  A    between atoms: C_2  and  C_3
REMARK    2  A    between atoms: C_3  and  C_4
REMARK    3  A    between atoms: C_4  and  N_5
REMARK    4  A    between atoms: C_7  and  C_8
REMARK    5  A    between atoms: C_8  and  C_9
REMARK    6  A    between atoms: C_19  and  C_20
REMARK    7  A    between atoms: C_22  and  N_23
REMARK                            x       y       z     vdW  Elec       q    Type
REMARK                         _______ _______ _______ _____ _____    ______ ____
ROOT
ATOM      1  N   UNL     1       6.976   6.772  18.192  0.00  0.00    +0.000 N 
ATOM      2  N   UNL     1       5.782   7.029  17.607  0.00  0.00    +0.000 NA
ATOM      3  C   UNL     1       5.014   5.971  17.938  0.00  0.00    +0.000 A 
ATOM      4  C   UNL     1       5.737   5.063  18.761  0.00  0.00    +0.000 A 
ATOM      5  C   UNL     1       6.982   5.623  18.947  0.00  0.00    +0.000 A 
ENDROOT
BRANCH   5   6
ATOM      6  N   UNL     1       8.051   5.214  19.682  0.00  0.00    +0.000 N 
ATOM      7  H   UNL     1       8.748   5.899  19.973  0.00  0.00    +0.000 HD
ATOM      8  H   UNL     1       8.471   4.298  19.558  0.00  0.00    +0.000 HD
ENDBRANCH   5   6
BRANCH   4   9
ATOM      9  C   UNL     1       5.281   3.846  19.342  0.00  0.00    +0.000 C 
ATOM     10  N   UNL     1       4.912   2.851  19.815  0.00  0.00    +0.000 NA
ENDBRANCH   4   9
BRANCH   1  11
ATOM     11  C   UNL     1       8.113   7.630  17.913  0.00  0.00    +0.000 C 
BRANCH  11  12
ATOM     12  C   UNL     1       7.792   9.104  17.766  0.00  0.00    +0.000 C 
BRANCH  12  14
ATOM     13  N   UNL     1       9.647  10.831  18.910  0.00  0.00    +0.000 NA
ATOM     14  C   UNL     1       8.806  10.048  18.391  0.00  0.00    +0.000 C 
ENDBRANCH  12  14
ENDBRANCH  11  12
ENDBRANCH   1  11
BRANCH   3  15
ATOM     15  C   UNL     1       3.554   5.913  17.569  0.00  0.00    +0.000 C 
BRANCH  15  16
ATOM     16  C   UNL     1       2.738   6.473  18.722  0.00  0.00    +0.000 A 
ATOM     17  C   UNL     1       2.507   5.637  19.835  0.00  0.00    +0.000 A 
ATOM     18  C   UNL     1       1.735   6.061  20.911  0.00  0.00    +0.000 A 
ATOM     19  C   UNL     1       1.177   7.334  20.902  0.00  0.00    +0.000 A 
ATOM     20  C   UNL     1       1.430   8.218  19.845  0.00  0.00    +0.000 A 
ATOM     21  C   UNL     1       0.898   9.517  19.894  0.00  0.00    +0.000 A 
ATOM     22  C   UNL     1       1.185  10.447  18.899  0.00  0.00    +0.000 A 
ATOM     23  C   UNL     1       2.004  10.085  17.839  0.00  0.00    +0.000 A 
ATOM     24  C   UNL     1       2.507   8.783  17.757  0.00  0.00    +0.000 A 
ATOM     25  C   UNL     1       2.235   7.810  18.747  0.00  0.00    +0.000 A 
ENDBRANCH  15  16
ENDBRANCH   3  15
TORSDOF 7
ENDMDL
MODEL 8
REMARK VINA RESULT:      -6.9      2.595      4.808
REMARK  Name = 
REMARK  7 active torsions:
REMARK  status: ('A' for Active; 'I' for Inactive)
REMARK    1  A    between atoms: C_2  and  C_3
REMARK    2  A    between atoms: C_3  and  C_4
REMARK    3  A    between atoms: C_4  and  N_5
REMARK    4  A    between atoms: C_7  and  C_8
REMARK    5  A    between atoms: C_8  and  C_9
REMARK    6  A    between atoms: C_19  and  C_20
REMARK    7  A    between atoms: C_22  and  N_23
REMARK                            x       y       z     vdW  Elec       q    Type
REMARK                         _______ _______ _______ _____ _____    ______ ____
ROOT
ATOM      1  N   UNL     1       4.961   5.809  17.566  0.00  0.00    +0.000 N 
ATOM      2  N   UNL     1       4.446   6.596  18.541  0.00  0.00    +0.000 NA
ATOM      3  C   UNL     1       3.233   6.063  18.793  0.00  0.00    +0.000 A 
ATOM      4  C   UNL     1       3.009   4.917  17.981  0.00  0.00    +0.000 A 
ATOM      5  C   UNL     1       4.154   4.747  17.232  0.00  0.00    +0.000 A 
ENDROOT
BRANCH   5   6
ATOM      6  N   UNL     1       4.507   3.790  16.333  0.00  0.00    +0.000 N 
ATOM      7  H   UNL     1       4.991   2.954  16.659  0.00  0.00    +0.000 HD
ATOM      8  H   UNL     1       4.775   4.018  15.382  0.00  0.00    +0.000 HD
ENDBRANCH   5   6
BRANCH   4   9
ATOM      9  C   UNL     1       1.873   4.060  17.961  0.00  0.00    +0.000 C 
ATOM     10  N   UNL     1       0.944   3.362  17.949  0.00  0.00    +0.000 NA
ENDBRANCH   4   9
BRANCH   1  11
ATOM     11  C   UNL     1       6.208   6.183  16.925  0.00  0.00    +0.000 C 
BRANCH  11  12
ATOM     12  C   UNL     1       7.434   5.431  17.399  0.00  0.00    +0.000 C 
BRANCH  12  14
ATOM     13  N   UNL     1       7.834   5.448  20.151  0.00  0.00    +0.000 NA
ATOM     14  C   UNL     1       7.653   5.440  18.903  0.00  0.00    +0.000 C 
ENDBRANCH  12  14
ENDBRANCH  11  12
ENDBRANCH   1  11
BRANCH   3  15
ATOM     15  C   UNL     1       2.360   6.585  19.906  0.00  0.00    +0.000 C 
BRANCH  15  16
ATOM     16  C   UNL     1       1.854   7.964  19.521  0.00  0.00    +0.000 A 
ATOM     17  C   UNL     1       2.060   8.396  18.193  0.00  0.00    +0.000 A 
ATOM     18  C   UNL     1       1.663   9.662  17.775  0.00  0.00    +0.000 A 
ATOM     19  C   UNL     1       1.047  10.525  18.672  0.00  0.00    +0.000 A 
ATOM     20  C   UNL     1       0.769  10.115  19.983  0.00  0.00    +0.000 A 
ATOM     21  C   UNL     1       0.094  10.992  20.848  0.00  0.00    +0.000 A 
ATOM     22  C   UNL     1      -0.264  10.596  22.133  0.00  0.00    +0.000 A 
ATOM     23  C   UNL     1       0.056   9.319  22.571  0.00  0.00    +0.000 A 
ATOM     24  C   UNL     1       0.765   8.450  21.734  0.00  0.00    +0.000 A 
ATOM     25  C   UNL     1       1.147   8.817  20.423  0.00  0.00    +0.000 A 
ENDBRANCH  15  16
ENDBRANCH   3  15
TORSDOF 7
ENDMDL
MODEL 9
REMARK VINA RESULT:      -6.8      3.063      5.099
REMARK  Name = 
REMARK  7 active torsions:
REMARK  status: ('A' for Active; 'I' for Inactive)
REMARK    1  A    between atoms: C_2  and  C_3
REMARK    2  A    between atoms: C_3  and  C_4
REMARK    3  A    between atoms: C_4  and  N_5
REMARK    4  A    between atoms: C_7  and  C_8
REMARK    5  A    between atoms: C_8  and  C_9
REMARK    6  A    between atoms: C_19  and  C_20
REMARK    7  A    between atoms: C_22  and  N_23
REMARK                            x       y       z     vdW  Elec       q    Type
REMARK                         _______ _______ _______ _____ _____    ______ ____
ROOT
ATOM      1  N   UNL     1       4.726   4.388  19.034  0.00  0.00    +0.000 N 
ATOM      2  N   UNL     1       4.028   5.522  19.288  0.00  0.00    +0.000 NA
ATOM      3  C   UNL     1       3.043   5.127  20.120  0.00  0.00    +0.000 A 
ATOM      4  C   UNL     1       3.151   3.738  20.404  0.00  0.00    +0.000 A 
ATOM      5  C   UNL     1       4.268   3.294  19.730  0.00  0.00    +0.000 A 
ENDROOT
BRANCH   5   6
ATOM      6  N   UNL     1       4.865   2.073  19.685  0.00  0.00    +0.000 N 
ATOM      7  H   UNL     1       4.599   1.362  20.365  0.00  0.00    +0.000 HD
ATOM      8  H   UNL     1       5.831   1.957  19.396  0.00  0.00    +0.000 HD
ENDBRANCH   5   6
BRANCH   4   9
ATOM      9  C   UNL     1       2.328   2.946  21.255  0.00  0.00    +0.000 C 
ATOM     10  N   UNL     1       1.656   2.304  21.951  0.00  0.00    +0.000 NA
ENDBRANCH   4   9
BRANCH   1  11
ATOM     11  C   UNL     1       5.778   4.400  18.035  0.00  0.00    +0.000 C 
BRANCH  11  12
ATOM     12  C   UNL     1       5.510   5.267  16.821  0.00  0.00    +0.000 C 
BRANCH  12  14
ATOM     13  N   UNL     1       7.531   5.273  14.910  0.00  0.00    +0.000 NA
ATOM     14  C   UNL     1       6.615   5.271  15.777  0.00  0.00    +0.000 C 
ENDBRANCH  12  14
ENDBRANCH  11  12
ENDBRANCH   1  11
BRANCH   3  15
ATOM     15  C   UNL     1       2.090   6.120  20.736  0.00  0.00    +0.000 C 
BRANCH  15  16
ATOM     16  C   UNL     1       1.956   7.310  19.802  0.00  0.00    +0.000 A 
ATOM     17  C   UNL     1       2.445   7.174  18.485  0.00  0.00    +0.000 A 
ATOM     18  C   UNL     1       2.397   8.231  17.583  0.00  0.00    +0.000 A 
ATOM     19  C   UNL     1       1.856   9.450  17.974  0.00  0.00    +0.000 A 
ATOM     20  C   UNL     1       1.305   9.610  19.252  0.00  0.00    +0.000 A 
ATOM     21  C   UNL     1       0.715  10.838  19.597  0.00  0.00    +0.000 A 
ATOM     22  C   UNL     1       0.094  11.012  20.830  0.00  0.00    +0.000 A 
ATOM     23  C   UNL     1       0.062   9.963  21.736  0.00  0.00    +0.000 A 
ATOM     24  C   UNL     1       0.683   8.749  21.423  0.00  0.00    +0.000 A 
ATOM     25  C   UNL     1       1.325   8.534  20.181  0.00  0.00    +0.000 A 
ENDBRANCH  15  16
ENDBRANCH   3  15
TORSDOF 7
ENDMDL
