MODEL 1
REMARK VINA RESULT:      -6.5      0.000      0.000
REMARK  Name = 
REMARK  9 active torsions:
REMARK  status: ('A' for Active; 'I' for Inactive)
REMARK    1  A    between atoms: C_1  and  C_2
REMARK    2  A    between atoms: C_2  and  C_3
REMARK    3  A    between atoms: C_2  and  C_4
REMARK    4  A    between atoms: C_12  and  C_13
REMARK    5  A    between atoms: N_15  and  C_16
REMARK    6  A    between atoms: C_16  and  C_17
REMARK    7  A    between atoms: C_17  and  N_18
REMARK    8  A    between atoms: N_18  and  C_19
REMARK    9  A    between atoms: N_18  and  C_20
REMARK                            x       y       z     vdW  Elec       q    Type
REMARK                         _______ _______ _______ _____ _____    ______ ____
ROOT
ATOM      1  C   UNL     1       2.954   2.877  19.328  0.00  0.00    +0.000 C 
ATOM      2  O   UNL     1       3.571   1.810  19.411  0.00  0.00    +0.000 OA
ATOM      3  N   UNL     1       3.011   3.650  18.189  0.00  0.00    +0.000 N 
ATOM      4  C   UNL     1       3.859   3.212  17.055  0.00  0.00    +0.000 C 
ATOM      5  C   UNL     1       5.120   4.104  16.929  0.00  0.00    +0.000 C 
ATOM      6  C   UNL     1       4.663   5.504  17.092  0.00  0.00    +0.000 A 
ATOM      7  O   UNL     1       5.421   6.574  16.773  0.00  0.00    +0.000 OA
ATOM      8  N   UNL     1       4.704   7.738  17.092  0.00  0.00    +0.000 NA
ATOM      9  C   UNL     1       3.532   7.318  17.618  0.00  0.00    +0.000 A 
ATOM     10  C   UNL     1       3.463   5.909  17.610  0.00  0.00    +0.000 A 
ATOM     11  C   UNL     1       2.405   4.987  18.050  0.00  0.00    +0.000 C 
ENDROOT
BRANCH   9  12
ATOM     12  C   UNL     1       2.483   8.199  18.125  0.00  0.00    +0.000 C 
ATOM     13  O   UNL     1       1.960   9.061  17.428  0.00  0.00    +0.000 OA
ATOM     14  N   UNL     1       2.118   7.993  19.439  0.00  0.00    +0.000 N 
ATOM     15  H   UNL     1       2.679   7.368  20.009  0.00  0.00    +0.000 HD
BRANCH  14  16
ATOM     16  C   UNL     1       1.118   8.830  20.061  0.00  0.00    +0.000 C 
BRANCH  16  17
ATOM     17  C   UNL     1       1.176   8.796  21.596  0.00  0.00    +0.000 C 
BRANCH  17  18
ATOM     18  N   UNL     1       0.759  10.048  22.262  0.00  0.00    +0.000 NA
ATOM     19  C   UNL     1       0.297  11.054  21.301  0.00  0.00    +0.000 C 
ATOM     20  C   UNL     1      -0.323   9.755  23.210  0.00  0.00    +0.000 C 
ENDBRANCH  17  18
ENDBRANCH  16  17
ENDBRANCH  14  16
ENDBRANCH   9  12
BRANCH   1  22
ATOM     21  C   UNL     1       0.623   3.237  20.238  0.00  0.00    +0.000 C 
ATOM     22  C   UNL     1       2.124   3.318  20.528  0.00  0.00    +0.000 C 
ATOM     23  C   UNL     1       2.627   2.654  21.811  0.00  0.00    +0.000 C 
ENDBRANCH   1  22
TORSDOF 5
ENDMDL
MODEL 2
REMARK VINA RESULT:      -6.5      0.692      1.079
REMARK  Name = 
REMARK  9 active torsions:
REMARK  status: ('A' for Active; 'I' for Inactive)
REMARK    1  A    between atoms: C_1  and  C_2
REMARK    2  A    between atoms: C_2  and  C_3
REMARK    3  A    between atoms: C_2  and  C_4
REMARK    4  A    between atoms: C_12  and  C_13
REMARK    5  A    between atoms: N_15  and  C_16
REMARK    6  A    between atoms: C_16  and  C_17
REMARK    7  A    between atoms: C_17  and  N_18
REMARK    8  A    between atoms: N_18  and  C_19
REMARK    9  A    between atoms: N_18  and  C_20
REMARK                            x       y       z     vdW  Elec       q    Type
REMARK                         _______ _______ _______ _____ _____    ______ ____
ROOT
ATOM      1  C   UNL     1       2.325   2.925  19.475  0.00  0.00    +0.000 C 
ATOM      2  O   UNL     1       2.798   1.791  19.601  0.00  0.00    +0.000 OA
ATOM      3  N   UNL     1       2.476   3.637  18.307  0.00  0.00    +0.000 N 
ATOM      4  C   UNL     1       3.254   3.048  17.191  0.00  0.00    +0.000 C 
ATOM      5  C   UNL     1       4.620   3.764  17.030  0.00  0.00    +0.000 C 
ATOM      6  C   UNL     1       4.349   5.216  17.137  0.00  0.00    +0.000 A 
ATOM      7  O   UNL     1       5.237   6.166  16.776  0.00  0.00    +0.000 OA
ATOM      8  N   UNL     1       4.679   7.425  17.048  0.00  0.00    +0.000 NA
ATOM      9  C   UNL     1       3.466   7.181  17.589  0.00  0.00    +0.000 A 
ATOM     10  C   UNL     1       3.214   5.794  17.638  0.00  0.00    +0.000 A 
ATOM     11  C   UNL     1       2.048   5.035  18.114  0.00  0.00    +0.000 C 
ENDROOT
BRANCH   9  12
ATOM     12  C   UNL     1       2.542   8.211  18.061  0.00  0.00    +0.000 C 
ATOM     13  O   UNL     1       2.180   9.139  17.348  0.00  0.00    +0.000 OA
ATOM     14  N   UNL     1       2.102   8.064  19.360  0.00  0.00    +0.000 N 
ATOM     15  H   UNL     1       2.540   7.363  19.947  0.00  0.00    +0.000 HD
BRANCH  14  16
ATOM     16  C   UNL     1       1.215   9.042  19.947  0.00  0.00    +0.000 C 
BRANCH  16  17
ATOM     17  C   UNL     1       0.649   8.600  21.305  0.00  0.00    +0.000 C 
BRANCH  17  18
ATOM     18  N   UNL     1      -0.391   9.490  21.864  0.00  0.00    +0.000 NA
ATOM     19  C   UNL     1      -0.232   9.679  23.310  0.00  0.00    +0.000 C 
ATOM     20  C   UNL     1      -0.322  10.796  21.198  0.00  0.00    +0.000 C 
ENDBRANCH  17  18
ENDBRANCH  16  17
ENDBRANCH  14  16
ENDBRANCH   9  12
BRANCH   1  22
ATOM     21  C   UNL     1       1.286   2.465  21.734  0.00  0.00    +0.000 C 
ATOM     22  C   UNL     1       1.565   3.517  20.656  0.00  0.00    +0.000 C 
ATOM     23  C   UNL     1       2.201   4.832  21.109  0.00  0.00    +0.000 C 
ENDBRANCH   1  22
TORSDOF 5
ENDMDL
MODEL 3
REMARK VINA RESULT:      -6.4      4.269      5.820
REMARK  Name = 
REMARK  9 active torsions:
REMARK  status: ('A' for Active; 'I' for Inactive)
REMARK    1  A    between atoms: C_1  and  C_2
REMARK    2  A    between atoms: C_2  and  C_3
REMARK    3  A    between atoms: C_2  and  C_4
REMARK    4  A    between atoms: C_12  and  C_13
REMARK    5  A    between atoms: N_15  and  C_16
REMARK    6  A    between atoms: C_16  and  C_17
REMARK    7  A    between atoms: C_17  and  N_18
REMARK    8  A    between atoms: N_18  and  C_19
REMARK    9  A    between atoms: N_18  and  C_20
REMARK                            x       y       z     vdW  Elec       q    Type
REMARK                         _______ _______ _______ _____ _____    ______ ____
ROOT
ATOM      1  C   UNL     1       2.478   6.215  18.820  0.00  0.00    +0.000 C 
ATOM      2  O   UNL     1       1.604   5.464  19.266  0.00  0.00    +0.000 OA
ATOM      3  N   UNL     1       3.533   5.728  18.082  0.00  0.00    +0.000 N 
ATOM      4  C   UNL     1       3.644   4.268  17.849  0.00  0.00    +0.000 C 
ATOM      5  C   UNL     1       4.803   3.662  18.681  0.00  0.00    +0.000 C 
ATOM      6  C   UNL     1       5.952   4.585  18.537  0.00  0.00    +0.000 A 
ATOM      7  O   UNL     1       7.215   4.258  18.887  0.00  0.00    +0.000 OA
ATOM      8  N   UNL     1       8.041   5.371  18.662  0.00  0.00    +0.000 NA
ATOM      9  C   UNL     1       7.228   6.345  18.197  0.00  0.00    +0.000 A 
ATOM     10  C   UNL     1       5.904   5.874  18.083  0.00  0.00    +0.000 A 
ATOM     11  C   UNL     1       4.676   6.534  17.616  0.00  0.00    +0.000 C 
ENDROOT
BRANCH   9  12
ATOM     12  C   UNL     1       7.661   7.701  17.862  0.00  0.00    +0.000 C 
ATOM     13  O   UNL     1       7.293   8.269  16.840  0.00  0.00    +0.000 OA
ATOM     14  N   UNL     1       8.506   8.298  18.774  0.00  0.00    +0.000 N 
ATOM     15  H   UNL     1       8.890   7.734  19.524  0.00  0.00    +0.000 HD
BRANCH  14  16
ATOM     16  C   UNL     1       9.028   9.622  18.530  0.00  0.00    +0.000 C 
BRANCH  16  17
ATOM     17  C   UNL     1       9.315  10.402  19.822  0.00  0.00    +0.000 C 
BRANCH  17  18
ATOM     18  N   UNL     1      10.179  11.590  19.653  0.00  0.00    +0.000 NA
ATOM     19  C   UNL     1       9.615  12.549  18.699  0.00  0.00    +0.000 C 
ATOM     20  C   UNL     1      10.354  12.251  20.952  0.00  0.00    +0.000 C 
ENDBRANCH  17  18
ENDBRANCH  16  17
ENDBRANCH  14  16
ENDBRANCH   9  12
BRANCH   1  22
ATOM     21  C   UNL     1       1.831   8.480  17.899  0.00  0.00    +0.000 C 
ATOM     22  C   UNL     1       2.354   7.707  19.113  0.00  0.00    +0.000 C 
ATOM     23  C   UNL     1       1.650   7.943  20.450  0.00  0.00    +0.000 C 
ENDBRANCH   1  22
TORSDOF 5
ENDMDL
MODEL 4
REMARK VINA RESULT:      -6.3      2.063      4.028
REMARK  Name = 
REMARK  9 active torsions:
REMARK  status: ('A' for Active; 'I' for Inactive)
REMARK    1  A    between atoms: C_1  and  C_2
REMARK    2  A    between atoms: C_2  and  C_3
REMARK    3  A    between atoms: C_2  and  C_4
REMARK    4  A    between atoms: C_12  and  C_13
REMARK    5  A    between atoms: N_15  and  C_16
REMARK    6  A    between atoms: C_16  and  C_17
REMARK    7  A    between atoms: C_17  and  N_18
REMARK    8  A    between atoms: N_18  and  C_19
REMARK    9  A    between atoms: N_18  and  C_20
REMARK                            x       y       z     vdW  Elec       q    Type
REMARK                         _______ _______ _______ _____ _____    ______ ____
ROOT
ATOM      1  C   UNL     1       5.604   4.729  17.456  0.00  0.00    +0.000 C 
ATOM      2  O   UNL     1       6.064   3.769  16.830  0.00  0.00    +0.000 OA
ATOM      3  N   UNL     1       5.034   4.567  18.699  0.00  0.00    +0.000 N 
ATOM      4  C   UNL     1       4.938   3.208  19.282  0.00  0.00    +0.000 C 
ATOM      5  C   UNL     1       3.472   2.704  19.273  0.00  0.00    +0.000 C 
ATOM      6  C   UNL     1       2.635   3.835  19.737  0.00  0.00    +0.000 A 
ATOM      7  O   UNL     1       1.349   3.698  20.122  0.00  0.00    +0.000 OA
ATOM      8  N   UNL     1       0.847   4.966  20.456  0.00  0.00    +0.000 NA
ATOM      9  C   UNL     1       1.859   5.833  20.236  0.00  0.00    +0.000 A 
ATOM     10  C   UNL     1       3.014   5.149  19.804  0.00  0.00    +0.000 A 
ATOM     11  C   UNL     1       4.358   5.634  19.459  0.00  0.00    +0.000 C 
ENDROOT
BRANCH   9  12
ATOM     12  C   UNL     1       1.770   7.281  20.419  0.00  0.00    +0.000 C 
ATOM     13  O   UNL     1       2.015   8.069  19.513  0.00  0.00    +0.000 OA
ATOM     14  N   UNL     1       1.386   7.698  21.676  0.00  0.00    +0.000 N 
ATOM     15  H   UNL     1       1.335   7.014  22.422  0.00  0.00    +0.000 HD
BRANCH  14  16
ATOM     16  C   UNL     1       1.300   9.107  21.985  0.00  0.00    +0.000 C 
BRANCH  16  17
ATOM     17  C   UNL     1      -0.114   9.548  22.389  0.00  0.00    +0.000 C 
BRANCH  17  18
ATOM     18  N   UNL     1      -0.567  10.819  21.784  0.00  0.00    +0.000 NA
ATOM     19  C   UNL     1      -1.022  11.777  22.796  0.00  0.00    +0.000 C 
ATOM     20  C   UNL     1       0.537  11.414  21.021  0.00  0.00    +0.000 C 
ENDBRANCH  17  18
ENDBRANCH  16  17
ENDBRANCH  14  16
ENDBRANCH   9  12
BRANCH   1  22
ATOM     21  C   UNL     1       6.981   6.831  17.175  0.00  0.00    +0.000 C 
ATOM     22  C   UNL     1       5.683   6.108  16.808  0.00  0.00    +0.000 C 
ATOM     23  C   UNL     1       5.317   6.034  15.324  0.00  0.00    +0.000 C 
ENDBRANCH   1  22
TORSDOF 5
ENDMDL
MODEL 5
REMARK VINA RESULT:      -6.2      2.666      6.361
REMARK  Name = 
REMARK  9 active torsions:
REMARK  status: ('A' for Active; 'I' for Inactive)
REMARK    1  A    between atoms: C_1  and  C_2
REMARK    2  A    between atoms: C_2  and  C_3
REMARK    3  A    between atoms: C_2  and  C_4
REMARK    4  A    between atoms: C_12  and  C_13
REMARK    5  A    between atoms: N_15  and  C_16
REMARK    6  A    between atoms: C_16  and  C_17
REMARK    7  A    between atoms: C_17  and  N_18
REMARK    8  A    between atoms: N_18  and  C_19
REMARK    9  A    between atoms: N_18  and  C_20
REMARK                            x       y       z     vdW  Elec       q    Type
REMARK                         _______ _______ _______ _____ _____    ______ ____
ROOT
ATOM      1  C   UNL     1       2.396   2.790  19.928  0.00  0.00    +0.000 C 
ATOM      2  O   UNL     1       1.427   2.411  20.594  0.00  0.00    +0.000 OA
ATOM      3  N   UNL     1       2.958   4.032  20.125  0.00  0.00    +0.000 N 
ATOM      4  C   UNL     1       2.366   4.947  21.129  0.00  0.00    +0.000 C 
ATOM      5  C   UNL     1       1.625   6.121  20.439  0.00  0.00    +0.000 C 
ATOM      6  C   UNL     1       2.508   6.594  19.349  0.00  0.00    +0.000 A 
ATOM      7  O   UNL     1       2.333   7.768  18.708  0.00  0.00    +0.000 OA
ATOM      8  N   UNL     1       3.313   7.881  17.709  0.00  0.00    +0.000 NA
ATOM      9  C   UNL     1       4.039   6.744  17.775  0.00  0.00    +0.000 A 
ATOM     10  C   UNL     1       3.573   5.918  18.818  0.00  0.00    +0.000 A 
ATOM     11  C   UNL     1       4.035   4.607  19.298  0.00  0.00    +0.000 C 
ENDROOT
BRANCH   9  12
ATOM     12  C   UNL     1       5.153   6.415  16.887  0.00  0.00    +0.000 C 
ATOM     13  O   UNL     1       6.164   7.106  16.825  0.00  0.00    +0.000 OA
ATOM     14  N   UNL     1       4.992   5.274  16.130  0.00  0.00    +0.000 N 
ATOM     15  H   UNL     1       4.084   4.823  16.115  0.00  0.00    +0.000 HD
BRANCH  14  16
ATOM     16  C   UNL     1       6.011   4.870  15.189  0.00  0.00    +0.000 C 
BRANCH  16  17
ATOM     17  C   UNL     1       5.438   4.168  13.948  0.00  0.00    +0.000 C 
BRANCH  17  18
ATOM     18  N   UNL     1       6.450   3.600  13.032  0.00  0.00    +0.000 NA
ATOM     19  C   UNL     1       5.834   2.897  11.902  0.00  0.00    +0.000 C 
ATOM     20  C   UNL     1       7.302   4.680  12.519  0.00  0.00    +0.000 C 
ENDBRANCH  17  18
ENDBRANCH  16  17
ENDBRANCH  14  16
ENDBRANCH   9  12
BRANCH   1  22
ATOM     21  C   UNL     1       2.673   2.340  17.455  0.00  0.00    +0.000 C 
ATOM     22  C   UNL     1       2.954   1.839  18.875  0.00  0.00    +0.000 C 
ATOM     23  C   UNL     1       4.395   1.445  19.206  0.00  0.00    +0.000 C 
ENDBRANCH   1  22
TORSDOF 5
ENDMDL
MODEL 6
REMARK VINA RESULT:      -6.1      2.079      2.410
REMARK  Name = 
REMARK  9 active torsions:
REMARK  status: ('A' for Active; 'I' for Inactive)
REMARK    1  A    between atoms: C_1  and  C_2
REMARK    2  A    between atoms: C_2  and  C_3
REMARK    3  A    between atoms: C_2  and  C_4
REMARK    4  A    between atoms: C_12  and  C_13
REMARK    5  A    between atoms: N_15  and  C_16
REMARK    6  A    between atoms: C_16  and  C_17
REMARK    7  A    between atoms: C_17  and  N_18
REMARK    8  A    between atoms: N_18  and  C_19
REMARK    9  A    between atoms: N_18  and  C_20
REMARK                            x       y       z     vdW  Elec       q    Type
REMARK                         _______ _______ _______ _____ _____    ______ ____
ROOT
ATOM      1  C   UNL     1       2.228   2.900  19.522  0.00  0.00    +0.000 C 
ATOM      2  O   UNL     1       2.732   1.772  19.505  0.00  0.00    +0.000 OA
ATOM      3  N   UNL     1       2.256   3.713  18.412  0.00  0.00    +0.000 N 
ATOM      4  C   UNL     1       2.938   3.242  17.182  0.00  0.00    +0.000 C 
ATOM      5  C   UNL     1       4.269   4.005  16.961  0.00  0.00    +0.000 C 
ATOM      6  C   UNL     1       3.982   5.435  17.218  0.00  0.00    +0.000 A 
ATOM      7  O   UNL     1       4.815   6.435  16.861  0.00  0.00    +0.000 OA
ATOM      8  N   UNL     1       4.261   7.651  17.292  0.00  0.00    +0.000 NA
ATOM      9  C   UNL     1       3.109   7.330  17.919  0.00  0.00    +0.000 A 
ATOM     10  C   UNL     1       2.888   5.938  17.869  0.00  0.00    +0.000 A 
ATOM     11  C   UNL     1       1.786   5.110  18.381  0.00  0.00    +0.000 C 
ENDROOT
BRANCH   9  12
ATOM     12  C   UNL     1       2.214   8.291  18.561  0.00  0.00    +0.000 C 
ATOM     13  O   UNL     1       1.858   8.172  19.728  0.00  0.00    +0.000 OA
ATOM     14  N   UNL     1       1.803   9.341  17.769  0.00  0.00    +0.000 N 
ATOM     15  H   UNL     1       2.011   9.314  16.776  0.00  0.00    +0.000 HD
BRANCH  14  16
ATOM     16  C   UNL     1       0.887  10.333  18.284  0.00  0.00    +0.000 C 
BRANCH  16  17
ATOM     17  C   UNL     1      -0.578  10.042  17.925  0.00  0.00    +0.000 C 
BRANCH  17  18
ATOM     18  N   UNL     1      -1.522  11.139  18.226  0.00  0.00    +0.000 NA
ATOM     19  C   UNL     1      -0.835  12.423  18.401  0.00  0.00    +0.000 C 
ATOM     20  C   UNL     1      -2.492  11.259  17.130  0.00  0.00    +0.000 C 
ENDBRANCH  17  18
ENDBRANCH  16  17
ENDBRANCH  14  16
ENDBRANCH   9  12
BRANCH   1  22
ATOM     21  C   UNL     1       1.449   2.230  21.833  0.00  0.00    +0.000 C 
ATOM     22  C   UNL     1       1.571   3.368  20.815  0.00  0.00    +0.000 C 
ATOM     23  C   UNL     1       2.196   4.678  21.301  0.00  0.00    +0.000 C 
ENDBRANCH   1  22
TORSDOF 5
ENDMDL
MODEL 7
REMARK VINA RESULT:      -6.0      3.138      6.960
REMARK  Name = 
REMARK  9 active torsions:
REMARK  status: ('A' for Active; 'I' for Inactive)
REMARK    1  A    between atoms: C_1  and  C_2
REMARK    2  A    between atoms: C_2  and  C_3
REMARK    3  A    between atoms: C_2  and  C_4
REMARK    4  A    between atoms: C_12  and  C_13
REMARK    5  A    between atoms: N_15  and  C_16
REMARK    6  A    between atoms: C_16  and  C_17
REMARK    7  A    between atoms: C_17  and  N_18
REMARK    8  A    between atoms: N_18  and  C_19
REMARK    9  A    between atoms: N_18  and  C_20
REMARK                            x       y       z     vdW  Elec       q    Type
REMARK                         _______ _______ _______ _____ _____    ______ ____
ROOT
ATOM      1  C   UNL     1       2.461   3.293  19.307  0.00  0.00    +0.000 C 
ATOM      2  O   UNL     1       1.420   3.393  19.963  0.00  0.00    +0.000 OA
ATOM      3  N   UNL     1       3.379   4.318  19.260  0.00  0.00    +0.000 N 
ATOM      4  C   UNL     1       3.095   5.582  19.980  0.00  0.00    +0.000 C 
ATOM      5  C   UNL     1       2.757   6.722  18.986  0.00  0.00    +0.000 C 
ATOM      6  C   UNL     1       3.748   6.632  17.889  0.00  0.00    +0.000 A 
ATOM      7  O   UNL     1       3.947   7.615  16.986  0.00  0.00    +0.000 OA
ATOM      8  N   UNL     1       4.919   7.185  16.068  0.00  0.00    +0.000 NA
ATOM      9  C   UNL     1       5.257   5.934  16.447  0.00  0.00    +0.000 A 
ATOM     10  C   UNL     1       4.554   5.561  17.611  0.00  0.00    +0.000 A 
ATOM     11  C   UNL     1       4.585   4.328  18.411  0.00  0.00    +0.000 C 
ENDROOT
BRANCH   9  12
ATOM     12  C   UNL     1       6.218   5.083  15.748  0.00  0.00    +0.000 C 
ATOM     13  O   UNL     1       7.315   4.810  16.223  0.00  0.00    +0.000 OA
ATOM     14  N   UNL     1       5.806   4.604  14.522  0.00  0.00    +0.000 N 
ATOM     15  H   UNL     1       4.954   4.974  14.116  0.00  0.00    +0.000 HD
BRANCH  14  16
ATOM     16  C   UNL     1       6.686   3.784  13.723  0.00  0.00    +0.000 C 
BRANCH  16  17
ATOM     17  C   UNL     1       6.248   3.687  12.254  0.00  0.00    +0.000 C 
BRANCH  17  18
ATOM     18  N   UNL     1       5.234   2.648  11.974  0.00  0.00    +0.000 NA
ATOM     19  C   UNL     1       4.139   3.158  11.143  0.00  0.00    +0.000 C 
ATOM     20  C   UNL     1       5.873   1.519  11.286  0.00  0.00    +0.000 C 
ENDBRANCH  17  18
ENDBRANCH  16  17
ENDBRANCH  14  16
ENDBRANCH   9  12
BRANCH   1  22
ATOM     21  C   UNL     1       2.659   2.212  17.029  0.00  0.00    +0.000 C 
ATOM     22  C   UNL     1       2.702   1.995  18.545  0.00  0.00    +0.000 C 
ATOM     23  C   UNL     1       3.911   1.247  19.111  0.00  0.00    +0.000 C 
ENDBRANCH   1  22
TORSDOF 5
ENDMDL
MODEL 8
REMARK VINA RESULT:      -6.0      3.869      6.513
REMARK  Name = 
REMARK  9 active torsions:
REMARK  status: ('A' for Active; 'I' for Inactive)
REMARK    1  A    between atoms: C_1  and  C_2
REMARK    2  A    between atoms: C_2  and  C_3
REMARK    3  A    between atoms: C_2  and  C_4
REMARK    4  A    between atoms: C_12  and  C_13
REMARK    5  A    between atoms: N_15  and  C_16
REMARK    6  A    between atoms: C_16  and  C_17
REMARK    7  A    between atoms: C_17  and  N_18
REMARK    8  A    between atoms: N_18  and  C_19
REMARK    9  A    between atoms: N_18  and  C_20
REMARK                            x       y       z     vdW  Elec       q    Type
REMARK                         _______ _______ _______ _____ _____    ______ ____
ROOT
ATOM      1  C   UNL     1       6.396   3.631  12.259  0.00  0.00    +0.000 C 
ATOM      2  O   UNL     1       7.349   3.663  11.474  0.00  0.00    +0.000 OA
ATOM      3  N   UNL     1       6.306   4.513  13.312  0.00  0.00    +0.000 N 
ATOM      4  C   UNL     1       7.393   5.498  13.531  0.00  0.00    +0.000 C 
ATOM      5  C   UNL     1       8.237   5.122  14.776  0.00  0.00    +0.000 C 
ATOM      6  C   UNL     1       7.276   4.743  15.837  0.00  0.00    +0.000 A 
ATOM      7  O   UNL     1       7.616   4.623  17.138  0.00  0.00    +0.000 OA
ATOM      8  N   UNL     1       6.483   4.209  17.857  0.00  0.00    +0.000 NA
ATOM      9  C   UNL     1       5.496   4.075  16.946  0.00  0.00    +0.000 A 
ATOM     10  C   UNL     1       5.956   4.429  15.661  0.00  0.00    +0.000 A 
ATOM     11  C   UNL     1       5.270   4.468  14.360  0.00  0.00    +0.000 C 
ENDROOT
BRANCH   9  12
ATOM     12  C   UNL     1       4.139   3.625  17.248  0.00  0.00    +0.000 C 
ATOM     13  O   UNL     1       3.836   2.437  17.276  0.00  0.00    +0.000 OA
ATOM     14  N   UNL     1       3.224   4.624  17.506  0.00  0.00    +0.000 N 
ATOM     15  H   UNL     1       3.492   5.587  17.330  0.00  0.00    +0.000 HD
BRANCH  14  16
ATOM     16  C   UNL     1       1.843   4.300  17.780  0.00  0.00    +0.000 C 
BRANCH  16  17
ATOM     17  C   UNL     1       1.475   4.446  19.264  0.00  0.00    +0.000 C 
BRANCH  17  18
ATOM     18  N   UNL     1       0.801   3.271  19.857  0.00  0.00    +0.000 NA
ATOM     19  C   UNL     1       0.740   2.143  18.921  0.00  0.00    +0.000 C 
ATOM     20  C   UNL     1       1.524   2.855  21.065  0.00  0.00    +0.000 C 
ENDBRANCH  17  18
ENDBRANCH  16  17
ENDBRANCH  14  16
ENDBRANCH   9  12
BRANCH   1  22
ATOM     21  C   UNL     1       4.086   3.174  11.337  0.00  0.00    +0.000 C 
ATOM     22  C   UNL     1       5.316   2.579  12.029  0.00  0.00    +0.000 C 
ATOM     23  C   UNL     1       5.914   1.308  11.423  0.00  0.00    +0.000 C 
ENDBRANCH   1  22
TORSDOF 5
ENDMDL
MODEL 9
REMARK VINA RESULT:      -6.0      2.115      2.417
REMARK  Name = 
REMARK  9 active torsions:
REMARK  status: ('A' for Active; 'I' for Inactive)
REMARK    1  A    between atoms: C_1  and  C_2
REMARK    2  A    between atoms: C_2  and  C_3
REMARK    3  A    between atoms: C_2  and  C_4
REMARK    4  A    between atoms: C_12  and  C_13
REMARK    5  A    between atoms: N_15  and  C_16
REMARK    6  A    between atoms: C_16  and  C_17
REMARK    7  A    between atoms: C_17  and  N_18
REMARK    8  A    between atoms: N_18  and  C_19
REMARK    9  A    between atoms: N_18  and  C_20
REMARK                            x       y       z     vdW  Elec       q    Type
REMARK                         _______ _______ _______ _____ _____    ______ ____
ROOT
ATOM      1  C   UNL     1       2.742   2.875  19.137  0.00  0.00    +0.000 C 
ATOM      2  O   UNL     1       3.362   1.809  19.063  0.00  0.00    +0.000 OA
ATOM      3  N   UNL     1       2.729   3.769  18.090  0.00  0.00    +0.000 N 
ATOM      4  C   UNL     1       3.506   3.466  16.865  0.00  0.00    +0.000 C 
ATOM      5  C   UNL     1       4.757   4.376  16.763  0.00  0.00    +0.000 C 
ATOM      6  C   UNL     1       4.311   5.745  17.109  0.00  0.00    +0.000 A 
ATOM      7  O   UNL     1       5.048   6.850  16.866  0.00  0.00    +0.000 OA
ATOM      8  N   UNL     1       4.351   7.966  17.356  0.00  0.00    +0.000 NA
ATOM      9  C   UNL     1       3.214   7.481  17.901  0.00  0.00    +0.000 A 
ATOM     10  C   UNL     1       3.144   6.082  17.740  0.00  0.00    +0.000 A 
ATOM     11  C   UNL     1       2.116   5.109  18.138  0.00  0.00    +0.000 C 
ENDROOT
BRANCH   9  12
ATOM     12  C   UNL     1       2.198   8.294  18.567  0.00  0.00    +0.000 C 
ATOM     13  O   UNL     1       1.831   8.069  19.715  0.00  0.00    +0.000 OA
ATOM     14  N   UNL     1       1.684   9.332  17.819  0.00  0.00    +0.000 N 
ATOM     15  H   UNL     1       1.917   9.385  16.833  0.00  0.00    +0.000 HD
BRANCH  14  16
ATOM     16  C   UNL     1       0.646  10.179  18.359  0.00  0.00    +0.000 C 
BRANCH  16  17
ATOM     17  C   UNL     1      -0.763   9.762  17.912  0.00  0.00    +0.000 C 
BRANCH  17  18
ATOM     18  N   UNL     1      -1.609  10.866  17.409  0.00  0.00    +0.000 NA
ATOM     19  C   UNL     1      -2.488  10.430  16.319  0.00  0.00    +0.000 C 
ATOM     20  C   UNL     1      -2.430  11.388  18.508  0.00  0.00    +0.000 C 
ENDBRANCH  17  18
ENDBRANCH  16  17
ENDBRANCH  14  16
ENDBRANCH   9  12
BRANCH   1  22
ATOM     21  C   UNL     1       0.487   2.899  20.281  0.00  0.00    +0.000 C 
ATOM     22  C   UNL     1       1.986   3.173  20.427  0.00  0.00    +0.000 C 
ATOM     23  C   UNL     1       2.698   2.553  21.631  0.00  0.00    +0.000 C 
ENDBRANCH   1  22
TORSDOF 5
ENDMDL
