MODEL 1
REMARK VINA RESULT:      -7.8      0.000      0.000
REMARK  Name = 
REMARK  5 active torsions:
REMARK  status: ('A' for Active; 'I' for Inactive)
REMARK    1  A    between atoms: C_1  and  C_2
REMARK    2  A    between atoms: C_5  and  N_6
REMARK    3  A    between atoms: C_7  and  C_9
REMARK    4  A    between atoms: C_14  and  C_16
REMARK    5  A    between atoms: C_21  and  C_22
REMARK                            x       y       z     vdW  Elec       q    Type
REMARK                         _______ _______ _______ _____ _____    ______ ____
ROOT
ATOM      1  N   UNL     1       2.614   6.796  20.080  0.00  0.00    +0.000 N 
ATOM      2  C   UNL     1       2.260   5.504  19.737  0.00  0.00    +0.000 C 
ATOM      3  O   UNL     1       1.147   5.121  19.374  0.00  0.00    +0.000 OA
ATOM      4  H   UNL     1       3.595   6.928  20.267  0.00  0.00    +0.000 HD
ENDROOT
BRANCH   1   9
ATOM      5  C   UNL     1      -0.860  11.335  20.747  0.00  0.00    +0.000 C 
ATOM      6  C   UNL     1       0.047  10.153  20.583  0.00  0.00    +0.000 A 
ATOM      7  C   UNL     1       0.303   9.294  21.645  0.00  0.00    +0.000 A 
ATOM      8  C   UNL     1       1.147   8.193  21.476  0.00  0.00    +0.000 A 
ATOM      9  C   UNL     1       1.758   7.911  20.246  0.00  0.00    +0.000 A 
ATOM     10  C   UNL     1       1.512   8.783  19.163  0.00  0.00    +0.000 A 
ATOM     11  C   UNL     1       2.109   8.641  17.787  0.00  0.00    +0.000 C 
ATOM     12  C   UNL     1       0.657   9.891  19.351  0.00  0.00    +0.000 A 
ENDBRANCH   1   9
BRANCH   2  13
ATOM     13  C   UNL     1       3.452   4.537  19.610  0.00  0.00    +0.000 C 
ATOM     14  C   UNL     1       3.024   3.211  20.263  0.00  0.00    +0.000 C 
ATOM     15  S   UNL     1       3.076   1.959  18.959  0.00  0.00    +0.000 S 
ATOM     16  C   UNL     1       4.269   2.888  17.996  0.00  0.00    +0.000 C 
ATOM     17  N   UNL     1       3.971   4.279  18.254  0.00  0.00    +0.000 N 
ATOM     18  C   UNL     1       4.554   5.343  17.552  0.00  0.00    +0.000 C 
ATOM     19  O   UNL     1       4.232   6.502  17.799  0.00  0.00    +0.000 OA
BRANCH  18  20
ATOM     20  C   UNL     1       5.530   5.062  16.487  0.00  0.00    +0.000 A 
ATOM     21  C   UNL     1       6.952   5.023  16.684  0.00  0.00    +0.000 A 
ATOM     22  N   UNL     1       7.688   4.712  15.616  0.00  0.00    +0.000 NA
ATOM     23  S   UNL     1       6.572   4.421  14.407  0.00  0.00    +0.000 S 
ATOM     24  N   UNL     1       5.157   4.738  15.236  0.00  0.00    +0.000 NA
ENDBRANCH  18  20
ENDBRANCH   2  13
TORSDOF 3
ENDMDL
MODEL 2
REMARK VINA RESULT:      -6.9      0.867      1.635
REMARK  Name = 
REMARK  5 active torsions:
REMARK  status: ('A' for Active; 'I' for Inactive)
REMARK    1  A    between atoms: C_1  and  C_2
REMARK    2  A    between atoms: C_5  and  N_6
REMARK    3  A    between atoms: C_7  and  C_9
REMARK    4  A    between atoms: C_14  and  C_16
REMARK    5  A    between atoms: C_21  and  C_22
REMARK                            x       y       z     vdW  Elec       q    Type
REMARK                         _______ _______ _______ _____ _____    ______ ____
ROOT
ATOM      1  N   UNL     1       2.466   7.574  19.491  0.00  0.00    +0.000 N 
ATOM      2  C   UNL     1       2.277   6.204  19.472  0.00  0.00    +0.000 C 
ATOM      3  O   UNL     1       1.225   5.613  19.228  0.00  0.00    +0.000 OA
ATOM      4  H   UNL     1       3.421   7.865  19.626  0.00  0.00    +0.000 HD
ENDROOT
BRANCH   1   9
ATOM      5  C   UNL     1      -1.552  11.677  19.126  0.00  0.00    +0.000 C 
ATOM      6  C   UNL     1      -0.508  10.605  19.212  0.00  0.00    +0.000 A 
ATOM      7  C   UNL     1       0.046  10.052  18.064  0.00  0.00    +0.000 A 
ATOM      8  C   UNL     1       1.023   9.057  18.160  0.00  0.00    +0.000 A 
ATOM      9  C   UNL     1       1.478   8.584  19.399  0.00  0.00    +0.000 A 
ATOM     10  C   UNL     1       0.914   9.132  20.571  0.00  0.00    +0.000 A 
ATOM     11  C   UNL     1       1.269   8.719  21.976  0.00  0.00    +0.000 C 
ATOM     12  C   UNL     1      -0.071  10.137  20.457  0.00  0.00    +0.000 A 
ENDBRANCH   1   9
BRANCH   2  13
ATOM     13  C   UNL     1       3.579   5.387  19.561  0.00  0.00    +0.000 C 
ATOM     14  C   UNL     1       3.333   4.260  20.580  0.00  0.00    +0.000 C 
ATOM     15  S   UNL     1       3.524   2.705  19.677  0.00  0.00    +0.000 S 
ATOM     16  C   UNL     1       4.575   3.456  18.433  0.00  0.00    +0.000 C 
ATOM     17  N   UNL     1       4.107   4.818  18.307  0.00  0.00    +0.000 N 
ATOM     18  C   UNL     1       4.540   5.700  17.307  0.00  0.00    +0.000 C 
ATOM     19  O   UNL     1       4.077   6.836  17.236  0.00  0.00    +0.000 OA
BRANCH  18  20
ATOM     20  C   UNL     1       5.528   5.245  16.316  0.00  0.00    +0.000 A 
ATOM     21  C   UNL     1       6.945   5.209  16.545  0.00  0.00    +0.000 A 
ATOM     22  N   UNL     1       7.692   4.728  15.550  0.00  0.00    +0.000 NA
ATOM     23  S   UNL     1       6.591   4.282  14.376  0.00  0.00    +0.000 S 
ATOM     24  N   UNL     1       5.169   4.745  15.120  0.00  0.00    +0.000 NA
ENDBRANCH  18  20
ENDBRANCH   2  13
TORSDOF 3
ENDMDL
MODEL 3
REMARK VINA RESULT:      -6.7      1.204      1.391
REMARK  Name = 
REMARK  5 active torsions:
REMARK  status: ('A' for Active; 'I' for Inactive)
REMARK    1  A    between atoms: C_1  and  C_2
REMARK    2  A    between atoms: C_5  and  N_6
REMARK    3  A    between atoms: C_7  and  C_9
REMARK    4  A    between atoms: C_14  and  C_16
REMARK    5  A    between atoms: C_21  and  C_22
REMARK                            x       y       z     vdW  Elec       q    Type
REMARK                         _______ _______ _______ _____ _____    ______ ____
ROOT
ATOM      1  N   UNL     1       2.079   7.201  20.826  0.00  0.00    +0.000 N 
ATOM      2  C   UNL     1       1.675   5.891  20.641  0.00  0.00    +0.000 C 
ATOM      3  O   UNL     1       0.556   5.512  20.295  0.00  0.00    +0.000 OA
ATOM      4  H   UNL     1       3.060   7.314  21.026  0.00  0.00    +0.000 HD
ENDROOT
BRANCH   1   9
ATOM      5  C   UNL     1      -1.200  11.929  20.804  0.00  0.00    +0.000 C 
ATOM      6  C   UNL     1      -0.345  10.699  20.819  0.00  0.00    +0.000 A 
ATOM      7  C   UNL     1      -0.188   9.951  21.980  0.00  0.00    +0.000 A 
ATOM      8  C   UNL     1       0.609   8.802  21.978  0.00  0.00    +0.000 A 
ATOM      9  C   UNL     1       1.271   8.363  20.823  0.00  0.00    +0.000 A 
ATOM     10  C   UNL     1       1.127   9.122  19.641  0.00  0.00    +0.000 A 
ATOM     11  C   UNL     1       1.789   8.807  18.325  0.00  0.00    +0.000 C 
ATOM     12  C   UNL     1       0.318  10.279  19.660  0.00  0.00    +0.000 A 
ENDBRANCH   1   9
BRANCH   2  13
ATOM     13  C   UNL     1       2.824   4.866  20.674  0.00  0.00    +0.000 C 
ATOM     14  C   UNL     1       2.318   3.652  21.472  0.00  0.00    +0.000 C 
ATOM     15  S   UNL     1       2.349   2.245  20.335  0.00  0.00    +0.000 S 
ATOM     16  C   UNL     1       3.610   2.996  19.304  0.00  0.00    +0.000 C 
ATOM     17  N   UNL     1       3.369   4.420  19.378  0.00  0.00    +0.000 N 
ATOM     18  C   UNL     1       4.020   5.361  18.570  0.00  0.00    +0.000 C 
ATOM     19  O   UNL     1       3.744   6.555  18.661  0.00  0.00    +0.000 OA
BRANCH  18  20
ATOM     20  C   UNL     1       5.011   4.909  17.581  0.00  0.00    +0.000 A 
ATOM     21  C   UNL     1       4.680   4.411  16.275  0.00  0.00    +0.000 A 
ATOM     22  N   UNL     1       5.709   4.083  15.491  0.00  0.00    +0.000 NA
ATOM     23  S   UNL     1       7.063   4.461  16.393  0.00  0.00    +0.000 S 
ATOM     24  N   UNL     1       6.335   4.999  17.797  0.00  0.00    +0.000 NA
ENDBRANCH  18  20
ENDBRANCH   2  13
TORSDOF 3
ENDMDL
MODEL 4
REMARK VINA RESULT:      -6.5      5.663      9.655
REMARK  Name = 
REMARK  5 active torsions:
REMARK  status: ('A' for Active; 'I' for Inactive)
REMARK    1  A    between atoms: C_1  and  C_2
REMARK    2  A    between atoms: C_5  and  N_6
REMARK    3  A    between atoms: C_7  and  C_9
REMARK    4  A    between atoms: C_14  and  C_16
REMARK    5  A    between atoms: C_21  and  C_22
REMARK                            x       y       z     vdW  Elec       q    Type
REMARK                         _______ _______ _______ _____ _____    ______ ____
ROOT
ATOM      1  N   UNL     1       0.270  10.266  19.204  0.00  0.00    +0.000 N 
ATOM      2  C   UNL     1       0.587  11.581  19.492  0.00  0.00    +0.000 C 
ATOM      3  O   UNL     1       1.718  12.065  19.551  0.00  0.00    +0.000 OA
ATOM      4  H   UNL     1      -0.717  10.080  19.116  0.00  0.00    +0.000 HD
ENDROOT
BRANCH   1   9
ATOM      5  C   UNL     1       3.878   5.810  18.706  0.00  0.00    +0.000 C 
ATOM      6  C   UNL     1       2.943   6.975  18.829  0.00  0.00    +0.000 A 
ATOM      7  C   UNL     1       2.737   7.843  17.763  0.00  0.00    +0.000 A 
ATOM      8  C   UNL     1       1.858   8.922  17.890  0.00  0.00    +0.000 A 
ATOM      9  C   UNL     1       1.157   9.170  19.080  0.00  0.00    +0.000 A 
ATOM     10  C   UNL     1       1.368   8.300  20.171  0.00  0.00    +0.000 A 
ATOM     11  C   UNL     1       0.718   8.439  21.524  0.00  0.00    +0.000 C 
ATOM     12  C   UNL     1       2.259   7.215  20.026  0.00  0.00    +0.000 A 
ENDBRANCH   1   9
BRANCH   2  13
ATOM     13  C   UNL     1      -0.625  12.529  19.522  0.00  0.00    +0.000 C 
ATOM     14  C   UNL     1      -1.284  12.458  18.133  0.00  0.00    +0.000 C 
ATOM     15  S   UNL     1      -2.959  11.828  18.394  0.00  0.00    +0.000 S 
ATOM     16  C   UNL     1      -3.001  12.399  20.093  0.00  0.00    +0.000 C 
ATOM     17  N   UNL     1      -1.639  12.298  20.567  0.00  0.00    +0.000 N 
ATOM     18  C   UNL     1      -1.267  12.474  21.907  0.00  0.00    +0.000 C 
ATOM     19  O   UNL     1      -0.094  12.342  22.249  0.00  0.00    +0.000 OA
BRANCH  18  20
ATOM     20  C   UNL     1      -2.295  12.783  22.912  0.00  0.00    +0.000 A 
ATOM     21  C   UNL     1      -2.658  14.113  23.314  0.00  0.00    +0.000 A 
ATOM     22  N   UNL     1      -3.642  14.211  24.210  0.00  0.00    +0.000 NA
ATOM     23  S   UNL     1      -4.123  12.634  24.480  0.00  0.00    +0.000 S 
ATOM     24  N   UNL     1      -3.045  11.828  23.491  0.00  0.00    +0.000 NA
ENDBRANCH  18  20
ENDBRANCH   2  13
TORSDOF 3
ENDMDL
MODEL 5
REMARK VINA RESULT:      -6.5      1.141      1.901
REMARK  Name = 
REMARK  5 active torsions:
REMARK  status: ('A' for Active; 'I' for Inactive)
REMARK    1  A    between atoms: C_1  and  C_2
REMARK    2  A    between atoms: C_5  and  N_6
REMARK    3  A    between atoms: C_7  and  C_9
REMARK    4  A    between atoms: C_14  and  C_16
REMARK    5  A    between atoms: C_21  and  C_22
REMARK                            x       y       z     vdW  Elec       q    Type
REMARK                         _______ _______ _______ _____ _____    ______ ____
ROOT
ATOM      1  N   UNL     1       2.793   7.334  19.041  0.00  0.00    +0.000 N 
ATOM      2  C   UNL     1       2.567   5.979  18.882  0.00  0.00    +0.000 C 
ATOM      3  O   UNL     1       1.498   5.446  18.583  0.00  0.00    +0.000 OA
ATOM      4  H   UNL     1       3.757   7.584  19.201  0.00  0.00    +0.000 HD
ENDROOT
BRANCH   1   9
ATOM      5  C   UNL     1      -1.110  11.561  19.122  0.00  0.00    +0.000 C 
ATOM      6  C   UNL     1      -0.096  10.459  19.092  0.00  0.00    +0.000 A 
ATOM      7  C   UNL     1       0.530  10.094  17.905  0.00  0.00    +0.000 A 
ATOM      8  C   UNL     1       1.479   9.068  17.893  0.00  0.00    +0.000 A 
ATOM      9  C   UNL     1       1.834   8.375  19.059  0.00  0.00    +0.000 A 
ATOM     10  C   UNL     1       1.197   8.731  20.267  0.00  0.00    +0.000 A 
ATOM     11  C   UNL     1       1.442   8.072  21.600  0.00  0.00    +0.000 C 
ATOM     12  C   UNL     1       0.242   9.770  20.263  0.00  0.00    +0.000 A 
ENDBRANCH   1   9
BRANCH   2  13
ATOM     13  C   UNL     1       3.846   5.122  18.879  0.00  0.00    +0.000 C 
ATOM     14  C   UNL     1       3.590   3.932  19.821  0.00  0.00    +0.000 C 
ATOM     15  S   UNL     1       3.714   2.441  18.805  0.00  0.00    +0.000 S 
ATOM     16  C   UNL     1       4.758   3.251  17.592  0.00  0.00    +0.000 C 
ATOM     17  N   UNL     1       4.328   4.631  17.575  0.00  0.00    +0.000 N 
ATOM     18  C   UNL     1       4.763   5.569  16.630  0.00  0.00    +0.000 C 
ATOM     19  O   UNL     1       4.333   6.720  16.651  0.00  0.00    +0.000 OA
BRANCH  18  20
ATOM     20  C   UNL     1       5.714   5.160  15.584  0.00  0.00    +0.000 A 
ATOM     21  C   UNL     1       5.373   4.330  14.462  0.00  0.00    +0.000 A 
ATOM     22  N   UNL     1       6.350   4.091  13.586  0.00  0.00    +0.000 NA
ATOM     23  S   UNL     1       7.654   4.960  14.164  0.00  0.00    +0.000 S 
ATOM     24  N   UNL     1       6.983   5.601  15.553  0.00  0.00    +0.000 NA
ENDBRANCH  18  20
ENDBRANCH   2  13
TORSDOF 3
ENDMDL
MODEL 6
REMARK VINA RESULT:      -6.3      9.347     11.589
REMARK  Name = 
REMARK  5 active torsions:
REMARK  status: ('A' for Active; 'I' for Inactive)
REMARK    1  A    between atoms: C_1  and  C_2
REMARK    2  A    between atoms: C_5  and  N_6
REMARK    3  A    between atoms: C_7  and  C_9
REMARK    4  A    between atoms: C_14  and  C_16
REMARK    5  A    between atoms: C_21  and  C_22
REMARK                            x       y       z     vdW  Elec       q    Type
REMARK                         _______ _______ _______ _____ _____    ______ ____
ROOT
ATOM      1  N   UNL     1       9.149  13.209  22.645  0.00  0.00    +0.000 N 
ATOM      2  C   UNL     1       7.876  13.706  22.858  0.00  0.00    +0.000 C 
ATOM      3  O   UNL     1       6.975  13.794  22.023  0.00  0.00    +0.000 OA
ATOM      4  H   UNL     1       9.717  13.138  23.474  0.00  0.00    +0.000 HD
ENDROOT
BRANCH   1   9
ATOM      5  C   UNL     1      11.561  11.766  17.624  0.00  0.00    +0.000 C 
ATOM      6  C   UNL     1      10.926  12.135  18.930  0.00  0.00    +0.000 A 
ATOM      7  C   UNL     1      10.161  11.216  19.639  0.00  0.00    +0.000 A 
ATOM      8  C   UNL     1       9.579  11.573  20.859  0.00  0.00    +0.000 A 
ATOM      9  C   UNL     1       9.742  12.852  21.410  0.00  0.00    +0.000 A 
ATOM     10  C   UNL     1      10.508  13.795  20.692  0.00  0.00    +0.000 A 
ATOM     11  C   UNL     1      10.759  15.216  21.128  0.00  0.00    +0.000 C 
ATOM     12  C   UNL     1      11.090  13.419  19.462  0.00  0.00    +0.000 A 
ENDBRANCH   1   9
BRANCH   2  13
ATOM     13  C   UNL     1       7.538  13.960  24.339  0.00  0.00    +0.000 C 
ATOM     14  C   UNL     1       7.245  15.465  24.479  0.00  0.00    +0.000 C 
ATOM     15  S   UNL     1       5.530  15.601  25.037  0.00  0.00    +0.000 S 
ATOM     16  C   UNL     1       5.544  13.958  25.757  0.00  0.00    +0.000 C 
ATOM     17  N   UNL     1       6.432  13.180  24.923  0.00  0.00    +0.000 N 
ATOM     18  C   UNL     1       6.582  11.791  25.031  0.00  0.00    +0.000 C 
ATOM     19  O   UNL     1       7.330  11.185  24.268  0.00  0.00    +0.000 OA
BRANCH  18  20
ATOM     20  C   UNL     1       5.808  11.053  26.041  0.00  0.00    +0.000 A 
ATOM     21  C   UNL     1       6.220  10.879  27.406  0.00  0.00    +0.000 A 
ATOM     22  N   UNL     1       5.375  10.217  28.198  0.00  0.00    +0.000 NA
ATOM     23  S   UNL     1       4.062   9.879  27.223  0.00  0.00    +0.000 S 
ATOM     24  N   UNL     1       4.593  10.538  25.782  0.00  0.00    +0.000 NA
ENDBRANCH  18  20
ENDBRANCH   2  13
TORSDOF 3
ENDMDL
MODEL 7
REMARK VINA RESULT:      -6.2      5.128      8.395
REMARK  Name = 
REMARK  5 active torsions:
REMARK  status: ('A' for Active; 'I' for Inactive)
REMARK    1  A    between atoms: C_1  and  C_2
REMARK    2  A    between atoms: C_5  and  N_6
REMARK    3  A    between atoms: C_7  and  C_9
REMARK    4  A    between atoms: C_14  and  C_16
REMARK    5  A    between atoms: C_21  and  C_22
REMARK                            x       y       z     vdW  Elec       q    Type
REMARK                         _______ _______ _______ _____ _____    ______ ____
ROOT
ATOM      1  N   UNL     1       1.600   8.611  19.168  0.00  0.00    +0.000 N 
ATOM      2  C   UNL     1       1.620   9.943  18.796  0.00  0.00    +0.000 C 
ATOM      3  O   UNL     1       2.313  10.445  17.910  0.00  0.00    +0.000 OA
ATOM      4  H   UNL     1       0.902   8.377  19.856  0.00  0.00    +0.000 HD
ENDROOT
BRANCH   1   9
ATOM      5  C   UNL     1       5.136   4.416  17.433  0.00  0.00    +0.000 C 
ATOM      6  C   UNL     1       4.222   5.515  17.881  0.00  0.00    +0.000 A 
ATOM      7  C   UNL     1       4.179   6.730  17.207  0.00  0.00    +0.000 A 
ATOM      8  C   UNL     1       3.316   7.745  17.633  0.00  0.00    +0.000 A 
ATOM      9  C   UNL     1       2.470   7.580  18.739  0.00  0.00    +0.000 A 
ATOM     10  C   UNL     1       2.514   6.354  19.436  0.00  0.00    +0.000 A 
ATOM     11  C   UNL     1       1.693   6.024  20.657  0.00  0.00    +0.000 C 
ATOM     12  C   UNL     1       3.390   5.339  18.993  0.00  0.00    +0.000 A 
ENDBRANCH   1   9
BRANCH   2  13
ATOM     13  C   UNL     1       0.503  10.792  19.430  0.00  0.00    +0.000 C 
ATOM     14  C   UNL     1       1.192  11.930  20.205  0.00  0.00    +0.000 C 
ATOM     15  S   UNL     1       0.642  13.474  19.440  0.00  0.00    +0.000 S 
ATOM     16  C   UNL     1      -0.862  12.726  18.809  0.00  0.00    +0.000 C 
ATOM     17  N   UNL     1      -0.517  11.351  18.525  0.00  0.00    +0.000 N 
ATOM     18  C   UNL     1      -1.360  10.464  17.843  0.00  0.00    +0.000 C 
ATOM     19  O   UNL     1      -0.993   9.316  17.604  0.00  0.00    +0.000 OA
BRANCH  18  20
ATOM     20  C   UNL     1      -2.679  10.925  17.380  0.00  0.00    +0.000 A 
ATOM     21  C   UNL     1      -3.069  11.001  15.999  0.00  0.00    +0.000 A 
ATOM     22  N   UNL     1      -4.318  11.402  15.761  0.00  0.00    +0.000 NA
ATOM     23  S   UNL     1      -4.987  11.620  17.276  0.00  0.00    +0.000 S 
ATOM     24  N   UNL     1      -3.668  11.246  18.231  0.00  0.00    +0.000 NA
ENDBRANCH  18  20
ENDBRANCH   2  13
TORSDOF 3
ENDMDL
MODEL 8
REMARK VINA RESULT:      -6.2      6.340      9.340
REMARK  Name = 
REMARK  5 active torsions:
REMARK  status: ('A' for Active; 'I' for Inactive)
REMARK    1  A    between atoms: C_1  and  C_2
REMARK    2  A    between atoms: C_5  and  N_6
REMARK    3  A    between atoms: C_7  and  C_9
REMARK    4  A    between atoms: C_14  and  C_16
REMARK    5  A    between atoms: C_21  and  C_22
REMARK                            x       y       z     vdW  Elec       q    Type
REMARK                         _______ _______ _______ _____ _____    ______ ____
ROOT
ATOM      1  N   UNL     1       0.247  11.047  19.826  0.00  0.00    +0.000 N 
ATOM      2  C   UNL     1      -1.049  11.388  19.486  0.00  0.00    +0.000 C 
ATOM      3  O   UNL     1      -1.866  10.673  18.904  0.00  0.00    +0.000 OA
ATOM      4  H   UNL     1       0.733  11.736  20.378  0.00  0.00    +0.000 HD
ENDROOT
BRANCH   1   9
ATOM      5  C   UNL     1       3.166   6.336  18.278  0.00  0.00    +0.000 C 
ATOM      6  C   UNL     1       2.411   7.567  18.674  0.00  0.00    +0.000 A 
ATOM      7  C   UNL     1       2.184   8.592  17.763  0.00  0.00    +0.000 A 
ATOM      8  C   UNL     1       1.473   9.733  18.145  0.00  0.00    +0.000 A 
ATOM      9  C   UNL     1       0.965   9.888  19.443  0.00  0.00    +0.000 A 
ATOM     10  C   UNL     1       1.198   8.857  20.378  0.00  0.00    +0.000 A 
ATOM     11  C   UNL     1       0.746   8.877  21.816  0.00  0.00    +0.000 C 
ATOM     12  C   UNL     1       1.918   7.711  19.976  0.00  0.00    +0.000 A 
ENDBRANCH   1   9
BRANCH   2  13
ATOM     13  C   UNL     1      -1.535  12.712  20.104  0.00  0.00    +0.000 C 
ATOM     14  C   UNL     1      -1.980  12.398  21.543  0.00  0.00    +0.000 C 
ATOM     15  S   UNL     1      -0.911  13.370  22.631  0.00  0.00    +0.000 S 
ATOM     16  C   UNL     1      -0.566  14.580  21.354  0.00  0.00    +0.000 C 
ATOM     17  N   UNL     1      -0.589  13.843  20.110  0.00  0.00    +0.000 N 
ATOM     18  C   UNL     1      -0.186  14.380  18.880  0.00  0.00    +0.000 C 
ATOM     19  O   UNL     1      -0.198  13.688  17.865  0.00  0.00    +0.000 OA
BRANCH  18  20
ATOM     20  C   UNL     1       0.291  15.770  18.816  0.00  0.00    +0.000 A 
ATOM     21  C   UNL     1       1.672  16.156  18.899  0.00  0.00    +0.000 A 
ATOM     22  N   UNL     1       1.929  17.459  18.781  0.00  0.00    +0.000 NA
ATOM     23  S   UNL     1       0.437  18.160  18.513  0.00  0.00    +0.000 S 
ATOM     24  N   UNL     1      -0.538  16.805  18.594  0.00  0.00    +0.000 NA
ENDBRANCH  18  20
ENDBRANCH   2  13
TORSDOF 3
ENDMDL
MODEL 9
REMARK VINA RESULT:      -6.2      6.823      9.797
REMARK  Name = 
REMARK  5 active torsions:
REMARK  status: ('A' for Active; 'I' for Inactive)
REMARK    1  A    between atoms: C_1  and  C_2
REMARK    2  A    between atoms: C_5  and  N_6
REMARK    3  A    between atoms: C_7  and  C_9
REMARK    4  A    between atoms: C_14  and  C_16
REMARK    5  A    between atoms: C_21  and  C_22
REMARK                            x       y       z     vdW  Elec       q    Type
REMARK                         _______ _______ _______ _____ _____    ______ ____
ROOT
ATOM      1  N   UNL     1       0.151  11.255  19.877  0.00  0.00    +0.000 N 
ATOM      2  C   UNL     1       0.549  12.283  20.711  0.00  0.00    +0.000 C 
ATOM      3  O   UNL     1       1.658  12.417  21.229  0.00  0.00    +0.000 OA
ATOM      4  H   UNL     1      -0.770  11.366  19.482  0.00  0.00    +0.000 HD
ENDROOT
BRANCH   1   9
ATOM      5  C   UNL     1       3.022   6.423  18.642  0.00  0.00    +0.000 C 
ATOM      6  C   UNL     1       2.280   7.686  18.957  0.00  0.00    +0.000 A 
ATOM      7  C   UNL     1       2.163   8.702  18.015  0.00  0.00    +0.000 A 
ATOM      8  C   UNL     1       1.463   9.872  18.321  0.00  0.00    +0.000 A 
ATOM      9  C   UNL     1       0.857  10.067  19.571  0.00  0.00    +0.000 A 
ATOM     10  C   UNL     1       0.978   9.045  20.537  0.00  0.00    +0.000 A 
ATOM     11  C   UNL     1       0.412   9.104  21.933  0.00  0.00    +0.000 C 
ATOM     12  C   UNL     1       1.688   7.869  20.212  0.00  0.00    +0.000 A 
ENDBRANCH   1   9
BRANCH   2  13
ATOM     13  C   UNL     1      -0.452  13.450  20.796  0.00  0.00    +0.000 C 
ATOM     14  C   UNL     1      -1.006  13.460  22.232  0.00  0.00    +0.000 C 
ATOM     15  S   UNL     1      -0.530  15.050  22.951  0.00  0.00    +0.000 S 
ATOM     16  C   UNL     1      -0.396  15.835  21.344  0.00  0.00    +0.000 C 
ATOM     17  N   UNL     1       0.044  14.793  20.443  0.00  0.00    +0.000 N 
ATOM     18  C   UNL     1       0.449  15.027  19.123  0.00  0.00    +0.000 C 
ATOM     19  O   UNL     1       0.845  14.100  18.419  0.00  0.00    +0.000 OA
BRANCH  18  20
ATOM     20  C   UNL     1       0.435  16.399  18.591  0.00  0.00    +0.000 A 
ATOM     21  C   UNL     1       1.583  17.262  18.552  0.00  0.00    +0.000 A 
ATOM     22  N   UNL     1       1.400  18.461  17.996  0.00  0.00    +0.000 NA
ATOM     23  S   UNL     1      -0.191  18.452  17.488  0.00  0.00    +0.000 S 
ATOM     24  N   UNL     1      -0.656  16.937  18.018  0.00  0.00    +0.000 NA
ENDBRANCH  18  20
ENDBRANCH   2  13
TORSDOF 3
ENDMDL
