MODEL 1
REMARK VINA RESULT:      -8.3      0.000      0.000
REMARK  Name = 
REMARK  6 active torsions:
REMARK  status: ('A' for Active; 'I' for Inactive)
REMARK    1  A    between atoms: C_1  and  C_2
REMARK    2  A    between atoms: C_2  and  C_3
REMARK    3  A    between atoms: C_3  and  C_4
REMARK    4  A    between atoms: N_6  and  C_7
REMARK    5  A    between atoms: N_11  and  C_12
REMARK    6  A    between atoms: C_15  and  C_16
REMARK                            x       y       z     vdW  Elec       q    Type
REMARK                         _______ _______ _______ _____ _____    ______ ____
ROOT
ATOM      1  C   UNL     1       3.498   5.724  18.524  0.00  0.00    +0.000 A 
ATOM      2  C   UNL     1       4.662   5.325  17.924  0.00  0.00    +0.000 A 
ATOM      3  C   UNL     1       5.088   6.436  17.181  0.00  0.00    +0.000 A 
ATOM      4  N   UNL     1       4.253   7.467  17.248  0.00  0.00    +0.000 NA
ATOM      5  N   UNL     1       3.305   7.059  18.148  0.00  0.00    +0.000 N 
ATOM      6  C   UNL     1       6.306   6.292  16.351  0.00  0.00    +0.000 C 
ATOM      7  S   UNL     1       6.545   4.482  16.359  0.00  0.00    +0.000 S 
ATOM      8  O   UNL     1       5.956   3.937  15.149  0.00  0.00    +0.000 OA
ATOM      9  O   UNL     1       7.910   4.179  16.737  0.00  0.00    +0.000 OA
ATOM     10  C   UNL     1       5.438   4.080  17.757  0.00  0.00    +0.000 C 
ENDROOT
BRANCH   5  11
ATOM     11  C   UNL     1       2.295   7.936  18.620  0.00  0.00    +0.000 A 
ATOM     12  C   UNL     1       1.928   7.914  19.969  0.00  0.00    +0.000 A 
ATOM     13  C   UNL     1       0.970   8.815  20.444  0.00  0.00    +0.000 A 
ATOM     14  C   UNL     1       0.354   9.727  19.578  0.00  0.00    +0.000 A 
ATOM     15  C   UNL     1      -0.681  10.695  20.071  0.00  0.00    +0.000 C 
ATOM     16  C   UNL     1       0.687   9.709  18.220  0.00  0.00    +0.000 A 
ATOM     17  C   UNL     1       1.649   8.820  17.744  0.00  0.00    +0.000 A 
ENDBRANCH   5  11
BRANCH   1  20
ATOM     18  C   UNL     1       1.697   4.069  18.570  0.00  0.00    +0.000 C 
ATOM     19  O   UNL     1       1.665   4.032  17.351  0.00  0.00    +0.000 OA
ATOM     20  N   UNL     1       2.625   4.920  19.244  0.00  0.00    +0.000 N 
ATOM     21  H   UNL     1       2.795   4.800  20.238  0.00  0.00    +0.000 HD
BRANCH  18  22
ATOM     22  C   UNL     1       0.843   3.220  19.476  0.00  0.00    +0.000 C 
BRANCH  22  24
ATOM     23  C   UNL     1       1.765   2.446  21.699  0.00  0.00    +0.000 C 
ATOM     24  C   UNL     1       1.078   3.572  20.937  0.00  0.00    +0.000 C 
ENDBRANCH  22  24
ENDBRANCH  18  22
ENDBRANCH   1  20
TORSDOF 4
ENDMDL
MODEL 2
REMARK VINA RESULT:      -8.2      0.119      1.014
REMARK  Name = 
REMARK  6 active torsions:
REMARK  status: ('A' for Active; 'I' for Inactive)
REMARK    1  A    between atoms: C_1  and  C_2
REMARK    2  A    between atoms: C_2  and  C_3
REMARK    3  A    between atoms: C_3  and  C_4
REMARK    4  A    between atoms: N_6  and  C_7
REMARK    5  A    between atoms: N_11  and  C_12
REMARK    6  A    between atoms: C_15  and  C_16
REMARK                            x       y       z     vdW  Elec       q    Type
REMARK                         _______ _______ _______ _____ _____    ______ ____
ROOT
ATOM      1  C   UNL     1       3.536   5.768  18.538  0.00  0.00    +0.000 A 
ATOM      2  C   UNL     1       4.714   5.358  17.974  0.00  0.00    +0.000 A 
ATOM      3  C   UNL     1       5.168   6.460  17.237  0.00  0.00    +0.000 A 
ATOM      4  N   UNL     1       4.339   7.498  17.274  0.00  0.00    +0.000 NA
ATOM      5  N   UNL     1       3.363   7.102  18.149  0.00  0.00    +0.000 N 
ATOM      6  C   UNL     1       6.408   6.303  16.443  0.00  0.00    +0.000 C 
ATOM      7  S   UNL     1       6.633   4.492  16.468  0.00  0.00    +0.000 S 
ATOM      8  O   UNL     1       6.076   3.943  15.245  0.00  0.00    +0.000 OA
ATOM      9  O   UNL     1       7.985   4.181  16.886  0.00  0.00    +0.000 OA
ATOM     10  C   UNL     1       5.485   4.106  17.836  0.00  0.00    +0.000 C 
ENDROOT
BRANCH   5  11
ATOM     11  C   UNL     1       2.347   7.989  18.587  0.00  0.00    +0.000 A 
ATOM     12  C   UNL     1       1.760   8.878  17.681  0.00  0.00    +0.000 A 
ATOM     13  C   UNL     1       0.723   9.717  18.102  0.00  0.00    +0.000 A 
ATOM     14  C   UNL     1       0.279   9.694  19.430  0.00  0.00    +0.000 A 
ATOM     15  C   UNL     1      -0.828  10.593  19.898  0.00  0.00    +0.000 C 
ATOM     16  C   UNL     1       0.905   8.841  20.343  0.00  0.00    +0.000 A 
ATOM     17  C   UNL     1       1.932   7.996  19.927  0.00  0.00    +0.000 A 
ENDBRANCH   5  11
BRANCH   1  20
ATOM     18  C   UNL     1       1.738   4.108  18.544  0.00  0.00    +0.000 C 
ATOM     19  O   UNL     1       1.755   4.048  17.325  0.00  0.00    +0.000 OA
ATOM     20  N   UNL     1       2.637   4.974  19.238  0.00  0.00    +0.000 N 
ATOM     21  H   UNL     1       2.768   4.873  20.239  0.00  0.00    +0.000 HD
BRANCH  18  22
ATOM     22  C   UNL     1       0.851   3.273  19.430  0.00  0.00    +0.000 C 
BRANCH  22  24
ATOM     23  C   UNL     1       1.832   2.487  21.625  0.00  0.00    +0.000 C 
ATOM     24  C   UNL     1       1.084   3.598  20.898  0.00  0.00    +0.000 C 
ENDBRANCH  22  24
ENDBRANCH  18  22
ENDBRANCH   1  20
TORSDOF 4
ENDMDL
MODEL 3
REMARK VINA RESULT:      -7.9      3.416      6.053
REMARK  Name = 
REMARK  6 active torsions:
REMARK  status: ('A' for Active; 'I' for Inactive)
REMARK    1  A    between atoms: C_1  and  C_2
REMARK    2  A    between atoms: C_2  and  C_3
REMARK    3  A    between atoms: C_3  and  C_4
REMARK    4  A    between atoms: N_6  and  C_7
REMARK    5  A    between atoms: N_11  and  C_12
REMARK    6  A    between atoms: C_15  and  C_16
REMARK                            x       y       z     vdW  Elec       q    Type
REMARK                         _______ _______ _______ _____ _____    ______ ____
ROOT
ATOM      1  C   UNL     1       2.329   6.945  19.787  0.00  0.00    +0.000 A 
ATOM      2  C   UNL     1       1.526   8.002  20.121  0.00  0.00    +0.000 A 
ATOM      3  C   UNL     1       1.609   8.881  19.032  0.00  0.00    +0.000 A 
ATOM      4  N   UNL     1       2.431   8.461  18.076  0.00  0.00    +0.000 NA
ATOM      5  N   UNL     1       2.818   7.219  18.503  0.00  0.00    +0.000 N 
ATOM      6  C   UNL     1       0.891  10.173  19.124  0.00  0.00    +0.000 C 
ATOM      7  S   UNL     1       0.476  10.236  20.901  0.00  0.00    +0.000 S 
ATOM      8  O   UNL     1       1.484  11.032  21.579  0.00  0.00    +0.000 OA
ATOM      9  O   UNL     1      -0.937  10.518  21.054  0.00  0.00    +0.000 OA
ATOM     10  C   UNL     1       0.778   8.480  21.301  0.00  0.00    +0.000 C 
ENDROOT
BRANCH   5  11
ATOM     11  C   UNL     1       3.594   6.356  17.688  0.00  0.00    +0.000 A 
ATOM     12  C   UNL     1       4.652   6.875  16.935  0.00  0.00    +0.000 A 
ATOM     13  C   UNL     1       5.449   6.016  16.172  0.00  0.00    +0.000 A 
ATOM     14  C   UNL     1       5.186   4.642  16.133  0.00  0.00    +0.000 A 
ATOM     15  C   UNL     1       6.028   3.708  15.314  0.00  0.00    +0.000 C 
ATOM     16  C   UNL     1       4.094   4.136  16.846  0.00  0.00    +0.000 A 
ATOM     17  C   UNL     1       3.303   4.986  17.617  0.00  0.00    +0.000 A 
ENDBRANCH   5  11
BRANCH   1  20
ATOM     18  C   UNL     1       1.809   4.776  20.791  0.00  0.00    +0.000 C 
ATOM     19  O   UNL     1       0.736   4.736  20.211  0.00  0.00    +0.000 OA
ATOM     20  N   UNL     1       2.687   5.888  20.613  0.00  0.00    +0.000 N 
ATOM     21  H   UNL     1       3.651   5.829  20.923  0.00  0.00    +0.000 HD
BRANCH  18  22
ATOM     22  C   UNL     1       2.344   3.682  21.679  0.00  0.00    +0.000 C 
BRANCH  22  24
ATOM     23  C   UNL     1       4.014   2.449  20.235  0.00  0.00    +0.000 C 
ATOM     24  C   UNL     1       2.633   2.421  20.878  0.00  0.00    +0.000 C 
ENDBRANCH  22  24
ENDBRANCH  18  22
ENDBRANCH   1  20
TORSDOF 4
ENDMDL
MODEL 4
REMARK VINA RESULT:      -7.9      1.022      1.181
REMARK  Name = 
REMARK  6 active torsions:
REMARK  status: ('A' for Active; 'I' for Inactive)
REMARK    1  A    between atoms: C_1  and  C_2
REMARK    2  A    between atoms: C_2  and  C_3
REMARK    3  A    between atoms: C_3  and  C_4
REMARK    4  A    between atoms: N_6  and  C_7
REMARK    5  A    between atoms: N_11  and  C_12
REMARK    6  A    between atoms: C_15  and  C_16
REMARK                            x       y       z     vdW  Elec       q    Type
REMARK                         _______ _______ _______ _____ _____    ______ ____
ROOT
ATOM      1  C   UNL     1       3.272   5.858  18.115  0.00  0.00    +0.000 A 
ATOM      2  C   UNL     1       4.508   5.482  17.662  0.00  0.00    +0.000 A 
ATOM      3  C   UNL     1       5.158   6.682  17.341  0.00  0.00    +0.000 A 
ATOM      4  N   UNL     1       4.400   7.758  17.524  0.00  0.00    +0.000 NA
ATOM      5  N   UNL     1       3.255   7.258  18.084  0.00  0.00    +0.000 N 
ATOM      6  C   UNL     1       6.514   6.602  16.750  0.00  0.00    +0.000 C 
ATOM      7  S   UNL     1       6.621   4.832  16.315  0.00  0.00    +0.000 S 
ATOM      8  O   UNL     1       6.271   4.683  14.914  0.00  0.00    +0.000 OA
ATOM      9  O   UNL     1       7.848   4.280  16.849  0.00  0.00    +0.000 OA
ATOM     10  C   UNL     1       5.214   4.233  17.316  0.00  0.00    +0.000 C 
ENDROOT
BRANCH   5  11
ATOM     11  C   UNL     1       2.230   8.107  18.574  0.00  0.00    +0.000 A 
ATOM     12  C   UNL     1       1.895   8.080  19.931  0.00  0.00    +0.000 A 
ATOM     13  C   UNL     1       0.920   8.955  20.423  0.00  0.00    +0.000 A 
ATOM     14  C   UNL     1       0.257   9.842  19.567  0.00  0.00    +0.000 A 
ATOM     15  C   UNL     1      -0.796  10.781  20.079  0.00  0.00    +0.000 C 
ATOM     16  C   UNL     1       0.560   9.827  18.202  0.00  0.00    +0.000 A 
ATOM     17  C   UNL     1       1.537   8.965  17.708  0.00  0.00    +0.000 A 
ENDBRANCH   5  11
BRANCH   1  20
ATOM     18  C   UNL     1       2.070   4.456  19.720  0.00  0.00    +0.000 C 
ATOM     19  O   UNL     1       2.878   4.723  20.596  0.00  0.00    +0.000 OA
ATOM     20  N   UNL     1       2.211   5.013  18.412  0.00  0.00    +0.000 N 
ATOM     21  H   UNL     1       1.441   4.962  17.753  0.00  0.00    +0.000 HD
BRANCH  18  22
ATOM     22  C   UNL     1       0.851   3.593  19.914  0.00  0.00    +0.000 C 
BRANCH  22  24
ATOM     23  C   UNL     1       2.169   1.743  18.802  0.00  0.00    +0.000 C 
ATOM     24  C   UNL     1       0.824   2.451  18.909  0.00  0.00    +0.000 C 
ENDBRANCH  22  24
ENDBRANCH  18  22
ENDBRANCH   1  20
TORSDOF 4
ENDMDL
MODEL 5
REMARK VINA RESULT:      -7.9      3.398      6.007
REMARK  Name = 
REMARK  6 active torsions:
REMARK  status: ('A' for Active; 'I' for Inactive)
REMARK    1  A    between atoms: C_1  and  C_2
REMARK    2  A    between atoms: C_2  and  C_3
REMARK    3  A    between atoms: C_3  and  C_4
REMARK    4  A    between atoms: N_6  and  C_7
REMARK    5  A    between atoms: N_11  and  C_12
REMARK    6  A    between atoms: C_15  and  C_16
REMARK                            x       y       z     vdW  Elec       q    Type
REMARK                         _______ _______ _______ _____ _____    ______ ____
ROOT
ATOM      1  C   UNL     1       2.372   6.931  19.754  0.00  0.00    +0.000 A 
ATOM      2  C   UNL     1       1.557   7.987  20.062  0.00  0.00    +0.000 A 
ATOM      3  C   UNL     1       1.662   8.859  18.970  0.00  0.00    +0.000 A 
ATOM      4  N   UNL     1       2.508   8.437  18.036  0.00  0.00    +0.000 NA
ATOM      5  N   UNL     1       2.889   7.199  18.480  0.00  0.00    +0.000 N 
ATOM      6  C   UNL     1       0.936  10.148  19.037  0.00  0.00    +0.000 C 
ATOM      7  S   UNL     1       0.480  10.221  20.803  0.00  0.00    +0.000 S 
ATOM      8  O   UNL     1       1.469  11.025  21.500  0.00  0.00    +0.000 OA
ATOM      9  O   UNL     1      -0.936  10.499  20.923  0.00  0.00    +0.000 OA
ATOM     10  C   UNL     1       0.780   8.468  21.222  0.00  0.00    +0.000 C 
ENDROOT
BRANCH   5  11
ATOM     11  C   UNL     1       3.688   6.334  17.689  0.00  0.00    +0.000 A 
ATOM     12  C   UNL     1       3.347   4.983  17.572  0.00  0.00    +0.000 A 
ATOM     13  C   UNL     1       4.105   4.143  16.751  0.00  0.00    +0.000 A 
ATOM     14  C   UNL     1       5.219   4.634  16.059  0.00  0.00    +0.000 A 
ATOM     15  C   UNL     1       6.046   3.743  15.179  0.00  0.00    +0.000 C 
ATOM     16  C   UNL     1       5.586   5.974  16.221  0.00  0.00    +0.000 A 
ATOM     17  C   UNL     1       4.828   6.817  17.030  0.00  0.00    +0.000 A 
ENDBRANCH   5  11
BRANCH   1  20
ATOM     18  C   UNL     1       1.826   4.778  20.779  0.00  0.00    +0.000 C 
ATOM     19  O   UNL     1       0.757   4.741  20.192  0.00  0.00    +0.000 OA
ATOM     20  N   UNL     1       2.714   5.881  20.595  0.00  0.00    +0.000 N 
ATOM     21  H   UNL     1       3.676   5.817  20.912  0.00  0.00    +0.000 HD
BRANCH  18  22
ATOM     22  C   UNL     1       2.345   3.690  21.683  0.00  0.00    +0.000 C 
BRANCH  22  24
ATOM     23  C   UNL     1       3.996   2.493  20.188  0.00  0.00    +0.000 C 
ATOM     24  C   UNL     1       2.648   2.424  20.896  0.00  0.00    +0.000 C 
ENDBRANCH  22  24
ENDBRANCH  18  22
ENDBRANCH   1  20
TORSDOF 4
ENDMDL
MODEL 6
REMARK VINA RESULT:      -7.9      1.014      1.547
REMARK  Name = 
REMARK  6 active torsions:
REMARK  status: ('A' for Active; 'I' for Inactive)
REMARK    1  A    between atoms: C_1  and  C_2
REMARK    2  A    between atoms: C_2  and  C_3
REMARK    3  A    between atoms: C_3  and  C_4
REMARK    4  A    between atoms: N_6  and  C_7
REMARK    5  A    between atoms: N_11  and  C_12
REMARK    6  A    between atoms: C_15  and  C_16
REMARK                            x       y       z     vdW  Elec       q    Type
REMARK                         _______ _______ _______ _____ _____    ______ ____
ROOT
ATOM      1  C   UNL     1       3.310   5.827  18.104  0.00  0.00    +0.000 A 
ATOM      2  C   UNL     1       4.536   5.427  17.647  0.00  0.00    +0.000 A 
ATOM      3  C   UNL     1       5.206   6.613  17.315  0.00  0.00    +0.000 A 
ATOM      4  N   UNL     1       4.468   7.704  17.495  0.00  0.00    +0.000 NA
ATOM      5  N   UNL     1       3.317   7.227  18.064  0.00  0.00    +0.000 N 
ATOM      6  C   UNL     1       6.557   6.506  16.717  0.00  0.00    +0.000 C 
ATOM      7  S   UNL     1       6.630   4.732  16.293  0.00  0.00    +0.000 S 
ATOM      8  O   UNL     1       6.270   4.579  14.895  0.00  0.00    +0.000 OA
ATOM      9  O   UNL     1       7.851   4.161  16.824  0.00  0.00    +0.000 OA
ATOM     10  C   UNL     1       5.219   4.164  17.305  0.00  0.00    +0.000 C 
ENDROOT
BRANCH   5  11
ATOM     11  C   UNL     1       2.310   8.097  18.555  0.00  0.00    +0.000 A 
ATOM     12  C   UNL     1       1.671   8.983  17.683  0.00  0.00    +0.000 A 
ATOM     13  C   UNL     1       0.642   9.804  18.157  0.00  0.00    +0.000 A 
ATOM     14  C   UNL     1       0.259   9.766  19.503  0.00  0.00    +0.000 A 
ATOM     15  C   UNL     1      -0.838  10.645  20.028  0.00  0.00    +0.000 C 
ATOM     16  C   UNL     1       0.939   8.915  20.381  0.00  0.00    +0.000 A 
ATOM     17  C   UNL     1       1.957   8.088  19.912  0.00  0.00    +0.000 A 
ENDBRANCH   5  11
BRANCH   1  20
ATOM     18  C   UNL     1       2.097   4.449  19.722  0.00  0.00    +0.000 C 
ATOM     19  O   UNL     1       2.918   4.702  20.590  0.00  0.00    +0.000 OA
ATOM     20  N   UNL     1       2.236   5.003  18.413  0.00  0.00    +0.000 N 
ATOM     21  H   UNL     1       1.459   4.965  17.761  0.00  0.00    +0.000 HD
BRANCH  18  22
ATOM     22  C   UNL     1       0.863   3.610  19.928  0.00  0.00    +0.000 C 
BRANCH  22  24
ATOM     23  C   UNL     1       2.111   1.722  18.800  0.00  0.00    +0.000 C 
ATOM     24  C   UNL     1       0.794   2.480  18.911  0.00  0.00    +0.000 C 
ENDBRANCH  22  24
ENDBRANCH  18  22
ENDBRANCH   1  20
TORSDOF 4
ENDMDL
MODEL 7
REMARK VINA RESULT:      -7.7      0.984      1.457
REMARK  Name = 
REMARK  6 active torsions:
REMARK  status: ('A' for Active; 'I' for Inactive)
REMARK    1  A    between atoms: C_1  and  C_2
REMARK    2  A    between atoms: C_2  and  C_3
REMARK    3  A    between atoms: C_3  and  C_4
REMARK    4  A    between atoms: N_6  and  C_7
REMARK    5  A    between atoms: N_11  and  C_12
REMARK    6  A    between atoms: C_15  and  C_16
REMARK                            x       y       z     vdW  Elec       q    Type
REMARK                         _______ _______ _______ _____ _____    ______ ____
ROOT
ATOM      1  C   UNL     1       3.528   5.244  18.174  0.00  0.00    +0.000 A 
ATOM      2  C   UNL     1       4.527   5.027  17.264  0.00  0.00    +0.000 A 
ATOM      3  C   UNL     1       4.804   6.289  16.719  0.00  0.00    +0.000 A 
ATOM      4  N   UNL     1       4.023   7.253  17.196  0.00  0.00    +0.000 NA
ATOM      5  N   UNL     1       3.284   6.623  18.162  0.00  0.00    +0.000 N 
ATOM      6  C   UNL     1       5.811   6.374  15.637  0.00  0.00    +0.000 C 
ATOM      7  S   UNL     1       6.010   4.617  15.182  0.00  0.00    +0.000 S 
ATOM      8  O   UNL     1       5.164   4.342  14.035  0.00  0.00    +0.000 OA
ATOM      9  O   UNL     1       7.418   4.278  15.179  0.00  0.00    +0.000 OA
ATOM     10  C   UNL     1       5.224   3.877  16.655  0.00  0.00    +0.000 C 
ENDROOT
BRANCH   5  11
ATOM     11  C   UNL     1       2.418   7.340  19.027  0.00  0.00    +0.000 A 
ATOM     12  C   UNL     1       1.845   8.542  18.598  0.00  0.00    +0.000 A 
ATOM     13  C   UNL     1       0.951   9.221  19.431  0.00  0.00    +0.000 A 
ATOM     14  C   UNL     1       0.639   8.725  20.703  0.00  0.00    +0.000 A 
ATOM     15  C   UNL     1      -0.314   9.446  21.611  0.00  0.00    +0.000 C 
ATOM     16  C   UNL     1       1.255   7.550  21.146  0.00  0.00    +0.000 A 
ATOM     17  C   UNL     1       2.139   6.863  20.316  0.00  0.00    +0.000 A 
ENDBRANCH   5  11
BRANCH   1  20
ATOM     18  C   UNL     1       1.557   3.807  18.371  0.00  0.00    +0.000 C 
ATOM     19  O   UNL     1       1.097   4.253  17.332  0.00  0.00    +0.000 OA
ATOM     20  N   UNL     1       2.815   4.272  18.863  0.00  0.00    +0.000 N 
ATOM     21  H   UNL     1       3.292   3.763  19.600  0.00  0.00    +0.000 HD
BRANCH  18  22
ATOM     22  C   UNL     1       0.917   2.720  19.194  0.00  0.00    +0.000 C 
BRANCH  22  24
ATOM     23  C   UNL     1       1.239   2.842  21.700  0.00  0.00    +0.000 C 
ATOM     24  C   UNL     1       1.798   2.338  20.375  0.00  0.00    +0.000 C 
ENDBRANCH  22  24
ENDBRANCH  18  22
ENDBRANCH   1  20
TORSDOF 4
ENDMDL
MODEL 8
REMARK VINA RESULT:      -7.2      2.280      4.636
REMARK  Name = 
REMARK  6 active torsions:
REMARK  status: ('A' for Active; 'I' for Inactive)
REMARK    1  A    between atoms: C_1  and  C_2
REMARK    2  A    between atoms: C_2  and  C_3
REMARK    3  A    between atoms: C_3  and  C_4
REMARK    4  A    between atoms: N_6  and  C_7
REMARK    5  A    between atoms: N_11  and  C_12
REMARK    6  A    between atoms: C_15  and  C_16
REMARK                            x       y       z     vdW  Elec       q    Type
REMARK                         _______ _______ _______ _____ _____    ______ ____
ROOT
ATOM      1  C   UNL     1       3.727   5.805  18.296  0.00  0.00    +0.000 A 
ATOM      2  C   UNL     1       3.734   4.448  18.477  0.00  0.00    +0.000 A 
ATOM      3  C   UNL     1       2.668   4.191  19.350  0.00  0.00    +0.000 A 
ATOM      4  N   UNL     1       2.036   5.291  19.748  0.00  0.00    +0.000 NA
ATOM      5  N   UNL     1       2.638   6.289  19.030  0.00  0.00    +0.000 N 
ATOM      6  C   UNL     1       2.455   2.796  19.798  0.00  0.00    +0.000 C 
ATOM      7  S   UNL     1       4.015   2.002  19.277  0.00  0.00    +0.000 S 
ATOM      8  O   UNL     1       4.915   1.968  20.416  0.00  0.00    +0.000 OA
ATOM      9  O   UNL     1       3.715   0.806  18.518  0.00  0.00    +0.000 OA
ATOM     10  C   UNL     1       4.599   3.301  18.133  0.00  0.00    +0.000 C 
ENDROOT
BRANCH   5  11
ATOM     11  C   UNL     1       2.153   7.622  19.052  0.00  0.00    +0.000 A 
ATOM     12  C   UNL     1       2.236   8.412  17.901  0.00  0.00    +0.000 A 
ATOM     13  C   UNL     1       1.711   9.708  17.909  0.00  0.00    +0.000 A 
ATOM     14  C   UNL     1       1.123  10.236  19.065  0.00  0.00    +0.000 A 
ATOM     15  C   UNL     1       0.562  11.627  19.091  0.00  0.00    +0.000 C 
ATOM     16  C   UNL     1       1.092   9.460  20.228  0.00  0.00    +0.000 A 
ATOM     17  C   UNL     1       1.604   8.164  20.223  0.00  0.00    +0.000 A 
ENDBRANCH   5  11
BRANCH   1  20
ATOM     18  C   UNL     1       6.045   6.558  18.076  0.00  0.00    +0.000 C 
ATOM     19  O   UNL     1       6.378   5.897  19.047  0.00  0.00    +0.000 OA
ATOM     20  N   UNL     1       4.689   6.552  17.629  0.00  0.00    +0.000 N 
ATOM     21  H   UNL     1       4.454   6.926  16.715  0.00  0.00    +0.000 HD
BRANCH  18  22
ATOM     22  C   UNL     1       6.988   7.376  17.233  0.00  0.00    +0.000 C 
BRANCH  22  24
ATOM     23  C   UNL     1       8.298   9.378  18.052  0.00  0.00    +0.000 C 
ATOM     24  C   UNL     1       8.175   7.859  18.052  0.00  0.00    +0.000 C 
ENDBRANCH  22  24
ENDBRANCH  18  22
ENDBRANCH   1  20
TORSDOF 4
ENDMDL
MODEL 9
REMARK VINA RESULT:      -7.2      2.282      4.535
REMARK  Name = 
REMARK  6 active torsions:
REMARK  status: ('A' for Active; 'I' for Inactive)
REMARK    1  A    between atoms: C_1  and  C_2
REMARK    2  A    between atoms: C_2  and  C_3
REMARK    3  A    between atoms: C_3  and  C_4
REMARK    4  A    between atoms: N_6  and  C_7
REMARK    5  A    between atoms: N_11  and  C_12
REMARK    6  A    between atoms: C_15  and  C_16
REMARK                            x       y       z     vdW  Elec       q    Type
REMARK                         _______ _______ _______ _____ _____    ______ ____
ROOT
ATOM      1  C   UNL     1       3.696   5.805  18.291  0.00  0.00    +0.000 A 
ATOM      2  C   UNL     1       3.711   4.449  18.474  0.00  0.00    +0.000 A 
ATOM      3  C   UNL     1       2.643   4.187  19.344  0.00  0.00    +0.000 A 
ATOM      4  N   UNL     1       2.002   5.283  19.737  0.00  0.00    +0.000 NA
ATOM      5  N   UNL     1       2.601   6.284  19.020  0.00  0.00    +0.000 N 
ATOM      6  C   UNL     1       2.438   2.791  19.793  0.00  0.00    +0.000 C 
ATOM      7  S   UNL     1       4.004   2.006  19.280  0.00  0.00    +0.000 S 
ATOM      8  O   UNL     1       4.900   1.981  20.422  0.00  0.00    +0.000 OA
ATOM      9  O   UNL     1       3.715   0.807  18.521  0.00  0.00    +0.000 OA
ATOM     10  C   UNL     1       4.584   3.308  18.136  0.00  0.00    +0.000 C 
ENDROOT
BRANCH   5  11
ATOM     11  C   UNL     1       2.107   7.614  19.038  0.00  0.00    +0.000 A 
ATOM     12  C   UNL     1       1.577   8.144  20.218  0.00  0.00    +0.000 A 
ATOM     13  C   UNL     1       1.138   9.472  20.248  0.00  0.00    +0.000 A 
ATOM     14  C   UNL     1       1.202  10.272  19.101  0.00  0.00    +0.000 A 
ATOM     15  C   UNL     1       0.728  11.696  19.116  0.00  0.00    +0.000 C 
ATOM     16  C   UNL     1       1.684   9.720  17.910  0.00  0.00    +0.000 A 
ATOM     17  C   UNL     1       2.132   8.401  17.878  0.00  0.00    +0.000 A 
ENDBRANCH   5  11
BRANCH   1  20
ATOM     18  C   UNL     1       6.012   6.564  18.073  0.00  0.00    +0.000 C 
ATOM     19  O   UNL     1       6.347   5.900  19.040  0.00  0.00    +0.000 OA
ATOM     20  N   UNL     1       4.655   6.558  17.627  0.00  0.00    +0.000 N 
ATOM     21  H   UNL     1       4.419   6.936  16.715  0.00  0.00    +0.000 HD
BRANCH  18  22
ATOM     22  C   UNL     1       6.952   7.388  17.232  0.00  0.00    +0.000 C 
BRANCH  22  24
ATOM     23  C   UNL     1       8.301   9.367  18.045  0.00  0.00    +0.000 C 
ATOM     24  C   UNL     1       8.151   7.851  18.048  0.00  0.00    +0.000 C 
ENDBRANCH  22  24
ENDBRANCH  18  22
ENDBRANCH   1  20
TORSDOF 4
ENDMDL
