MODEL 1
REMARK VINA RESULT:      -8.4      0.000      0.000
REMARK  Name = 
REMARK  7 active torsions:
REMARK  status: ('A' for Active; 'I' for Inactive)
REMARK    1  A    between atoms: C_1  and  C_2
REMARK    2  A    between atoms: C_2  and  C_22
REMARK    3  A    between atoms: N_3  and  N_4
REMARK    4  A    between atoms: N_4  and  C_5
REMARK    5  A    between atoms: C_14  and  C_15
REMARK    6  A    between atoms: C_15  and  C_16
REMARK    7  A    between atoms: C_25  and  N_26
REMARK                            x       y       z     vdW  Elec       q    Type
REMARK                         _______ _______ _______ _____ _____    ______ ____
ROOT
ATOM      1  C   UNL     1       2.363   6.834  19.506  0.00  0.00    +0.000 A 
ATOM      2  N   UNL     1       1.751   6.009  20.396  0.00  0.00    +0.000 NA
ATOM      3  C   UNL     1       1.844   4.677  20.200  0.00  0.00    +0.000 A 
ATOM      4  C   UNL     1       1.223   3.793  21.077  0.00  0.00    +0.000 A 
ATOM      5  C   UNL     1       1.277   2.408  20.888  0.00  0.00    +0.000 A 
ATOM      6  C   UNL     1       1.977   1.895  19.801  0.00  0.00    +0.000 A 
ATOM      7  C   UNL     1       2.615   2.770  18.923  0.00  0.00    +0.000 A 
ATOM      8  C   UNL     1       2.562   4.146  19.107  0.00  0.00    +0.000 A 
ATOM      9  N   UNL     1       3.196   4.950  18.241  0.00  0.00    +0.000 NA
ATOM     10  C   UNL     1       3.103   6.302  18.442  0.00  0.00    +0.000 A 
ENDROOT
BRANCH   1  11
ATOM     11  N   UNL     1       2.230   8.206  19.792  0.00  0.00    +0.000 N 
ATOM     12  H   UNL     1       2.760   8.361  20.651  0.00  0.00    +0.000 HD
BRANCH  11  15
ATOM     13  C   UNL     1       1.904  10.233  17.833  0.00  0.00    +0.000 C 
ATOM     14  C   UNL     1       0.833   9.707  18.767  0.00  0.00    +0.000 C 
ATOM     15  N   UNL     1       1.006   8.780  19.663  0.00  0.00    +0.000 NA
BRANCH  14  16
ATOM     16  C   UNL     1      -0.534  10.300  18.611  0.00  0.00    +0.000 A 
ATOM     17  C   UNL     1      -1.027  11.237  19.528  0.00  0.00    +0.000 A 
ATOM     18  C   UNL     1      -2.308  11.778  19.371  0.00  0.00    +0.000 A 
ATOM     19  C   UNL     1      -3.096  11.384  18.281  0.00  0.00    +0.000 A 
ATOM     20  C   UNL     1      -2.606  10.462  17.350  0.00  0.00    +0.000 A 
ATOM     21  C   UNL     1      -1.327   9.921  17.521  0.00  0.00    +0.000 A 
BRANCH  19  22
ATOM     22  N   UNL     1      -4.447  11.937  18.120  0.00  0.00    +0.000 N 
ATOM     23  O   UNL     1      -5.024  11.736  17.041  0.00  0.00    +0.000 OA
ATOM     24  O   UNL     1      -4.926  12.576  19.067  0.00  0.00    +0.000 OA
ENDBRANCH  19  22
ENDBRANCH  14  16
ENDBRANCH  11  15
ENDBRANCH   1  11
BRANCH  10  25
ATOM     25  C   UNL     1       3.890   7.141  17.463  0.00  0.00    +0.000 C 
BRANCH  25  26
ATOM     26  C   UNL     1       5.094   6.493  16.803  0.00  0.00    +0.000 A 
ATOM     27  C   UNL     1       6.259   6.290  17.561  0.00  0.00    +0.000 A 
ATOM     28  C   UNL     1       7.368   5.639  17.014  0.00  0.00    +0.000 A 
ATOM     29  C   UNL     1       7.329   5.181  15.699  0.00  0.00    +0.000 A 
ATOM     30  C   UNL     1       6.176   5.358  14.940  0.00  0.00    +0.000 A 
ATOM     31  C   UNL     1       5.064   6.001  15.490  0.00  0.00    +0.000 A 
ENDBRANCH  25  26
ENDBRANCH  10  25
TORSDOF 6
ENDMDL
MODEL 2
REMARK VINA RESULT:      -8.3      0.922      1.129
REMARK  Name = 
REMARK  7 active torsions:
REMARK  status: ('A' for Active; 'I' for Inactive)
REMARK    1  A    between atoms: C_1  and  C_2
REMARK    2  A    between atoms: C_2  and  C_22
REMARK    3  A    between atoms: N_3  and  N_4
REMARK    4  A    between atoms: N_4  and  C_5
REMARK    5  A    between atoms: C_14  and  C_15
REMARK    6  A    between atoms: C_15  and  C_16
REMARK    7  A    between atoms: C_25  and  N_26
REMARK                            x       y       z     vdW  Elec       q    Type
REMARK                         _______ _______ _______ _____ _____    ______ ____
ROOT
ATOM      1  C   UNL     1       2.754   7.145  18.590  0.00  0.00    +0.000 A 
ATOM      2  N   UNL     1       1.881   6.575  19.462  0.00  0.00    +0.000 NA
ATOM      3  C   UNL     1       2.127   5.316  19.880  0.00  0.00    +0.000 A 
ATOM      4  C   UNL     1       1.256   4.685  20.763  0.00  0.00    +0.000 A 
ATOM      5  C   UNL     1       1.467   3.372  21.196  0.00  0.00    +0.000 A 
ATOM      6  C   UNL     1       2.583   2.676  20.742  0.00  0.00    +0.000 A 
ATOM      7  C   UNL     1       3.472   3.302  19.869  0.00  0.00    +0.000 A 
ATOM      8  C   UNL     1       3.263   4.605  19.436  0.00  0.00    +0.000 A 
ATOM      9  N   UNL     1       4.147   5.170  18.601  0.00  0.00    +0.000 NA
ATOM     10  C   UNL     1       3.897   6.448  18.178  0.00  0.00    +0.000 A 
ENDROOT
BRANCH   1  11
ATOM     11  N   UNL     1       2.431   8.464  18.216  0.00  0.00    +0.000 N 
ATOM     12  H   UNL     1       3.097   9.060  18.709  0.00  0.00    +0.000 HD
BRANCH  11  15
ATOM     13  C   UNL     1       1.803  11.213  18.532  0.00  0.00    +0.000 C 
ATOM     14  C   UNL     1       0.813  10.084  18.323  0.00  0.00    +0.000 C 
ATOM     15  N   UNL     1       1.123   8.828  18.186  0.00  0.00    +0.000 NA
BRANCH  14  16
ATOM     16  C   UNL     1      -0.632  10.473  18.245  0.00  0.00    +0.000 A 
ATOM     17  C   UNL     1      -1.157  11.476  19.071  0.00  0.00    +0.000 A 
ATOM     18  C   UNL     1      -2.510  11.826  18.990  0.00  0.00    +0.000 A 
ATOM     19  C   UNL     1      -3.338  11.173  18.068  0.00  0.00    +0.000 A 
ATOM     20  C   UNL     1      -2.819  10.183  17.226  0.00  0.00    +0.000 A 
ATOM     21  C   UNL     1      -1.467   9.835  17.321  0.00  0.00    +0.000 A 
BRANCH  19  22
ATOM     22  N   UNL     1      -4.762  11.525  17.988  0.00  0.00    +0.000 N 
ATOM     23  O   UNL     1      -5.439  11.412  19.020  0.00  0.00    +0.000 OA
ATOM     24  O   UNL     1      -5.201  11.908  16.895  0.00  0.00    +0.000 OA
ENDBRANCH  19  22
ENDBRANCH  14  16
ENDBRANCH  11  15
ENDBRANCH   1  11
BRANCH  10  25
ATOM     25  C   UNL     1       4.965   7.040  17.287  0.00  0.00    +0.000 C 
BRANCH  25  26
ATOM     26  C   UNL     1       5.647   6.103  16.306  0.00  0.00    +0.000 A 
ATOM     27  C   UNL     1       6.933   5.622  16.605  0.00  0.00    +0.000 A 
ATOM     28  C   UNL     1       7.572   4.709  15.763  0.00  0.00    +0.000 A 
ATOM     29  C   UNL     1       6.935   4.261  14.608  0.00  0.00    +0.000 A 
ATOM     30  C   UNL     1       5.654   4.715  14.306  0.00  0.00    +0.000 A 
ATOM     31  C   UNL     1       5.011   5.621  15.152  0.00  0.00    +0.000 A 
ENDBRANCH  25  26
ENDBRANCH  10  25
TORSDOF 6
ENDMDL
MODEL 3
REMARK VINA RESULT:      -8.3      4.500      9.602
REMARK  Name = 
REMARK  7 active torsions:
REMARK  status: ('A' for Active; 'I' for Inactive)
REMARK    1  A    between atoms: C_1  and  C_2
REMARK    2  A    between atoms: C_2  and  C_22
REMARK    3  A    between atoms: N_3  and  N_4
REMARK    4  A    between atoms: N_4  and  C_5
REMARK    5  A    between atoms: C_14  and  C_15
REMARK    6  A    between atoms: C_15  and  C_16
REMARK    7  A    between atoms: C_25  and  N_26
REMARK                            x       y       z     vdW  Elec       q    Type
REMARK                         _______ _______ _______ _____ _____    ______ ____
ROOT
ATOM      1  C   UNL     1       1.120  10.548  18.431  0.00  0.00    +0.000 A 
ATOM      2  N   UNL     1       2.339  11.120  18.251  0.00  0.00    +0.000 NA
ATOM      3  C   UNL     1       2.429  12.465  18.321  0.00  0.00    +0.000 A 
ATOM      4  C   UNL     1       3.653  13.098  18.131  0.00  0.00    +0.000 A 
ATOM      5  C   UNL     1       3.777  14.491  18.170  0.00  0.00    +0.000 A 
ATOM      6  C   UNL     1       2.650  15.268  18.416  0.00  0.00    +0.000 A 
ATOM      7  C   UNL     1       1.420  14.645  18.622  0.00  0.00    +0.000 A 
ATOM      8  C   UNL     1       1.294  13.262  18.582  0.00  0.00    +0.000 A 
ATOM      9  N   UNL     1       0.093  12.705  18.792  0.00  0.00    +0.000 NA
ATOM     10  C   UNL     1       0.002  11.340  18.723  0.00  0.00    +0.000 A 
ENDROOT
BRANCH   1  11
ATOM     11  N   UNL     1       1.116   9.141  18.357  0.00  0.00    +0.000 N 
ATOM     12  H   UNL     1       0.689   8.821  19.227  0.00  0.00    +0.000 HD
BRANCH  11  15
ATOM     13  C   UNL     1       2.061   6.891  19.805  0.00  0.00    +0.000 C 
ATOM     14  C   UNL     1       2.679   7.475  18.551  0.00  0.00    +0.000 C 
ATOM     15  N   UNL     1       2.233   8.513  17.905  0.00  0.00    +0.000 NA
BRANCH  14  16
ATOM     16  C   UNL     1       3.886   6.769  18.014  0.00  0.00    +0.000 A 
ATOM     17  C   UNL     1       4.569   5.816  18.783  0.00  0.00    +0.000 A 
ATOM     18  C   UNL     1       5.698   5.168  18.269  0.00  0.00    +0.000 A 
ATOM     19  C   UNL     1       6.139   5.469  16.974  0.00  0.00    +0.000 A 
ATOM     20  C   UNL     1       5.454   6.406  16.193  0.00  0.00    +0.000 A 
ATOM     21  C   UNL     1       4.331   7.054  16.718  0.00  0.00    +0.000 A 
BRANCH  19  22
ATOM     22  N   UNL     1       7.332   4.803  16.436  0.00  0.00    +0.000 N 
ATOM     23  O   UNL     1       8.074   4.218  17.238  0.00  0.00    +0.000 OA
ATOM     24  O   UNL     1       7.529   4.870  15.215  0.00  0.00    +0.000 OA
ENDBRANCH  19  22
ENDBRANCH  14  16
ENDBRANCH  11  15
ENDBRANCH   1  11
BRANCH  10  25
ATOM     25  C   UNL     1      -1.367  10.781  19.029  0.00  0.00    +0.000 C 
BRANCH  25  26
ATOM     26  C   UNL     1      -2.351  10.682  17.877  0.00  0.00    +0.000 A 
ATOM     27  C   UNL     1      -3.515  11.468  17.905  0.00  0.00    +0.000 A 
ATOM     28  C   UNL     1      -4.415  11.457  16.837  0.00  0.00    +0.000 A 
ATOM     29  C   UNL     1      -4.166  10.661  15.722  0.00  0.00    +0.000 A 
ATOM     30  C   UNL     1      -3.008   9.889  15.670  0.00  0.00    +0.000 A 
ATOM     31  C   UNL     1      -2.103   9.906  16.735  0.00  0.00    +0.000 A 
ENDBRANCH  25  26
ENDBRANCH  10  25
TORSDOF 6
ENDMDL
MODEL 4
REMARK VINA RESULT:      -8.3      0.890      1.349
REMARK  Name = 
REMARK  7 active torsions:
REMARK  status: ('A' for Active; 'I' for Inactive)
REMARK    1  A    between atoms: C_1  and  C_2
REMARK    2  A    between atoms: C_2  and  C_22
REMARK    3  A    between atoms: N_3  and  N_4
REMARK    4  A    between atoms: N_4  and  C_5
REMARK    5  A    between atoms: C_14  and  C_15
REMARK    6  A    between atoms: C_15  and  C_16
REMARK    7  A    between atoms: C_25  and  N_26
REMARK                            x       y       z     vdW  Elec       q    Type
REMARK                         _______ _______ _______ _____ _____    ______ ____
ROOT
ATOM      1  C   UNL     1       2.826   6.990  18.594  0.00  0.00    +0.000 A 
ATOM      2  N   UNL     1       1.936   6.433  19.457  0.00  0.00    +0.000 NA
ATOM      3  C   UNL     1       2.166   5.174  19.886  0.00  0.00    +0.000 A 
ATOM      4  C   UNL     1       1.277   4.556  20.760  0.00  0.00    +0.000 A 
ATOM      5  C   UNL     1       1.472   3.243  21.204  0.00  0.00    +0.000 A 
ATOM      6  C   UNL     1       2.588   2.536  20.770  0.00  0.00    +0.000 A 
ATOM      7  C   UNL     1       3.494   3.149  19.906  0.00  0.00    +0.000 A 
ATOM      8  C   UNL     1       3.302   4.452  19.462  0.00  0.00    +0.000 A 
ATOM      9  N   UNL     1       4.202   5.004  18.636  0.00  0.00    +0.000 NA
ATOM     10  C   UNL     1       3.969   6.282  18.202  0.00  0.00    +0.000 A 
ENDROOT
BRANCH   1  11
ATOM     11  N   UNL     1       2.519   8.309  18.207  0.00  0.00    +0.000 N 
ATOM     12  H   UNL     1       3.230   8.896  18.645  0.00  0.00    +0.000 HD
BRANCH  11  15
ATOM     13  C   UNL     1       1.985  11.096  18.214  0.00  0.00    +0.000 C 
ATOM     14  C   UNL     1       0.955   9.984  18.242  0.00  0.00    +0.000 C 
ATOM     15  N   UNL     1       1.222   8.711  18.244  0.00  0.00    +0.000 NA
BRANCH  14  16
ATOM     16  C   UNL     1      -0.482  10.410  18.241  0.00  0.00    +0.000 A 
ATOM     17  C   UNL     1      -1.406   9.837  17.356  0.00  0.00    +0.000 A 
ATOM     18  C   UNL     1      -2.744  10.249  17.364  0.00  0.00    +0.000 A 
ATOM     19  C   UNL     1      -3.159  11.233  18.271  0.00  0.00    +0.000 A 
ATOM     20  C   UNL     1      -2.248  11.797  19.170  0.00  0.00    +0.000 A 
ATOM     21  C   UNL     1      -0.911  11.385  19.149  0.00  0.00    +0.000 A 
BRANCH  19  22
ATOM     22  N   UNL     1      -4.559  11.678  18.273  0.00  0.00    +0.000 N 
ATOM     23  O   UNL     1      -5.198  11.567  17.218  0.00  0.00    +0.000 OA
ATOM     24  O   UNL     1      -5.014  12.144  19.327  0.00  0.00    +0.000 OA
ENDBRANCH  19  22
ENDBRANCH  14  16
ENDBRANCH  11  15
ENDBRANCH   1  11
BRANCH  10  25
ATOM     25  C   UNL     1       5.054   6.859  17.323  0.00  0.00    +0.000 C 
BRANCH  25  26
ATOM     26  C   UNL     1       5.632   5.955  16.249  0.00  0.00    +0.000 A 
ATOM     27  C   UNL     1       7.007   5.670  16.267  0.00  0.00    +0.000 A 
ATOM     28  C   UNL     1       7.571   4.793  15.336  0.00  0.00    +0.000 A 
ATOM     29  C   UNL     1       6.768   4.185  14.375  0.00  0.00    +0.000 A 
ATOM     30  C   UNL     1       5.400   4.443  14.355  0.00  0.00    +0.000 A 
ATOM     31  C   UNL     1       4.834   5.313  15.290  0.00  0.00    +0.000 A 
ENDBRANCH  25  26
ENDBRANCH  10  25
TORSDOF 6
ENDMDL
MODEL 5
REMARK VINA RESULT:      -8.3      4.486      9.589
REMARK  Name = 
REMARK  7 active torsions:
REMARK  status: ('A' for Active; 'I' for Inactive)
REMARK    1  A    between atoms: C_1  and  C_2
REMARK    2  A    between atoms: C_2  and  C_22
REMARK    3  A    between atoms: N_3  and  N_4
REMARK    4  A    between atoms: N_4  and  C_5
REMARK    5  A    between atoms: C_14  and  C_15
REMARK    6  A    between atoms: C_15  and  C_16
REMARK    7  A    between atoms: C_25  and  N_26
REMARK                            x       y       z     vdW  Elec       q    Type
REMARK                         _______ _______ _______ _____ _____    ______ ____
ROOT
ATOM      1  C   UNL     1       1.054  10.590  18.488  0.00  0.00    +0.000 A 
ATOM      2  N   UNL     1       2.263  11.196  18.352  0.00  0.00    +0.000 NA
ATOM      3  C   UNL     1       2.312  12.543  18.421  0.00  0.00    +0.000 A 
ATOM      4  C   UNL     1       3.525  13.209  18.274  0.00  0.00    +0.000 A 
ATOM      5  C   UNL     1       3.608  14.605  18.314  0.00  0.00    +0.000 A 
ATOM      6  C   UNL     1       2.452  15.351  18.515  0.00  0.00    +0.000 A 
ATOM      7  C   UNL     1       1.233  14.695  18.678  0.00  0.00    +0.000 A 
ATOM      8  C   UNL     1       1.147  13.309  18.637  0.00  0.00    +0.000 A 
ATOM      9  N   UNL     1      -0.045  12.719  18.804  0.00  0.00    +0.000 NA
ATOM     10  C   UNL     1      -0.095  11.352  18.736  0.00  0.00    +0.000 A 
ENDROOT
BRANCH   1  11
ATOM     11  N   UNL     1       1.092   9.184  18.418  0.00  0.00    +0.000 N 
ATOM     12  H   UNL     1       0.749   8.854  19.321  0.00  0.00    +0.000 HD
BRANCH  11  15
ATOM     13  C   UNL     1       2.173   6.917  19.739  0.00  0.00    +0.000 C 
ATOM     14  C   UNL     1       2.696   7.547  18.464  0.00  0.00    +0.000 C 
ATOM     15  N   UNL     1       2.189   8.591  17.877  0.00  0.00    +0.000 NA
BRANCH  14  16
ATOM     16  C   UNL     1       3.879   6.880  17.831  0.00  0.00    +0.000 A 
ATOM     17  C   UNL     1       4.291   7.215  16.534  0.00  0.00    +0.000 A 
ATOM     18  C   UNL     1       5.396   6.580  15.955  0.00  0.00    +0.000 A 
ATOM     19  C   UNL     1       6.098   5.611  16.685  0.00  0.00    +0.000 A 
ATOM     20  C   UNL     1       5.705   5.283  17.987  0.00  0.00    +0.000 A 
ATOM     21  C   UNL     1       4.594   5.917  18.554  0.00  0.00    +0.000 A 
BRANCH  19  22
ATOM     22  N   UNL     1       7.249   4.931  16.076  0.00  0.00    +0.000 N 
ATOM     23  O   UNL     1       7.453   5.119  14.868  0.00  0.00    +0.000 OA
ATOM     24  O   UNL     1       7.942   4.207  16.804  0.00  0.00    +0.000 OA
ENDBRANCH  19  22
ENDBRANCH  14  16
ENDBRANCH  11  15
ENDBRANCH   1  11
BRANCH  10  25
ATOM     25  C   UNL     1      -1.459  10.755  18.993  0.00  0.00    +0.000 C 
BRANCH  25  26
ATOM     26  C   UNL     1      -2.395  10.625  17.805  0.00  0.00    +0.000 A 
ATOM     27  C   UNL     1      -3.575  11.386  17.780  0.00  0.00    +0.000 A 
ATOM     28  C   UNL     1      -4.433  11.346  16.678  0.00  0.00    +0.000 A 
ATOM     29  C   UNL     1      -4.124  10.544  15.582  0.00  0.00    +0.000 A 
ATOM     30  C   UNL     1      -2.950   9.796  15.583  0.00  0.00    +0.000 A 
ATOM     31  C   UNL     1      -2.087   9.842  16.681  0.00  0.00    +0.000 A 
ENDBRANCH  25  26
ENDBRANCH  10  25
TORSDOF 6
ENDMDL
MODEL 6
REMARK VINA RESULT:      -8.2      2.417      3.006
REMARK  Name = 
REMARK  7 active torsions:
REMARK  status: ('A' for Active; 'I' for Inactive)
REMARK    1  A    between atoms: C_1  and  C_2
REMARK    2  A    between atoms: C_2  and  C_22
REMARK    3  A    between atoms: N_3  and  N_4
REMARK    4  A    between atoms: N_4  and  C_5
REMARK    5  A    between atoms: C_14  and  C_15
REMARK    6  A    between atoms: C_15  and  C_16
REMARK    7  A    between atoms: C_25  and  N_26
REMARK                            x       y       z     vdW  Elec       q    Type
REMARK                         _______ _______ _______ _____ _____    ______ ____
ROOT
ATOM      1  C   UNL     1       2.866   6.246  18.215  0.00  0.00    +0.000 A 
ATOM      2  N   UNL     1       1.940   5.681  19.035  0.00  0.00    +0.000 NA
ATOM      3  C   UNL     1       1.851   4.335  19.063  0.00  0.00    +0.000 A 
ATOM      4  C   UNL     1       0.911   3.710  19.876  0.00  0.00    +0.000 A 
ATOM      5  C   UNL     1       0.774   2.318  19.911  0.00  0.00    +0.000 A 
ATOM      6  C   UNL     1       1.605   1.532  19.120  0.00  0.00    +0.000 A 
ATOM      7  C   UNL     1       2.562   2.145  18.311  0.00  0.00    +0.000 A 
ATOM      8  C   UNL     1       2.698   3.527  18.274  0.00  0.00    +0.000 A 
ATOM      9  N   UNL     1       3.636   4.074  17.487  0.00  0.00    +0.000 NA
ATOM     10  C   UNL     1       3.727   5.440  17.459  0.00  0.00    +0.000 A 
ENDROOT
BRANCH   1  11
ATOM     11  N   UNL     1       2.903   7.653  18.256  0.00  0.00    +0.000 N 
ATOM     12  H   UNL     1       3.876   7.908  18.082  0.00  0.00    +0.000 HD
BRANCH  11  15
ATOM     13  C   UNL     1       1.105   9.722  17.520  0.00  0.00    +0.000 C 
ATOM     14  C   UNL     1       1.391   9.239  18.928  0.00  0.00    +0.000 C 
ATOM     15  N   UNL     1       2.224   8.292  19.244  0.00  0.00    +0.000 NA
BRANCH  14  16
ATOM     16  C   UNL     1       0.619   9.904  20.027  0.00  0.00    +0.000 A 
ATOM     17  C   UNL     1       0.648   9.405  21.336  0.00  0.00    +0.000 A 
ATOM     18  C   UNL     1      -0.082  10.035  22.351  0.00  0.00    +0.000 A 
ATOM     19  C   UNL     1      -0.836  11.177  22.053  0.00  0.00    +0.000 A 
ATOM     20  C   UNL     1      -0.857  11.694  20.753  0.00  0.00    +0.000 A 
ATOM     21  C   UNL     1      -0.130  11.052  19.744  0.00  0.00    +0.000 A 
BRANCH  19  22
ATOM     22  N   UNL     1      -1.615  11.834  23.111  0.00  0.00    +0.000 N 
ATOM     23  O   UNL     1      -1.175  12.896  23.574  0.00  0.00    +0.000 OA
ATOM     24  O   UNL     1      -2.661  11.284  23.483  0.00  0.00    +0.000 OA
ENDBRANCH  19  22
ENDBRANCH  14  16
ENDBRANCH  11  15
ENDBRANCH   1  11
BRANCH  10  25
ATOM     25  C   UNL     1       4.843   5.982  16.597  0.00  0.00    +0.000 C 
BRANCH  25  26
ATOM     26  C   UNL     1       6.114   6.423  17.302  0.00  0.00    +0.000 A 
ATOM     27  C   UNL     1       6.639   7.696  17.025  0.00  0.00    +0.000 A 
ATOM     28  C   UNL     1       7.769   8.169  17.697  0.00  0.00    +0.000 A 
ATOM     29  C   UNL     1       8.391   7.376  18.658  0.00  0.00    +0.000 A 
ATOM     30  C   UNL     1       7.873   6.119  18.957  0.00  0.00    +0.000 A 
ATOM     31  C   UNL     1       6.738   5.649  18.292  0.00  0.00    +0.000 A 
ENDBRANCH  25  26
ENDBRANCH  10  25
TORSDOF 6
ENDMDL
MODEL 7
REMARK VINA RESULT:      -8.2      2.324      2.647
REMARK  Name = 
REMARK  7 active torsions:
REMARK  status: ('A' for Active; 'I' for Inactive)
REMARK    1  A    between atoms: C_1  and  C_2
REMARK    2  A    between atoms: C_2  and  C_22
REMARK    3  A    between atoms: N_3  and  N_4
REMARK    4  A    between atoms: N_4  and  C_5
REMARK    5  A    between atoms: C_14  and  C_15
REMARK    6  A    between atoms: C_15  and  C_16
REMARK    7  A    between atoms: C_25  and  N_26
REMARK                            x       y       z     vdW  Elec       q    Type
REMARK                         _______ _______ _______ _____ _____    ______ ____
ROOT
ATOM      1  C   UNL     1       2.763   6.633  19.006  0.00  0.00    +0.000 A 
ATOM      2  N   UNL     1       2.066   5.957  19.956  0.00  0.00    +0.000 NA
ATOM      3  C   UNL     1       2.487   4.721  20.297  0.00  0.00    +0.000 A 
ATOM      4  C   UNL     1       1.798   3.984  21.255  0.00  0.00    +0.000 A 
ATOM      5  C   UNL     1       2.191   2.690  21.614  0.00  0.00    +0.000 A 
ATOM      6  C   UNL     1       3.306   2.124  21.005  0.00  0.00    +0.000 A 
ATOM      7  C   UNL     1       4.014   2.857  20.054  0.00  0.00    +0.000 A 
ATOM      8  C   UNL     1       3.624   4.142  19.695  0.00  0.00    +0.000 A 
ATOM      9  N   UNL     1       4.338   4.813  18.780  0.00  0.00    +0.000 NA
ATOM     10  C   UNL     1       3.911   6.068  18.435  0.00  0.00    +0.000 A 
ENDROOT
BRANCH   1  11
ATOM     11  N   UNL     1       2.267   7.919  18.719  0.00  0.00    +0.000 N 
ATOM     12  H   UNL     1       3.049   8.430  18.307  0.00  0.00    +0.000 HD
BRANCH  11  15
ATOM     13  C   UNL     1       1.521  10.617  18.252  0.00  0.00    +0.000 C 
ATOM     14  C   UNL     1       1.138   9.775  19.452  0.00  0.00    +0.000 C 
ATOM     15  N   UNL     1       1.496   8.539  19.650  0.00  0.00    +0.000 NA
BRANCH  14  16
ATOM     16  C   UNL     1       0.253  10.430  20.469  0.00  0.00    +0.000 A 
ATOM     17  C   UNL     1       0.275  10.032  21.812  0.00  0.00    +0.000 A 
ATOM     18  C   UNL     1      -0.561  10.651  22.748  0.00  0.00    +0.000 A 
ATOM     19  C   UNL     1      -1.416  11.682  22.337  0.00  0.00    +0.000 A 
ATOM     20  C   UNL     1      -1.432  12.099  21.002  0.00  0.00    +0.000 A 
ATOM     21  C   UNL     1      -0.598  11.468  20.072  0.00  0.00    +0.000 A 
BRANCH  19  22
ATOM     22  N   UNL     1      -2.306  12.324  23.313  0.00  0.00    +0.000 N 
ATOM     23  O   UNL     1      -3.342  11.721  23.630  0.00  0.00    +0.000 OA
ATOM     24  O   UNL     1      -1.972  13.432  23.757  0.00  0.00    +0.000 OA
ENDBRANCH  19  22
ENDBRANCH  14  16
ENDBRANCH  11  15
ENDBRANCH   1  11
BRANCH  10  25
ATOM     25  C   UNL     1       4.797   6.786  17.444  0.00  0.00    +0.000 C 
BRANCH  25  26
ATOM     26  C   UNL     1       5.496   5.939  16.396  0.00  0.00    +0.000 A 
ATOM     27  C   UNL     1       6.890   5.779  16.468  0.00  0.00    +0.000 A 
ATOM     28  C   UNL     1       7.567   4.956  15.564  0.00  0.00    +0.000 A 
ATOM     29  C   UNL     1       6.860   4.280  14.572  0.00  0.00    +0.000 A 
ATOM     30  C   UNL     1       5.476   4.414  14.497  0.00  0.00    +0.000 A 
ATOM     31  C   UNL     1       4.798   5.230  15.407  0.00  0.00    +0.000 A 
ENDBRANCH  25  26
ENDBRANCH  10  25
TORSDOF 6
ENDMDL
MODEL 8
REMARK VINA RESULT:      -8.2      4.007      9.572
REMARK  Name = 
REMARK  7 active torsions:
REMARK  status: ('A' for Active; 'I' for Inactive)
REMARK    1  A    between atoms: C_1  and  C_2
REMARK    2  A    between atoms: C_2  and  C_22
REMARK    3  A    between atoms: N_3  and  N_4
REMARK    4  A    between atoms: N_4  and  C_5
REMARK    5  A    between atoms: C_14  and  C_15
REMARK    6  A    between atoms: C_15  and  C_16
REMARK    7  A    between atoms: C_25  and  N_26
REMARK                            x       y       z     vdW  Elec       q    Type
REMARK                         _______ _______ _______ _____ _____    ______ ____
ROOT
ATOM      1  C   UNL     1      -0.239  10.714  19.124  0.00  0.00    +0.000 A 
ATOM      2  N   UNL     1      -0.671  10.191  17.946  0.00  0.00    +0.000 NA
ATOM      3  C   UNL     1      -1.905  10.525  17.515  0.00  0.00    +0.000 A 
ATOM      4  C   UNL     1      -2.397  10.006  16.322  0.00  0.00    +0.000 A 
ATOM      5  C   UNL     1      -3.681  10.311  15.858  0.00  0.00    +0.000 A 
ATOM      6  C   UNL     1      -4.489  11.164  16.602  0.00  0.00    +0.000 A 
ATOM      7  C   UNL     1      -4.003  11.703  17.793  0.00  0.00    +0.000 A 
ATOM      8  C   UNL     1      -2.729  11.400  18.256  0.00  0.00    +0.000 A 
ATOM      9  N   UNL     1      -2.300  11.946  19.403  0.00  0.00    +0.000 NA
ATOM     10  C   UNL     1      -1.046  11.608  19.839  0.00  0.00    +0.000 A 
ENDROOT
BRANCH   1  11
ATOM     11  N   UNL     1       1.063  10.326  19.494  0.00  0.00    +0.000 N 
ATOM     12  H   UNL     1       1.665  11.113  19.246  0.00  0.00    +0.000 HD
BRANCH  11  15
ATOM     13  C   UNL     1       1.327   8.469  21.623  0.00  0.00    +0.000 C 
ATOM     14  C   UNL     1       1.597   8.198  20.156  0.00  0.00    +0.000 C 
ATOM     15  N   UNL     1       1.475   9.067  19.195  0.00  0.00    +0.000 NA
BRANCH  14  16
ATOM     16  C   UNL     1       2.011   6.802  19.804  0.00  0.00    +0.000 A 
ATOM     17  C   UNL     1       1.740   5.728  20.663  0.00  0.00    +0.000 A 
ATOM     18  C   UNL     1       2.138   4.430  20.322  0.00  0.00    +0.000 A 
ATOM     19  C   UNL     1       2.801   4.206  19.109  0.00  0.00    +0.000 A 
ATOM     20  C   UNL     1       3.060   5.269  18.237  0.00  0.00    +0.000 A 
ATOM     21  C   UNL     1       2.666   6.564  18.590  0.00  0.00    +0.000 A 
BRANCH  19  22
ATOM     22  N   UNL     1       3.233   2.848  18.753  0.00  0.00    +0.000 N 
ATOM     23  O   UNL     1       2.572   2.241  17.898  0.00  0.00    +0.000 OA
ATOM     24  O   UNL     1       4.227   2.388  19.332  0.00  0.00    +0.000 OA
ENDBRANCH  19  22
ENDBRANCH  14  16
ENDBRANCH  11  15
ENDBRANCH   1  11
BRANCH  10  25
ATOM     25  C   UNL     1      -0.608  12.306  21.105  0.00  0.00    +0.000 C 
BRANCH  25  26
ATOM     26  C   UNL     1      -1.699  12.794  22.043  0.00  0.00    +0.000 A 
ATOM     27  C   UNL     1      -2.331  11.870  22.891  0.00  0.00    +0.000 A 
ATOM     28  C   UNL     1      -3.294  12.284  23.814  0.00  0.00    +0.000 A 
ATOM     29  C   UNL     1      -3.640  13.630  23.905  0.00  0.00    +0.000 A 
ATOM     30  C   UNL     1      -3.010  14.562  23.083  0.00  0.00    +0.000 A 
ATOM     31  C   UNL     1      -2.041  14.149  22.166  0.00  0.00    +0.000 A 
ENDBRANCH  25  26
ENDBRANCH  10  25
TORSDOF 6
ENDMDL
MODEL 9
REMARK VINA RESULT:      -8.1      2.210      2.800
REMARK  Name = 
REMARK  7 active torsions:
REMARK  status: ('A' for Active; 'I' for Inactive)
REMARK    1  A    between atoms: C_1  and  C_2
REMARK    2  A    between atoms: C_2  and  C_22
REMARK    3  A    between atoms: N_3  and  N_4
REMARK    4  A    between atoms: N_4  and  C_5
REMARK    5  A    between atoms: C_14  and  C_15
REMARK    6  A    between atoms: C_15  and  C_16
REMARK    7  A    between atoms: C_25  and  N_26
REMARK                            x       y       z     vdW  Elec       q    Type
REMARK                         _______ _______ _______ _____ _____    ______ ____
ROOT
ATOM      1  C   UNL     1       2.644   7.029  18.819  0.00  0.00    +0.000 A 
ATOM      2  N   UNL     1       1.986   6.438  19.851  0.00  0.00    +0.000 NA
ATOM      3  C   UNL     1       2.335   5.180  20.192  0.00  0.00    +0.000 A 
ATOM      4  C   UNL     1       1.681   4.528  21.233  0.00  0.00    +0.000 A 
ATOM      5  C   UNL     1       1.999   3.215  21.595  0.00  0.00    +0.000 A 
ATOM      6  C   UNL     1       3.001   2.541  20.905  0.00  0.00    +0.000 A 
ATOM      7  C   UNL     1       3.673   3.188  19.869  0.00  0.00    +0.000 A 
ATOM      8  C   UNL     1       3.358   4.491  19.506  0.00  0.00    +0.000 A 
ATOM      9  N   UNL     1       4.035   5.077  18.508  0.00  0.00    +0.000 NA
ATOM     10  C   UNL     1       3.682   6.355  18.163  0.00  0.00    +0.000 A 
ENDROOT
BRANCH   1  11
ATOM     11  N   UNL     1       2.231   8.346  18.538  0.00  0.00    +0.000 N 
ATOM     12  H   UNL     1       3.022   8.789  18.069  0.00  0.00    +0.000 HD
BRANCH  11  15
ATOM     13  C   UNL     1      -0.105   9.773  17.789  0.00  0.00    +0.000 C 
ATOM     14  C   UNL     1       0.492   9.694  19.180  0.00  0.00    +0.000 C 
ATOM     15  N   UNL     1       1.568   9.037  19.501  0.00  0.00    +0.000 NA
BRANCH  14  16
ATOM     16  C   UNL     1      -0.251  10.416  20.263  0.00  0.00    +0.000 A 
ATOM     17  C   UNL     1      -1.111  11.481  19.964  0.00  0.00    +0.000 A 
ATOM     18  C   UNL     1      -1.794  12.149  20.988  0.00  0.00    +0.000 A 
ATOM     19  C   UNL     1      -1.620  11.740  22.316  0.00  0.00    +0.000 A 
ATOM     20  C   UNL     1      -0.777  10.666  22.622  0.00  0.00    +0.000 A 
ATOM     21  C   UNL     1      -0.093  10.011  21.593  0.00  0.00    +0.000 A 
BRANCH  19  22
ATOM     22  N   UNL     1      -2.323  12.447  23.395  0.00  0.00    +0.000 N 
ATOM     23  O   UNL     1      -3.391  11.963  23.798  0.00  0.00    +0.000 OA
ATOM     24  O   UNL     1      -1.811  13.487  23.833  0.00  0.00    +0.000 OA
ENDBRANCH  19  22
ENDBRANCH  14  16
ENDBRANCH  11  15
ENDBRANCH   1  11
BRANCH  10  25
ATOM     25  C   UNL     1       4.526   6.970  17.071  0.00  0.00    +0.000 C 
BRANCH  25  26
ATOM     26  C   UNL     1       5.424   6.038  16.278  0.00  0.00    +0.000 A 
ATOM     27  C   UNL     1       4.919   5.430  15.117  0.00  0.00    +0.000 A 
ATOM     28  C   UNL     1       5.729   4.616  14.321  0.00  0.00    +0.000 A 
ATOM     29  C   UNL     1       7.058   4.397  14.674  0.00  0.00    +0.000 A 
ATOM     30  C   UNL     1       7.580   5.006  15.813  0.00  0.00    +0.000 A 
ATOM     31  C   UNL     1       6.773   5.827  16.604  0.00  0.00    +0.000 A 
ENDBRANCH  25  26
ENDBRANCH  10  25
TORSDOF 6
ENDMDL
