MODEL 1
REMARK VINA RESULT:      -8.5      0.000      0.000
REMARK  Name = 
REMARK  11 active torsions:
REMARK  status: ('A' for Active; 'I' for Inactive)
REMARK    1  A    between atoms: C_1  and  C_2
REMARK    2  A    between atoms: C_5  and  N_6
REMARK    3  A    between atoms: N_6  and  S_7
REMARK    4  A    between atoms: S_7  and  C_10
REMARK    5  A    between atoms: C_13  and  N_14
REMARK    6  A    between atoms: C_19  and  C_20
REMARK    7  A    between atoms: C_24  and  O_25
REMARK    8  A    between atoms: O_25  and  C_26
REMARK    9  A    between atoms: C_26  and  C_27
REMARK   10  A    between atoms: C_26  and  C_28
REMARK   11  A    between atoms: C_34  and  C_35
REMARK                            x       y       z     vdW  Elec       q    Type
REMARK                         _______ _______ _______ _____ _____    ______ ____
ROOT
ATOM      1  N   UNL     1       1.905   8.657  18.480  0.00  0.00    +0.000 N 
ATOM      2  C   UNL     1       2.324   7.416  18.973  0.00  0.00    +0.000 A 
ATOM      3  N   UNL     1       1.565   6.756  19.857  0.00  0.00    +0.000 NA
ATOM      4  C   UNL     1       2.011   5.594  20.338  0.00  0.00    +0.000 A 
ATOM      5  C   UNL     1       3.198   5.046  19.949  0.00  0.00    +0.000 A 
ATOM      6  C   UNL     1       3.918   5.764  19.011  0.00  0.00    +0.000 A 
ATOM      7  N   UNL     1       3.498   6.960  18.533  0.00  0.00    +0.000 NA
ATOM      8  H   UNL     1       2.653   9.060  17.936  0.00  0.00    +0.000 HD
ENDROOT
BRANCH   6   9
ATOM      9  C   UNL     1       5.136   5.239  18.378  0.00  0.00    +0.000 A 
ATOM     10  C   UNL     1       6.414   5.543  18.874  0.00  0.00    +0.000 A 
ATOM     11  C   UNL     1       7.560   5.146  18.185  0.00  0.00    +0.000 A 
ATOM     12  C   UNL     1       7.439   4.469  16.968  0.00  0.00    +0.000 A 
ATOM     13  C   UNL     1       6.184   4.156  16.442  0.00  0.00    +0.000 A 
ATOM     14  C   UNL     1       5.051   4.507  17.181  0.00  0.00    +0.000 A 
ATOM     15  F   UNL     1       3.827   4.195  16.728  0.00  0.00    +0.000 F 
BRANCH  13  16
ATOM     16  O   UNL     1       6.202   3.566  15.206  0.00  0.00    +0.000 OA
BRANCH  16  17
ATOM     17  C   UNL     1       6.088   4.387  14.034  0.00  0.00    +0.000 C 
ATOM     18  C   UNL     1       7.419   5.055  13.680  0.00  0.00    +0.000 C 
ATOM     19  C   UNL     1       5.658   3.479  12.888  0.00  0.00    +0.000 C 
ENDBRANCH  16  17
ENDBRANCH  13  16
ENDBRANCH   6   9
BRANCH   1  23
ATOM     20  C   UNL     1      -0.964  11.373  19.947  0.00  0.00    +0.000 A 
ATOM     21  C   UNL     1      -1.125  10.789  18.687  0.00  0.00    +0.000 A 
ATOM     22  C   UNL     1      -0.184   9.856  18.230  0.00  0.00    +0.000 A 
ATOM     23  C   UNL     1       0.940   9.535  19.002  0.00  0.00    +0.000 A 
ATOM     24  C   UNL     1       1.043  10.111  20.278  0.00  0.00    +0.000 A 
ATOM     25  C   UNL     1       0.118  11.041  20.746  0.00  0.00    +0.000 A 
BRANCH  20  26
ATOM     26  S   UNL     1      -2.135  12.579  20.527  0.00  0.00    +0.000 S 
ATOM     27  O   UNL     1      -3.380  12.280  19.844  0.00  0.00    +0.000 OA
ATOM     28  O   UNL     1      -1.513  13.881  20.438  0.00  0.00    +0.000 OA
BRANCH  26  29
ATOM     29  N   UNL     1      -2.236  12.180  22.144  0.00  0.00    +0.000 N 
ATOM     30  H   UNL     1      -2.586  11.284  22.455  0.00  0.00    +0.000 HD
BRANCH  29  35
ATOM     31  C   UNL     1      -2.654  15.948  25.390  0.00  0.00    +0.000 C 
ATOM     32  C   UNL     1      -2.160  14.892  24.475  0.00  0.00    +0.000 A 
ATOM     33  N   UNL     1      -0.847  14.668  24.345  0.00  0.00    +0.000 NA
ATOM     34  O   UNL     1      -0.736  13.615  23.451  0.00  0.00    +0.000 OA
ATOM     35  C   UNL     1      -1.976  13.220  23.057  0.00  0.00    +0.000 A 
ATOM     36  C   UNL     1      -2.925  14.017  23.656  0.00  0.00    +0.000 A 
ATOM     37  C   UNL     1      -4.397  13.979  23.517  0.00  0.00    +0.000 C 
ENDBRANCH  29  35
ENDBRANCH  26  29
ENDBRANCH  20  26
ENDBRANCH   1  23
TORSDOF 7
ENDMDL
MODEL 2
REMARK VINA RESULT:      -8.5      1.936      2.497
REMARK  Name = 
REMARK  11 active torsions:
REMARK  status: ('A' for Active; 'I' for Inactive)
REMARK    1  A    between atoms: C_1  and  C_2
REMARK    2  A    between atoms: C_5  and  N_6
REMARK    3  A    between atoms: N_6  and  S_7
REMARK    4  A    between atoms: S_7  and  C_10
REMARK    5  A    between atoms: C_13  and  N_14
REMARK    6  A    between atoms: C_19  and  C_20
REMARK    7  A    between atoms: C_24  and  O_25
REMARK    8  A    between atoms: O_25  and  C_26
REMARK    9  A    between atoms: C_26  and  C_27
REMARK   10  A    between atoms: C_26  and  C_28
REMARK   11  A    between atoms: C_34  and  C_35
REMARK                            x       y       z     vdW  Elec       q    Type
REMARK                         _______ _______ _______ _____ _____    ______ ____
ROOT
ATOM      1  N   UNL     1       1.929   8.561  18.425  0.00  0.00    +0.000 N 
ATOM      2  C   UNL     1       2.363   7.334  18.938  0.00  0.00    +0.000 A 
ATOM      3  N   UNL     1       1.602   6.668  19.816  0.00  0.00    +0.000 NA
ATOM      4  C   UNL     1       2.062   5.520  20.318  0.00  0.00    +0.000 A 
ATOM      5  C   UNL     1       3.266   4.992  19.956  0.00  0.00    +0.000 A 
ATOM      6  C   UNL     1       3.989   5.714  19.023  0.00  0.00    +0.000 A 
ATOM      7  N   UNL     1       3.554   6.897  18.525  0.00  0.00    +0.000 NA
ATOM      8  H   UNL     1       2.679   8.974  17.890  0.00  0.00    +0.000 HD
ENDROOT
BRANCH   6   9
ATOM      9  C   UNL     1       5.229   5.207  18.417  0.00  0.00    +0.000 A 
ATOM     10  C   UNL     1       6.489   5.503  18.962  0.00  0.00    +0.000 A 
ATOM     11  C   UNL     1       7.658   5.125  18.301  0.00  0.00    +0.000 A 
ATOM     12  C   UNL     1       7.577   4.476  17.065  0.00  0.00    +0.000 A 
ATOM     13  C   UNL     1       6.341   4.172  16.492  0.00  0.00    +0.000 A 
ATOM     14  C   UNL     1       5.184   4.503  17.202  0.00  0.00    +0.000 A 
ATOM     15  F   UNL     1       3.976   4.198  16.702  0.00  0.00    +0.000 F 
BRANCH  13  16
ATOM     16  O   UNL     1       6.402   3.611  15.243  0.00  0.00    +0.000 OA
BRANCH  16  17
ATOM     17  C   UNL     1       6.195   4.440  14.090  0.00  0.00    +0.000 C 
ATOM     18  C   UNL     1       7.484   5.144  13.662  0.00  0.00    +0.000 C 
ATOM     19  C   UNL     1       5.716   3.532  12.964  0.00  0.00    +0.000 C 
ENDBRANCH  16  17
ENDBRANCH  13  16
ENDBRANCH   6   9
BRANCH   1  23
ATOM     20  C   UNL     1      -0.998  11.247  19.831  0.00  0.00    +0.000 A 
ATOM     21  C   UNL     1      -0.968  10.879  18.483  0.00  0.00    +0.000 A 
ATOM     22  C   UNL     1      -0.015   9.953  18.038  0.00  0.00    +0.000 A 
ATOM     23  C   UNL     1       0.937   9.425  18.920  0.00  0.00    +0.000 A 
ATOM     24  C   UNL     1       0.847   9.787  20.273  0.00  0.00    +0.000 A 
ATOM     25  C   UNL     1      -0.094  10.706  20.731  0.00  0.00    +0.000 A 
BRANCH  20  26
ATOM     26  S   UNL     1      -2.185  12.441  20.404  0.00  0.00    +0.000 S 
ATOM     27  O   UNL     1      -2.238  12.283  21.846  0.00  0.00    +0.000 OA
ATOM     28  O   UNL     1      -3.368  12.321  19.583  0.00  0.00    +0.000 OA
BRANCH  26  29
ATOM     29  N   UNL     1      -1.430  13.871  19.992  0.00  0.00    +0.000 N 
ATOM     30  H   UNL     1      -1.776  14.464  19.249  0.00  0.00    +0.000 HD
BRANCH  29  35
ATOM     31  C   UNL     1       3.423  14.542  20.937  0.00  0.00    +0.000 C 
ATOM     32  C   UNL     1       1.951  14.399  21.030  0.00  0.00    +0.000 A 
ATOM     33  N   UNL     1       1.325  14.579  22.199  0.00  0.00    +0.000 NA
ATOM     34  O   UNL     1      -0.023  14.401  21.929  0.00  0.00    +0.000 OA
ATOM     35  C   UNL     1      -0.190  14.119  20.609  0.00  0.00    +0.000 A 
ATOM     36  C   UNL     1       1.039  14.076  19.989  0.00  0.00    +0.000 A 
ATOM     37  C   UNL     1       1.358  13.788  18.573  0.00  0.00    +0.000 C 
ENDBRANCH  29  35
ENDBRANCH  26  29
ENDBRANCH  20  26
ENDBRANCH   1  23
TORSDOF 7
ENDMDL
MODEL 3
REMARK VINA RESULT:      -8.4      1.796      2.455
REMARK  Name = 
REMARK  11 active torsions:
REMARK  status: ('A' for Active; 'I' for Inactive)
REMARK    1  A    between atoms: C_1  and  C_2
REMARK    2  A    between atoms: C_5  and  N_6
REMARK    3  A    between atoms: N_6  and  S_7
REMARK    4  A    between atoms: S_7  and  C_10
REMARK    5  A    between atoms: C_13  and  N_14
REMARK    6  A    between atoms: C_19  and  C_20
REMARK    7  A    between atoms: C_24  and  O_25
REMARK    8  A    between atoms: O_25  and  C_26
REMARK    9  A    between atoms: C_26  and  C_27
REMARK   10  A    between atoms: C_26  and  C_28
REMARK   11  A    between atoms: C_34  and  C_35
REMARK                            x       y       z     vdW  Elec       q    Type
REMARK                         _______ _______ _______ _____ _____    ______ ____
ROOT
ATOM      1  N   UNL     1       1.918   8.473  19.620  0.00  0.00    +0.000 N 
ATOM      2  C   UNL     1       2.280   7.135  19.811  0.00  0.00    +0.000 A 
ATOM      3  N   UNL     1       1.497   6.325  20.536  0.00  0.00    +0.000 NA
ATOM      4  C   UNL     1       1.890   5.066  20.734  0.00  0.00    +0.000 A 
ATOM      5  C   UNL     1       3.048   4.569  20.211  0.00  0.00    +0.000 A 
ATOM      6  C   UNL     1       3.795   5.448  19.448  0.00  0.00    +0.000 A 
ATOM      7  N   UNL     1       3.429   6.739  19.261  0.00  0.00    +0.000 NA
ATOM      8  H   UNL     1       2.680   8.955  19.169  0.00  0.00    +0.000 HD
ENDROOT
BRANCH   6   9
ATOM      9  C   UNL     1       4.984   5.027  18.693  0.00  0.00    +0.000 A 
ATOM     10  C   UNL     1       6.280   5.379  19.102  0.00  0.00    +0.000 A 
ATOM     11  C   UNL     1       7.385   5.084  18.303  0.00  0.00    +0.000 A 
ATOM     12  C   UNL     1       7.200   4.463  17.065  0.00  0.00    +0.000 A 
ATOM     13  C   UNL     1       5.925   4.105  16.624  0.00  0.00    +0.000 A 
ATOM     14  C   UNL     1       4.839   4.352  17.468  0.00  0.00    +0.000 A 
ATOM     15  F   UNL     1       3.601   3.993  17.097  0.00  0.00    +0.000 F 
BRANCH  13  16
ATOM     16  O   UNL     1       5.873   3.580  15.359  0.00  0.00    +0.000 OA
BRANCH  16  17
ATOM     17  C   UNL     1       5.829   4.467  14.232  0.00  0.00    +0.000 C 
ATOM     18  C   UNL     1       7.225   4.960  13.846  0.00  0.00    +0.000 C 
ATOM     19  C   UNL     1       5.228   3.686  13.069  0.00  0.00    +0.000 C 
ENDBRANCH  16  17
ENDBRANCH  13  16
ENDBRANCH   6   9
BRANCH   1  23
ATOM     20  C   UNL     1      -0.785  10.916  21.739  0.00  0.00    +0.000 A 
ATOM     21  C   UNL     1      -0.765  10.933  20.341  0.00  0.00    +0.000 A 
ATOM     22  C   UNL     1       0.110  10.085  19.649  0.00  0.00    +0.000 A 
ATOM     23  C   UNL     1       0.997   9.252  20.343  0.00  0.00    +0.000 A 
ATOM     24  C   UNL     1       0.917   9.232  21.744  0.00  0.00    +0.000 A 
ATOM     25  C   UNL     1       0.054  10.069  22.447  0.00  0.00    +0.000 A 
BRANCH  20  26
ATOM     26  S   UNL     1      -1.871  12.006  22.630  0.00  0.00    +0.000 S 
ATOM     27  O   UNL     1      -1.034  13.092  23.107  0.00  0.00    +0.000 OA
ATOM     28  O   UNL     1      -2.663  11.203  23.534  0.00  0.00    +0.000 OA
BRANCH  26  29
ATOM     29  N   UNL     1      -2.879  12.529  21.407  0.00  0.00    +0.000 N 
ATOM     30  H   UNL     1      -2.564  12.610  20.450  0.00  0.00    +0.000 HD
BRANCH  29  35
ATOM     31  C   UNL     1      -7.746  13.576  21.753  0.00  0.00    +0.000 C 
ATOM     32  C   UNL     1      -6.280  13.495  21.951  0.00  0.00    +0.000 A 
ATOM     33  N   UNL     1      -5.698  14.123  22.980  0.00  0.00    +0.000 NA
ATOM     34  O   UNL     1      -4.349  13.821  22.885  0.00  0.00    +0.000 OA
ATOM     35  C   UNL     1      -4.136  13.019  21.807  0.00  0.00    +0.000 A 
ATOM     36  C   UNL     1      -5.329  12.800  21.155  0.00  0.00    +0.000 A 
ATOM     37  C   UNL     1      -5.589  12.012  19.930  0.00  0.00    +0.000 C 
ENDBRANCH  29  35
ENDBRANCH  26  29
ENDBRANCH  20  26
ENDBRANCH   1  23
TORSDOF 7
ENDMDL
MODEL 4
REMARK VINA RESULT:      -8.4      3.823     10.862
REMARK  Name = 
REMARK  11 active torsions:
REMARK  status: ('A' for Active; 'I' for Inactive)
REMARK    1  A    between atoms: C_1  and  C_2
REMARK    2  A    between atoms: C_5  and  N_6
REMARK    3  A    between atoms: N_6  and  S_7
REMARK    4  A    between atoms: S_7  and  C_10
REMARK    5  A    between atoms: C_13  and  N_14
REMARK    6  A    between atoms: C_19  and  C_20
REMARK    7  A    between atoms: C_24  and  O_25
REMARK    8  A    between atoms: O_25  and  C_26
REMARK    9  A    between atoms: C_26  and  C_27
REMARK   10  A    between atoms: C_26  and  C_28
REMARK   11  A    between atoms: C_34  and  C_35
REMARK                            x       y       z     vdW  Elec       q    Type
REMARK                         _______ _______ _______ _____ _____    ______ ____
ROOT
ATOM      1  N   UNL     1       1.375   9.037  19.733  0.00  0.00    +0.000 N 
ATOM      2  C   UNL     1       0.706   9.543  20.853  0.00  0.00    +0.000 A 
ATOM      3  N   UNL     1       0.707   8.854  22.002  0.00  0.00    +0.000 NA
ATOM      4  C   UNL     1       0.026   9.344  23.039  0.00  0.00    +0.000 A 
ATOM      5  C   UNL     1      -0.654  10.524  22.980  0.00  0.00    +0.000 A 
ATOM      6  C   UNL     1      -0.591  11.199  21.774  0.00  0.00    +0.000 A 
ATOM      7  N   UNL     1       0.069  10.705  20.699  0.00  0.00    +0.000 NA
ATOM      8  H   UNL     1       1.157   9.616  18.935  0.00  0.00    +0.000 HD
ENDROOT
BRANCH   6   9
ATOM      9  C   UNL     1      -1.139  12.551  21.595  0.00  0.00    +0.000 A 
ATOM     10  C   UNL     1      -2.517  12.807  21.695  0.00  0.00    +0.000 A 
ATOM     11  C   UNL     1      -3.032  14.067  21.392  0.00  0.00    +0.000 A 
ATOM     12  C   UNL     1      -2.175  15.079  20.949  0.00  0.00    +0.000 A 
ATOM     13  C   UNL     1      -0.802  14.858  20.832  0.00  0.00    +0.000 A 
ATOM     14  C   UNL     1      -0.300  13.608  21.202  0.00  0.00    +0.000 A 
ATOM     15  F   UNL     1       1.019  13.364  21.136  0.00  0.00    +0.000 F 
BRANCH  13  16
ATOM     16  O   UNL     1      -0.087  15.903  20.309  0.00  0.00    +0.000 OA
BRANCH  16  17
ATOM     17  C   UNL     1       0.253  15.894  18.915  0.00  0.00    +0.000 C 
ATOM     18  C   UNL     1      -0.486  16.991  18.145  0.00  0.00    +0.000 C 
ATOM     19  C   UNL     1       1.756  16.131  18.817  0.00  0.00    +0.000 C 
ENDBRANCH  16  17
ENDBRANCH  13  16
ENDBRANCH   6   9
BRANCH   1  23
ATOM     20  C   UNL     1       2.575   5.085  18.897  0.00  0.00    +0.000 A 
ATOM     21  C   UNL     1       2.519   6.036  17.874  0.00  0.00    +0.000 A 
ATOM     22  C   UNL     1       2.158   7.357  18.174  0.00  0.00    +0.000 A 
ATOM     23  C   UNL     1       1.810   7.725  19.480  0.00  0.00    +0.000 A 
ATOM     24  C   UNL     1       1.919   6.752  20.485  0.00  0.00    +0.000 A 
ATOM     25  C   UNL     1       2.275   5.435  20.204  0.00  0.00    +0.000 A 
BRANCH  20  26
ATOM     26  S   UNL     1       3.004   3.400  18.526  0.00  0.00    +0.000 S 
ATOM     27  O   UNL     1       1.909   2.881  17.728  0.00  0.00    +0.000 OA
ATOM     28  O   UNL     1       3.415   2.764  19.758  0.00  0.00    +0.000 OA
BRANCH  26  29
ATOM     29  N   UNL     1       4.371   3.612  17.592  0.00  0.00    +0.000 N 
ATOM     30  H   UNL     1       4.518   3.097  16.734  0.00  0.00    +0.000 HD
BRANCH  29  35
ATOM     31  C   UNL     1       7.918   7.034  18.369  0.00  0.00    +0.000 C 
ATOM     32  C   UNL     1       6.962   5.909  18.487  0.00  0.00    +0.000 A 
ATOM     33  N   UNL     1       6.878   5.207  19.624  0.00  0.00    +0.000 NA
ATOM     34  O   UNL     1       5.885   4.265  19.406  0.00  0.00    +0.000 OA
ATOM     35  C   UNL     1       5.386   4.410  18.150  0.00  0.00    +0.000 A 
ATOM     36  C   UNL     1       6.055   5.426  17.505  0.00  0.00    +0.000 A 
ATOM     37  C   UNL     1       5.875   5.931  16.126  0.00  0.00    +0.000 C 
ENDBRANCH  29  35
ENDBRANCH  26  29
ENDBRANCH  20  26
ENDBRANCH   1  23
TORSDOF 7
ENDMDL
MODEL 5
REMARK VINA RESULT:      -8.3      2.197      3.125
REMARK  Name = 
REMARK  11 active torsions:
REMARK  status: ('A' for Active; 'I' for Inactive)
REMARK    1  A    between atoms: C_1  and  C_2
REMARK    2  A    between atoms: C_5  and  N_6
REMARK    3  A    between atoms: N_6  and  S_7
REMARK    4  A    between atoms: S_7  and  C_10
REMARK    5  A    between atoms: C_13  and  N_14
REMARK    6  A    between atoms: C_19  and  C_20
REMARK    7  A    between atoms: C_24  and  O_25
REMARK    8  A    between atoms: O_25  and  C_26
REMARK    9  A    between atoms: C_26  and  C_27
REMARK   10  A    between atoms: C_26  and  C_28
REMARK   11  A    between atoms: C_34  and  C_35
REMARK                            x       y       z     vdW  Elec       q    Type
REMARK                         _______ _______ _______ _____ _____    ______ ____
ROOT
ATOM      1  N   UNL     1       1.972   8.675  18.725  0.00  0.00    +0.000 N 
ATOM      2  C   UNL     1       2.366   7.408  19.169  0.00  0.00    +0.000 A 
ATOM      3  N   UNL     1       1.606   6.739  20.046  0.00  0.00    +0.000 NA
ATOM      4  C   UNL     1       2.030   5.551  20.481  0.00  0.00    +0.000 A 
ATOM      5  C   UNL     1       3.194   4.985  20.051  0.00  0.00    +0.000 A 
ATOM      6  C   UNL     1       3.915   5.714  19.123  0.00  0.00    +0.000 A 
ATOM      7  N   UNL     1       3.519   6.936  18.693  0.00  0.00    +0.000 NA
ATOM      8  H   UNL     1       2.720   9.076  18.180  0.00  0.00    +0.000 HD
ENDROOT
BRANCH   6   9
ATOM      9  C   UNL     1       5.108   5.178  18.450  0.00  0.00    +0.000 A 
ATOM     10  C   UNL     1       6.403   5.453  18.917  0.00  0.00    +0.000 A 
ATOM     11  C   UNL     1       7.524   5.048  18.192  0.00  0.00    +0.000 A 
ATOM     12  C   UNL     1       7.359   4.392  16.969  0.00  0.00    +0.000 A 
ATOM     13  C   UNL     1       6.085   4.108  16.472  0.00  0.00    +0.000 A 
ATOM     14  C   UNL     1       4.978   4.467  17.246  0.00  0.00    +0.000 A 
ATOM     15  F   UNL     1       3.738   4.182  16.820  0.00  0.00    +0.000 F 
BRANCH  13  16
ATOM     16  O   UNL     1       6.061   3.538  15.226  0.00  0.00    +0.000 OA
BRANCH  16  17
ATOM     17  C   UNL     1       5.982   4.381  14.068  0.00  0.00    +0.000 C 
ATOM     18  C   UNL     1       7.323   5.053  13.766  0.00  0.00    +0.000 C 
ATOM     19  C   UNL     1       5.583   3.497  12.893  0.00  0.00    +0.000 C 
ENDBRANCH  16  17
ENDBRANCH  13  16
ENDBRANCH   6   9
BRANCH   1  23
ATOM     20  C   UNL     1      -0.741  11.428  20.405  0.00  0.00    +0.000 A 
ATOM     21  C   UNL     1      -0.387  11.521  19.055  0.00  0.00    +0.000 A 
ATOM     22  C   UNL     1       0.484  10.573  18.501  0.00  0.00    +0.000 A 
ATOM     23  C   UNL     1       1.040   9.560  19.293  0.00  0.00    +0.000 A 
ATOM     24  C   UNL     1       0.627   9.477  20.632  0.00  0.00    +0.000 A 
ATOM     25  C   UNL     1      -0.237  10.411  21.199  0.00  0.00    +0.000 A 
BRANCH  20  26
ATOM     26  S   UNL     1      -1.823  12.640  21.128  0.00  0.00    +0.000 S 
ATOM     27  O   UNL     1      -0.964  13.724  21.566  0.00  0.00    +0.000 OA
ATOM     28  O   UNL     1      -2.708  11.955  22.043  0.00  0.00    +0.000 OA
BRANCH  26  29
ATOM     29  N   UNL     1      -2.728  13.098  19.803  0.00  0.00    +0.000 N 
ATOM     30  H   UNL     1      -2.397  13.787  19.141  0.00  0.00    +0.000 HD
BRANCH  29  35
ATOM     31  C   UNL     1      -6.885  10.580  18.675  0.00  0.00    +0.000 C 
ATOM     32  C   UNL     1      -5.884  11.511  19.246  0.00  0.00    +0.000 A 
ATOM     33  N   UNL     1      -6.229  12.368  20.214  0.00  0.00    +0.000 NA
ATOM     34  O   UNL     1      -5.069  13.057  20.531  0.00  0.00    +0.000 OA
ATOM     35  C   UNL     1      -4.047  12.611  19.754  0.00  0.00    +0.000 A 
ATOM     36  C   UNL     1      -4.513  11.642  18.893  0.00  0.00    +0.000 A 
ATOM     37  C   UNL     1      -3.777  10.885  17.856  0.00  0.00    +0.000 C 
ENDBRANCH  29  35
ENDBRANCH  26  29
ENDBRANCH  20  26
ENDBRANCH   1  23
TORSDOF 7
ENDMDL
MODEL 6
REMARK VINA RESULT:      -8.2      3.585     11.368
REMARK  Name = 
REMARK  11 active torsions:
REMARK  status: ('A' for Active; 'I' for Inactive)
REMARK    1  A    between atoms: C_1  and  C_2
REMARK    2  A    between atoms: C_5  and  N_6
REMARK    3  A    between atoms: N_6  and  S_7
REMARK    4  A    between atoms: S_7  and  C_10
REMARK    5  A    between atoms: C_13  and  N_14
REMARK    6  A    between atoms: C_19  and  C_20
REMARK    7  A    between atoms: C_24  and  O_25
REMARK    8  A    between atoms: O_25  and  C_26
REMARK    9  A    between atoms: C_26  and  C_27
REMARK   10  A    between atoms: C_26  and  C_28
REMARK   11  A    between atoms: C_34  and  C_35
REMARK                            x       y       z     vdW  Elec       q    Type
REMARK                         _______ _______ _______ _____ _____    ______ ____
ROOT
ATOM      1  N   UNL     1       1.457   9.225  19.882  0.00  0.00    +0.000 N 
ATOM      2  C   UNL     1       0.726   9.712  20.971  0.00  0.00    +0.000 A 
ATOM      3  N   UNL     1       0.571   8.956  22.066  0.00  0.00    +0.000 NA
ATOM      4  C   UNL     1      -0.166   9.432  23.072  0.00  0.00    +0.000 A 
ATOM      5  C   UNL     1      -0.749  10.665  23.034  0.00  0.00    +0.000 A 
ATOM      6  C   UNL     1      -0.524  11.406  21.887  0.00  0.00    +0.000 A 
ATOM      7  N   UNL     1       0.194  10.928  20.843  0.00  0.00    +0.000 NA
ATOM      8  H   UNL     1       1.357   9.867  19.110  0.00  0.00    +0.000 HD
ENDROOT
BRANCH   6   9
ATOM      9  C   UNL     1      -0.953  12.806  21.754  0.00  0.00    +0.000 A 
ATOM     10  C   UNL     1      -0.218  13.858  22.324  0.00  0.00    +0.000 A 
ATOM     11  C   UNL     1      -0.708  15.164  22.301  0.00  0.00    +0.000 A 
ATOM     12  C   UNL     1      -1.961  15.426  21.738  0.00  0.00    +0.000 A 
ATOM     13  C   UNL     1      -2.720  14.402  21.169  0.00  0.00    +0.000 A 
ATOM     14  C   UNL     1      -2.182  13.113  21.146  0.00  0.00    +0.000 A 
ATOM     15  F   UNL     1      -2.865  12.107  20.578  0.00  0.00    +0.000 F 
BRANCH  13  16
ATOM     16  O   UNL     1      -3.962  14.777  20.727  0.00  0.00    +0.000 OA
BRANCH  16  17
ATOM     17  C   UNL     1      -4.949  15.199  21.680  0.00  0.00    +0.000 C 
ATOM     18  C   UNL     1      -6.087  15.972  21.010  0.00  0.00    +0.000 C 
ATOM     19  C   UNL     1      -5.508  13.943  22.336  0.00  0.00    +0.000 C 
ENDBRANCH  16  17
ENDBRANCH  13  16
ENDBRANCH   6   9
BRANCH   1  23
ATOM     20  C   UNL     1       2.428   5.245  18.894  0.00  0.00    +0.000 A 
ATOM     21  C   UNL     1       2.435   6.238  17.910  0.00  0.00    +0.000 A 
ATOM     22  C   UNL     1       2.150   7.564  18.261  0.00  0.00    +0.000 A 
ATOM     23  C   UNL     1       1.815   7.900  19.579  0.00  0.00    +0.000 A 
ATOM     24  C   UNL     1       1.860   6.883  20.545  0.00  0.00    +0.000 A 
ATOM     25  C   UNL     1       2.140   5.559  20.213  0.00  0.00    +0.000 A 
BRANCH  20  26
ATOM     26  S   UNL     1       2.759   3.554  18.458  0.00  0.00    +0.000 S 
ATOM     27  O   UNL     1       1.628   3.123  17.658  0.00  0.00    +0.000 OA
ATOM     28  O   UNL     1       3.149   2.852  19.661  0.00  0.00    +0.000 OA
BRANCH  26  29
ATOM     29  N   UNL     1       4.124   3.724  17.512  0.00  0.00    +0.000 N 
ATOM     30  H   UNL     1       4.225   3.246  16.627  0.00  0.00    +0.000 HD
BRANCH  29  35
ATOM     31  C   UNL     1       7.867   6.897  18.420  0.00  0.00    +0.000 C 
ATOM     32  C   UNL     1       6.858   5.813  18.487  0.00  0.00    +0.000 A 
ATOM     33  N   UNL     1       6.776   5.029  19.568  0.00  0.00    +0.000 NA
ATOM     34  O   UNL     1       5.729   4.157  19.315  0.00  0.00    +0.000 OA
ATOM     35  C   UNL     1       5.197   4.425  18.092  0.00  0.00    +0.000 A 
ATOM     36  C   UNL     1       5.896   5.455  17.504  0.00  0.00    +0.000 A 
ATOM     37  C   UNL     1       5.697   6.076  16.175  0.00  0.00    +0.000 C 
ENDBRANCH  29  35
ENDBRANCH  26  29
ENDBRANCH  20  26
ENDBRANCH   1  23
TORSDOF 7
ENDMDL
MODEL 7
REMARK VINA RESULT:      -8.1      3.882     10.674
REMARK  Name = 
REMARK  11 active torsions:
REMARK  status: ('A' for Active; 'I' for Inactive)
REMARK    1  A    between atoms: C_1  and  C_2
REMARK    2  A    between atoms: C_5  and  N_6
REMARK    3  A    between atoms: N_6  and  S_7
REMARK    4  A    between atoms: S_7  and  C_10
REMARK    5  A    between atoms: C_13  and  N_14
REMARK    6  A    between atoms: C_19  and  C_20
REMARK    7  A    between atoms: C_24  and  O_25
REMARK    8  A    between atoms: O_25  and  C_26
REMARK    9  A    between atoms: C_26  and  C_27
REMARK   10  A    between atoms: C_26  and  C_28
REMARK   11  A    between atoms: C_34  and  C_35
REMARK                            x       y       z     vdW  Elec       q    Type
REMARK                         _______ _______ _______ _____ _____    ______ ____
ROOT
ATOM      1  N   UNL     1       1.863   8.602  19.524  0.00  0.00    +0.000 N 
ATOM      2  C   UNL     1       1.044   9.170  20.506  0.00  0.00    +0.000 A 
ATOM      3  N   UNL     1       0.663   8.443  21.565  0.00  0.00    +0.000 NA
ATOM      4  C   UNL     1      -0.151   9.000  22.463  0.00  0.00    +0.000 A 
ATOM      5  C   UNL     1      -0.593  10.286  22.353  0.00  0.00    +0.000 A 
ATOM      6  C   UNL     1      -0.139  10.991  21.253  0.00  0.00    +0.000 A 
ATOM      7  N   UNL     1       0.663  10.434  20.314  0.00  0.00    +0.000 NA
ATOM      8  H   UNL     1       1.937   9.245  18.750  0.00  0.00    +0.000 HD
ENDROOT
BRANCH   6   9
ATOM      9  C   UNL     1      -0.398  12.427  21.071  0.00  0.00    +0.000 A 
ATOM     10  C   UNL     1      -1.705  12.937  21.011  0.00  0.00    +0.000 A 
ATOM     11  C   UNL     1      -1.933  14.279  20.706  0.00  0.00    +0.000 A 
ATOM     12  C   UNL     1      -0.853  15.120  20.422  0.00  0.00    +0.000 A 
ATOM     13  C   UNL     1       0.459  14.644  20.468  0.00  0.00    +0.000 A 
ATOM     14  C   UNL     1       0.667  13.313  20.837  0.00  0.00    +0.000 A 
ATOM     15  F   UNL     1       1.914  12.824  20.925  0.00  0.00    +0.000 F 
BRANCH  13  16
ATOM     16  O   UNL     1       1.418  15.546  20.089  0.00  0.00    +0.000 OA
BRANCH  16  17
ATOM     17  C   UNL     1       1.638  15.793  18.692  0.00  0.00    +0.000 C 
ATOM     18  C   UNL     1       2.011  17.253  18.428  0.00  0.00    +0.000 C 
ATOM     19  C   UNL     1       2.783  14.890  18.250  0.00  0.00    +0.000 C 
ENDBRANCH  16  17
ENDBRANCH  13  16
ENDBRANCH   6   9
BRANCH   1  23
ATOM     20  C   UNL     1       2.762   4.553  18.780  0.00  0.00    +0.000 A 
ATOM     21  C   UNL     1       2.891   5.078  20.069  0.00  0.00    +0.000 A 
ATOM     22  C   UNL     1       2.549   6.416  20.310  0.00  0.00    +0.000 A 
ATOM     23  C   UNL     1       2.121   7.245  19.265  0.00  0.00    +0.000 A 
ATOM     24  C   UNL     1       1.964   6.669  17.995  0.00  0.00    +0.000 A 
ATOM     25  C   UNL     1       2.301   5.342  17.738  0.00  0.00    +0.000 A 
BRANCH  20  26
ATOM     26  S   UNL     1       3.219   2.865  18.454  0.00  0.00    +0.000 S 
ATOM     27  O   UNL     1       2.129   2.305  17.675  0.00  0.00    +0.000 OA
ATOM     28  O   UNL     1       3.644   2.271  19.702  0.00  0.00    +0.000 OA
BRANCH  26  29
ATOM     29  N   UNL     1       4.578   3.074  17.508  0.00  0.00    +0.000 N 
ATOM     30  H   UNL     1       4.805   2.443  16.751  0.00  0.00    +0.000 HD
BRANCH  29  35
ATOM     31  C   UNL     1       7.507   7.103  17.802  0.00  0.00    +0.000 C 
ATOM     32  C   UNL     1       6.786   5.833  18.056  0.00  0.00    +0.000 A 
ATOM     33  N   UNL     1       6.942   5.185  19.216  0.00  0.00    +0.000 NA
ATOM     34  O   UNL     1       6.119   4.073  19.133  0.00  0.00    +0.000 OA
ATOM     35  C   UNL     1       5.482   4.065  17.932  0.00  0.00    +0.000 A 
ATOM     36  C   UNL     1       5.890   5.150  17.189  0.00  0.00    +0.000 A 
ATOM     37  C   UNL     1       5.488   5.547  15.821  0.00  0.00    +0.000 C 
ENDBRANCH  29  35
ENDBRANCH  26  29
ENDBRANCH  20  26
ENDBRANCH   1  23
TORSDOF 7
ENDMDL
MODEL 8
REMARK VINA RESULT:      -8.1      1.105      1.282
REMARK  Name = 
REMARK  11 active torsions:
REMARK  status: ('A' for Active; 'I' for Inactive)
REMARK    1  A    between atoms: C_1  and  C_2
REMARK    2  A    between atoms: C_5  and  N_6
REMARK    3  A    between atoms: N_6  and  S_7
REMARK    4  A    between atoms: S_7  and  C_10
REMARK    5  A    between atoms: C_13  and  N_14
REMARK    6  A    between atoms: C_19  and  C_20
REMARK    7  A    between atoms: C_24  and  O_25
REMARK    8  A    between atoms: O_25  and  C_26
REMARK    9  A    between atoms: C_26  and  C_27
REMARK   10  A    between atoms: C_26  and  C_28
REMARK   11  A    between atoms: C_34  and  C_35
REMARK                            x       y       z     vdW  Elec       q    Type
REMARK                         _______ _______ _______ _____ _____    ______ ____
ROOT
ATOM      1  N   UNL     1       1.921   8.507  19.296  0.00  0.00    +0.000 N 
ATOM      2  C   UNL     1       2.321   7.200  19.597  0.00  0.00    +0.000 A 
ATOM      3  N   UNL     1       1.555   6.428  20.379  0.00  0.00    +0.000 NA
ATOM      4  C   UNL     1       1.984   5.201  20.681  0.00  0.00    +0.000 A 
ATOM      5  C   UNL     1       3.160   4.698  20.208  0.00  0.00    +0.000 A 
ATOM      6  C   UNL     1       3.888   5.536  19.382  0.00  0.00    +0.000 A 
ATOM      7  N   UNL     1       3.486   6.795  19.088  0.00  0.00    +0.000 NA
ATOM      8  H   UNL     1       2.674   8.974  18.813  0.00  0.00    +0.000 HD
ENDROOT
BRANCH   6   9
ATOM      9  C   UNL     1       5.096   5.091  18.671  0.00  0.00    +0.000 A 
ATOM     10  C   UNL     1       6.383   5.418  19.129  0.00  0.00    +0.000 A 
ATOM     11  C   UNL     1       7.511   5.101  18.371  0.00  0.00    +0.000 A 
ATOM     12  C   UNL     1       7.360   4.484  17.126  0.00  0.00    +0.000 A 
ATOM     13  C   UNL     1       6.095   4.150  16.638  0.00  0.00    +0.000 A 
ATOM     14  C   UNL     1       4.984   4.419  17.442  0.00  0.00    +0.000 A 
ATOM     15  F   UNL     1       3.754   4.084  17.024  0.00  0.00    +0.000 F 
BRANCH  13  16
ATOM     16  O   UNL     1       6.081   3.626  15.372  0.00  0.00    +0.000 OA
BRANCH  16  17
ATOM     17  C   UNL     1       5.984   4.511  14.246  0.00  0.00    +0.000 C 
ATOM     18  C   UNL     1       7.353   5.060  13.840  0.00  0.00    +0.000 C 
ATOM     19  C   UNL     1       5.398   3.708  13.091  0.00  0.00    +0.000 C 
ENDBRANCH  16  17
ENDBRANCH  13  16
ENDBRANCH   6   9
BRANCH   1  23
ATOM     20  C   UNL     1      -0.861  11.030  21.206  0.00  0.00    +0.000 A 
ATOM     21  C   UNL     1      -0.725  11.055  19.815  0.00  0.00    +0.000 A 
ATOM     22  C   UNL     1       0.175  10.181  19.190  0.00  0.00    +0.000 A 
ATOM     23  C   UNL     1       0.972   9.313  19.947  0.00  0.00    +0.000 A 
ATOM     24  C   UNL     1       0.775   9.288  21.336  0.00  0.00    +0.000 A 
ATOM     25  C   UNL     1      -0.114  10.151  21.973  0.00  0.00    +0.000 A 
BRANCH  20  26
ATOM     26  S   UNL     1      -1.979  12.153  22.013  0.00  0.00    +0.000 S 
ATOM     27  O   UNL     1      -2.205  11.600  23.336  0.00  0.00    +0.000 OA
ATOM     28  O   UNL     1      -3.071  12.422  21.106  0.00  0.00    +0.000 OA
BRANCH  26  29
ATOM     29  N   UNL     1      -1.045  13.533  22.099  0.00  0.00    +0.000 N 
ATOM     30  H   UNL     1      -0.200  13.644  21.555  0.00  0.00    +0.000 HD
BRANCH  29  35
ATOM     31  C   UNL     1      -3.134  17.252  24.690  0.00  0.00    +0.000 C 
ATOM     32  C   UNL     1      -2.307  16.109  24.236  0.00  0.00    +0.000 A 
ATOM     33  N   UNL     1      -1.418  15.545  25.062  0.00  0.00    +0.000 NA
ATOM     34  O   UNL     1      -0.848  14.507  24.341  0.00  0.00    +0.000 OA
ATOM     35  C   UNL     1      -1.398  14.459  23.098  0.00  0.00    +0.000 A 
ATOM     36  C   UNL     1      -2.316  15.476  22.963  0.00  0.00    +0.000 A 
ATOM     37  C   UNL     1      -3.146  15.832  21.791  0.00  0.00    +0.000 C 
ENDBRANCH  29  35
ENDBRANCH  26  29
ENDBRANCH  20  26
ENDBRANCH   1  23
TORSDOF 7
ENDMDL
MODEL 9
REMARK VINA RESULT:      -8.1      2.522      3.697
REMARK  Name = 
REMARK  11 active torsions:
REMARK  status: ('A' for Active; 'I' for Inactive)
REMARK    1  A    between atoms: C_1  and  C_2
REMARK    2  A    between atoms: C_5  and  N_6
REMARK    3  A    between atoms: N_6  and  S_7
REMARK    4  A    between atoms: S_7  and  C_10
REMARK    5  A    between atoms: C_13  and  N_14
REMARK    6  A    between atoms: C_19  and  C_20
REMARK    7  A    between atoms: C_24  and  O_25
REMARK    8  A    between atoms: O_25  and  C_26
REMARK    9  A    between atoms: C_26  and  C_27
REMARK   10  A    between atoms: C_26  and  C_28
REMARK   11  A    between atoms: C_34  and  C_35
REMARK                            x       y       z     vdW  Elec       q    Type
REMARK                         _______ _______ _______ _____ _____    ______ ____
ROOT
ATOM      1  N   UNL     1       0.821   9.506  21.458  0.00  0.00    +0.000 N 
ATOM      2  C   UNL     1       1.274   9.058  20.213  0.00  0.00    +0.000 A 
ATOM      3  N   UNL     1       1.017   9.772  19.109  0.00  0.00    +0.000 NA
ATOM      4  C   UNL     1       1.427   9.297  17.931  0.00  0.00    +0.000 A 
ATOM      5  C   UNL     1       2.113   8.124  17.812  0.00  0.00    +0.000 A 
ATOM      6  C   UNL     1       2.371   7.451  18.993  0.00  0.00    +0.000 A 
ATOM      7  N   UNL     1       1.937   7.900  20.195  0.00  0.00    +0.000 NA
ATOM      8  H   UNL     1       0.989   8.785  22.144  0.00  0.00    +0.000 HD
ENDROOT
BRANCH   6   9
ATOM      9  C   UNL     1       3.226   6.257  19.051  0.00  0.00    +0.000 A 
ATOM     10  C   UNL     1       4.506   6.239  18.473  0.00  0.00    +0.000 A 
ATOM     11  C   UNL     1       5.249   5.059  18.422  0.00  0.00    +0.000 A 
ATOM     12  C   UNL     1       4.702   3.872  18.919  0.00  0.00    +0.000 A 
ATOM     13  C   UNL     1       3.430   3.853  19.495  0.00  0.00    +0.000 A 
ATOM     14  C   UNL     1       2.730   5.059  19.593  0.00  0.00    +0.000 A 
ATOM     15  F   UNL     1       1.518   5.090  20.169  0.00  0.00    +0.000 F 
BRANCH  13  16
ATOM     16  O   UNL     1       2.979   2.614  19.866  0.00  0.00    +0.000 OA
BRANCH  16  17
ATOM     17  C   UNL     1       2.133   1.877  18.971  0.00  0.00    +0.000 C 
ATOM     18  C   UNL     1       0.668   2.301  19.101  0.00  0.00    +0.000 C 
ATOM     19  C   UNL     1       2.619   2.161  17.555  0.00  0.00    +0.000 C 
ENDBRANCH  16  17
ENDBRANCH  13  16
ENDBRANCH   6   9
BRANCH   1  23
ATOM     20  C   UNL     1      -2.249  12.254  22.339  0.00  0.00    +0.000 A 
ATOM     21  C   UNL     1      -1.856  11.308  23.289  0.00  0.00    +0.000 A 
ATOM     22  C   UNL     1      -0.806  10.427  22.998  0.00  0.00    +0.000 A 
ATOM     23  C   UNL     1      -0.174  10.455  21.748  0.00  0.00    +0.000 A 
ATOM     24  C   UNL     1      -0.569  11.447  20.837  0.00  0.00    +0.000 A 
ATOM     25  C   UNL     1      -1.612  12.329  21.111  0.00  0.00    +0.000 A 
BRANCH  20  26
ATOM     26  S   UNL     1      -3.599  13.359  22.685  0.00  0.00    +0.000 S 
ATOM     27  O   UNL     1      -4.806  12.569  22.528  0.00  0.00    +0.000 OA
ATOM     28  O   UNL     1      -3.383  14.574  21.932  0.00  0.00    +0.000 OA
BRANCH  26  29
ATOM     29  N   UNL     1      -3.326  13.711  24.293  0.00  0.00    +0.000 N 
ATOM     30  H   UNL     1      -3.876  13.296  25.034  0.00  0.00    +0.000 HD
BRANCH  29  35
ATOM     31  C   UNL     1      -1.210  18.083  25.441  0.00  0.00    +0.000 C 
ATOM     32  C   UNL     1      -1.478  16.680  25.045  0.00  0.00    +0.000 A 
ATOM     33  N   UNL     1      -0.467  15.842  24.790  0.00  0.00    +0.000 NA
ATOM     34  O   UNL     1      -1.059  14.628  24.482  0.00  0.00    +0.000 OA
ATOM     35  C   UNL     1      -2.411  14.748  24.555  0.00  0.00    +0.000 A 
ATOM     36  C   UNL     1      -2.740  16.045  24.883  0.00  0.00    +0.000 A 
ATOM     37  C   UNL     1      -4.078  16.651  25.055  0.00  0.00    +0.000 C 
ENDBRANCH  29  35
ENDBRANCH  26  29
ENDBRANCH  20  26
ENDBRANCH   1  23
TORSDOF 7
ENDMDL
