MODEL 1
REMARK VINA RESULT:      -7.8      0.000      0.000
REMARK  Name = 
REMARK  10 active torsions:
REMARK  status: ('A' for Active; 'I' for Inactive)
REMARK    1  A    between atoms: C_1  and  O_2
REMARK    2  A    between atoms: O_2  and  C_3
REMARK    3  A    between atoms: C_7  and  O_8
REMARK    4  A    between atoms: C_9  and  C_10
REMARK    5  A    between atoms: C_10  and  C_11
REMARK    6  A    between atoms: C_12  and  C_13
REMARK    7  A    between atoms: C_12  and  C_14
REMARK    8  A    between atoms: C_17  and  C_18
REMARK    9  A    between atoms: C_21  and  C_22
REMARK   10  A    between atoms: C_24  and  O_25
REMARK                            x       y       z     vdW  Elec       q    Type
REMARK                         _______ _______ _______ _____ _____    ______ ____
ROOT
ATOM      1  C   UNL     1       4.247   5.851  17.737  0.00  0.00    +0.000 A 
ATOM      2  C   UNL     1       3.283   6.280  18.694  0.00  0.00    +0.000 A 
ATOM      3  C   UNL     1       2.862   5.387  19.688  0.00  0.00    +0.000 A 
ATOM      4  C   UNL     1       3.360   4.090  19.738  0.00  0.00    +0.000 A 
ATOM      5  C   UNL     1       4.301   3.675  18.800  0.00  0.00    +0.000 A 
ATOM      6  C   UNL     1       4.787   4.538  17.803  0.00  0.00    +0.000 A 
ATOM      7  O   UNL     1       1.990   5.690  20.695  0.00  0.00    +0.000 OA
ATOM      8  C   UNL     1       1.325   6.957  20.662  0.00  0.00    +0.000 C 
ATOM      9  C   UNL     1       1.787   7.937  19.623  0.00  0.00    +0.000 C 
ATOM     10  C   UNL     1       2.710   7.635  18.699  0.00  0.00    +0.000 C 
ENDROOT
BRANCH   9  11
ATOM     11  C   UNL     1       1.115   9.249  19.676  0.00  0.00    +0.000 A 
ATOM     12  C   UNL     1       0.385   9.610  20.815  0.00  0.00    +0.000 A 
ATOM     13  C   UNL     1      -0.372  10.786  20.833  0.00  0.00    +0.000 A 
ATOM     14  C   UNL     1      -0.406  11.627  19.715  0.00  0.00    +0.000 A 
ATOM     15  C   UNL     1      -1.247  12.870  19.705  0.00  0.00    +0.000 C 
ATOM     16  C   UNL     1       0.352  11.289  18.585  0.00  0.00    +0.000 A 
ATOM     17  C   UNL     1       1.094  10.106  18.567  0.00  0.00    +0.000 A 
BRANCH  17  18
ATOM     18  O   UNL     1       1.784   9.758  17.436  0.00  0.00    +0.000 OA
ATOM     19  H   UNL     1       1.152   9.575  16.723  0.00  0.00    +0.000 HD
ENDBRANCH  17  18
ENDBRANCH   9  11
BRANCH   1  21
ATOM     20  C   UNL     1       6.021   7.318  17.085  0.00  0.00    +0.000 C 
ATOM     21  O   UNL     1       4.699   6.834  16.883  0.00  0.00    +0.000 OA
ENDBRANCH   1  21
BRANCH   5  22
ATOM     22  O   UNL     1       4.796   2.401  18.890  0.00  0.00    +0.000 OA
ATOM     23  H   UNL     1       4.681   2.079  19.798  0.00  0.00    +0.000 HD
ENDBRANCH   5  22
BRANCH   6  24
ATOM     24  C   UNL     1       5.929   4.040  16.933  0.00  0.00    +0.000 C 
BRANCH  24  25
ATOM     25  C   UNL     1       5.529   3.608  15.541  0.00  0.00    +0.000 C 
ATOM     26  C   UNL     1       6.060   4.083  14.396  0.00  0.00    +0.000 C 
ATOM     27  C   UNL     1       7.227   5.033  14.340  0.00  0.00    +0.000 C 
ATOM     28  C   UNL     1       5.510   3.694  13.050  0.00  0.00    +0.000 C 
ENDBRANCH  24  25
ENDBRANCH   6  24
TORSDOF 6
ENDMDL
MODEL 2
REMARK VINA RESULT:      -7.8      1.035      1.169
REMARK  Name = 
REMARK  10 active torsions:
REMARK  status: ('A' for Active; 'I' for Inactive)
REMARK    1  A    between atoms: C_1  and  O_2
REMARK    2  A    between atoms: O_2  and  C_3
REMARK    3  A    between atoms: C_7  and  O_8
REMARK    4  A    between atoms: C_9  and  C_10
REMARK    5  A    between atoms: C_10  and  C_11
REMARK    6  A    between atoms: C_12  and  C_13
REMARK    7  A    between atoms: C_12  and  C_14
REMARK    8  A    between atoms: C_17  and  C_18
REMARK    9  A    between atoms: C_21  and  C_22
REMARK   10  A    between atoms: C_24  and  O_25
REMARK                            x       y       z     vdW  Elec       q    Type
REMARK                         _______ _______ _______ _____ _____    ______ ____
ROOT
ATOM      1  C   UNL     1       4.302   5.631  17.460  0.00  0.00    +0.000 A 
ATOM      2  C   UNL     1       3.342   5.812  18.496  0.00  0.00    +0.000 A 
ATOM      3  C   UNL     1       2.797   4.688  19.129  0.00  0.00    +0.000 A 
ATOM      4  C   UNL     1       3.169   3.404  18.746  0.00  0.00    +0.000 A 
ATOM      5  C   UNL     1       4.107   3.232  17.732  0.00  0.00    +0.000 A 
ATOM      6  C   UNL     1       4.714   4.323  17.087  0.00  0.00    +0.000 A 
ATOM      7  O   UNL     1       1.913   4.725  20.171  0.00  0.00    +0.000 OA
ATOM      8  C   UNL     1       1.371   5.992  20.558  0.00  0.00    +0.000 C 
ATOM      9  C   UNL     1       1.966   7.209  19.913  0.00  0.00    +0.000 C 
ATOM     10  C   UNL     1       2.897   7.139  18.951  0.00  0.00    +0.000 C 
ENDROOT
BRANCH   9  11
ATOM     11  C   UNL     1       1.417   8.490  20.396  0.00  0.00    +0.000 A 
ATOM     12  C   UNL     1       1.223   8.688  21.769  0.00  0.00    +0.000 A 
ATOM     13  C   UNL     1       0.578   9.837  22.238  0.00  0.00    +0.000 A 
ATOM     14  C   UNL     1       0.123  10.813  21.344  0.00  0.00    +0.000 A 
ATOM     15  C   UNL     1      -0.609  12.030  21.831  0.00  0.00    +0.000 C 
ATOM     16  C   UNL     1       0.347  10.637  19.972  0.00  0.00    +0.000 A 
ATOM     17  C   UNL     1       0.978   9.480  19.507  0.00  0.00    +0.000 A 
BRANCH  17  18
ATOM     18  O   UNL     1       1.140   9.293  18.161  0.00  0.00    +0.000 OA
ATOM     19  H   UNL     1       0.944   8.368  17.943  0.00  0.00    +0.000 HD
ENDBRANCH  17  18
ENDBRANCH   9  11
BRANCH   1  21
ATOM     20  C   UNL     1       6.228   7.045  17.362  0.00  0.00    +0.000 C 
ATOM     21  O   UNL     1       4.879   6.790  16.990  0.00  0.00    +0.000 OA
ENDBRANCH   1  21
BRANCH   5  22
ATOM     22  O   UNL     1       4.478   1.957  17.394  0.00  0.00    +0.000 OA
ATOM     23  H   UNL     1       5.322   1.747  17.825  0.00  0.00    +0.000 HD
ENDBRANCH   5  22
BRANCH   6  24
ATOM     24  C   UNL     1       5.842   4.030  16.111  0.00  0.00    +0.000 C 
BRANCH  24  25
ATOM     25  C   UNL     1       5.397   3.572  14.742  0.00  0.00    +0.000 C 
ATOM     26  C   UNL     1       5.973   3.933  13.576  0.00  0.00    +0.000 C 
ATOM     27  C   UNL     1       7.232   4.753  13.478  0.00  0.00    +0.000 C 
ATOM     28  C   UNL     1       5.384   3.536  12.249  0.00  0.00    +0.000 C 
ENDBRANCH  24  25
ENDBRANCH   6  24
TORSDOF 6
ENDMDL
MODEL 3
REMARK VINA RESULT:      -7.7      1.746      8.170
REMARK  Name = 
REMARK  10 active torsions:
REMARK  status: ('A' for Active; 'I' for Inactive)
REMARK    1  A    between atoms: C_1  and  O_2
REMARK    2  A    between atoms: O_2  and  C_3
REMARK    3  A    between atoms: C_7  and  O_8
REMARK    4  A    between atoms: C_9  and  C_10
REMARK    5  A    between atoms: C_10  and  C_11
REMARK    6  A    between atoms: C_12  and  C_13
REMARK    7  A    between atoms: C_12  and  C_14
REMARK    8  A    between atoms: C_17  and  C_18
REMARK    9  A    between atoms: C_21  and  C_22
REMARK   10  A    between atoms: C_24  and  O_25
REMARK                            x       y       z     vdW  Elec       q    Type
REMARK                         _______ _______ _______ _____ _____    ______ ____
ROOT
ATOM      1  C   UNL     1       1.124   9.821  19.250  0.00  0.00    +0.000 A 
ATOM      2  C   UNL     1       1.653   8.509  19.411  0.00  0.00    +0.000 A 
ATOM      3  C   UNL     1       1.360   7.791  20.578  0.00  0.00    +0.000 A 
ATOM      4  C   UNL     1       0.577   8.351  21.581  0.00  0.00    +0.000 A 
ATOM      5  C   UNL     1       0.062   9.633  21.419  0.00  0.00    +0.000 A 
ATOM      6  C   UNL     1       0.294  10.386  20.255  0.00  0.00    +0.000 A 
ATOM      7  O   UNL     1       1.756   6.508  20.830  0.00  0.00    +0.000 OA
ATOM      8  C   UNL     1       2.669   5.886  19.919  0.00  0.00    +0.000 C 
ATOM      9  C   UNL     1       2.969   6.628  18.650  0.00  0.00    +0.000 C 
ATOM     10  C   UNL     1       2.492   7.855  18.395  0.00  0.00    +0.000 C 
ENDROOT
BRANCH   9  11
ATOM     11  C   UNL     1       3.863   5.913  17.718  0.00  0.00    +0.000 A 
ATOM     12  C   UNL     1       4.918   6.600  17.105  0.00  0.00    +0.000 A 
ATOM     13  C   UNL     1       5.692   5.981  16.118  0.00  0.00    +0.000 A 
ATOM     14  C   UNL     1       5.431   4.662  15.732  0.00  0.00    +0.000 A 
ATOM     15  C   UNL     1       6.225   3.999  14.644  0.00  0.00    +0.000 C 
ATOM     16  C   UNL     1       4.399   3.957  16.369  0.00  0.00    +0.000 A 
ATOM     17  C   UNL     1       3.619   4.585  17.343  0.00  0.00    +0.000 A 
BRANCH  17  18
ATOM     18  O   UNL     1       2.578   3.905  17.917  0.00  0.00    +0.000 OA
ATOM     19  H   UNL     1       1.816   3.928  17.317  0.00  0.00    +0.000 HD
ENDBRANCH  17  18
ENDBRANCH   9  11
BRANCH   1  21
ATOM     20  C   UNL     1       2.306  11.450  17.958  0.00  0.00    +0.000 C 
ATOM     21  O   UNL     1       1.354  10.396  18.019  0.00  0.00    +0.000 OA
ENDBRANCH   1  21
BRANCH   5  22
ATOM     22  O   UNL     1      -0.731  10.150  22.410  0.00  0.00    +0.000 OA
ATOM     23  H   UNL     1      -0.167  10.486  23.125  0.00  0.00    +0.000 HD
ENDBRANCH   5  22
BRANCH   6  24
ATOM     24  C   UNL     1      -0.445  11.706  20.108  0.00  0.00    +0.000 C 
BRANCH  24  25
ATOM     25  C   UNL     1      -1.688  11.649  19.251  0.00  0.00    +0.000 C 
ATOM     26  C   UNL     1      -2.897  12.136  19.602  0.00  0.00    +0.000 C 
ATOM     27  C   UNL     1      -3.156  12.923  20.858  0.00  0.00    +0.000 C 
ATOM     28  C   UNL     1      -4.114  11.918  18.742  0.00  0.00    +0.000 C 
ENDBRANCH  24  25
ENDBRANCH   6  24
TORSDOF 6
ENDMDL
MODEL 4
REMARK VINA RESULT:      -7.7      2.796      9.578
REMARK  Name = 
REMARK  10 active torsions:
REMARK  status: ('A' for Active; 'I' for Inactive)
REMARK    1  A    between atoms: C_1  and  O_2
REMARK    2  A    between atoms: O_2  and  C_3
REMARK    3  A    between atoms: C_7  and  O_8
REMARK    4  A    between atoms: C_9  and  C_10
REMARK    5  A    between atoms: C_10  and  C_11
REMARK    6  A    between atoms: C_12  and  C_13
REMARK    7  A    between atoms: C_12  and  C_14
REMARK    8  A    between atoms: C_17  and  C_18
REMARK    9  A    between atoms: C_21  and  C_22
REMARK   10  A    between atoms: C_24  and  O_25
REMARK                            x       y       z     vdW  Elec       q    Type
REMARK                         _______ _______ _______ _____ _____    ______ ____
ROOT
ATOM      1  C   UNL     1      -0.263  10.851  21.312  0.00  0.00    +0.000 A 
ATOM      2  C   UNL     1       0.167  10.214  20.113  0.00  0.00    +0.000 A 
ATOM      3  C   UNL     1      -0.420  10.578  18.895  0.00  0.00    +0.000 A 
ATOM      4  C   UNL     1      -1.426  11.537  18.848  0.00  0.00    +0.000 A 
ATOM      5  C   UNL     1      -1.844  12.157  20.022  0.00  0.00    +0.000 A 
ATOM      6  C   UNL     1      -1.266  11.857  21.267  0.00  0.00    +0.000 A 
ATOM      7  O   UNL     1      -0.060  10.087  17.672  0.00  0.00    +0.000 OA
ATOM      8  C   UNL     1       0.877   9.006  17.622  0.00  0.00    +0.000 C 
ATOM      9  C   UNL     1       1.540   8.624  18.913  0.00  0.00    +0.000 C 
ATOM     10  C   UNL     1       1.222   9.189  20.087  0.00  0.00    +0.000 C 
ENDROOT
BRANCH   9  11
ATOM     11  C   UNL     1       2.544   7.550  18.794  0.00  0.00    +0.000 A 
ATOM     12  C   UNL     1       3.384   7.507  17.674  0.00  0.00    +0.000 A 
ATOM     13  C   UNL     1       4.246   6.424  17.473  0.00  0.00    +0.000 A 
ATOM     14  C   UNL     1       4.290   5.369  18.391  0.00  0.00    +0.000 A 
ATOM     15  C   UNL     1       5.179   4.180  18.165  0.00  0.00    +0.000 C 
ATOM     16  C   UNL     1       3.477   5.424  19.532  0.00  0.00    +0.000 A 
ATOM     17  C   UNL     1       2.607   6.501  19.721  0.00  0.00    +0.000 A 
BRANCH  17  18
ATOM     18  O   UNL     1       1.777   6.516  20.810  0.00  0.00    +0.000 OA
ATOM     19  H   UNL     1       2.054   5.821  21.428  0.00  0.00    +0.000 HD
ENDBRANCH  17  18
ENDBRANCH   9  11
BRANCH   1  21
ATOM     20  C   UNL     1      -0.100   9.562  23.321  0.00  0.00    +0.000 C 
ATOM     21  O   UNL     1       0.461  10.527  22.438  0.00  0.00    +0.000 OA
ENDBRANCH   1  21
BRANCH   5  22
ATOM     22  O   UNL     1      -2.817  13.119  19.944  0.00  0.00    +0.000 OA
ATOM     23  H   UNL     1      -3.281  13.032  19.096  0.00  0.00    +0.000 HD
ENDBRANCH   5  22
BRANCH   6  24
ATOM     24  C   UNL     1      -1.679  12.704  22.460  0.00  0.00    +0.000 C 
BRANCH  24  25
ATOM     25  C   UNL     1      -2.854  12.169  23.245  0.00  0.00    +0.000 C 
ATOM     26  C   UNL     1      -3.683  12.913  24.007  0.00  0.00    +0.000 C 
ATOM     27  C   UNL     1      -3.632  14.415  24.086  0.00  0.00    +0.000 C 
ATOM     28  C   UNL     1      -4.749  12.280  24.861  0.00  0.00    +0.000 C 
ENDBRANCH  24  25
ENDBRANCH   6  24
TORSDOF 6
ENDMDL
MODEL 5
REMARK VINA RESULT:      -7.7      0.887      1.302
REMARK  Name = 
REMARK  10 active torsions:
REMARK  status: ('A' for Active; 'I' for Inactive)
REMARK    1  A    between atoms: C_1  and  O_2
REMARK    2  A    between atoms: O_2  and  C_3
REMARK    3  A    between atoms: C_7  and  O_8
REMARK    4  A    between atoms: C_9  and  C_10
REMARK    5  A    between atoms: C_10  and  C_11
REMARK    6  A    between atoms: C_12  and  C_13
REMARK    7  A    between atoms: C_12  and  C_14
REMARK    8  A    between atoms: C_17  and  C_18
REMARK    9  A    between atoms: C_21  and  C_22
REMARK   10  A    between atoms: C_24  and  O_25
REMARK                            x       y       z     vdW  Elec       q    Type
REMARK                         _______ _______ _______ _____ _____    ______ ____
ROOT
ATOM      1  C   UNL     1       4.221   5.909  17.882  0.00  0.00    +0.000 A 
ATOM      2  C   UNL     1       3.252   6.321  18.841  0.00  0.00    +0.000 A 
ATOM      3  C   UNL     1       2.868   5.431  19.851  0.00  0.00    +0.000 A 
ATOM      4  C   UNL     1       3.408   4.151  19.917  0.00  0.00    +0.000 A 
ATOM      5  C   UNL     1       4.355   3.753  18.978  0.00  0.00    +0.000 A 
ATOM      6  C   UNL     1       4.804   4.616  17.964  0.00  0.00    +0.000 A 
ATOM      7  O   UNL     1       1.994   5.720  20.861  0.00  0.00    +0.000 OA
ATOM      8  C   UNL     1       1.288   6.964  20.815  0.00  0.00    +0.000 C 
ATOM      9  C   UNL     1       1.709   7.943  19.758  0.00  0.00    +0.000 C 
ATOM     10  C   UNL     1       2.635   7.656  18.831  0.00  0.00    +0.000 C 
ENDROOT
BRANCH   9  11
ATOM     11  C   UNL     1       0.995   9.233  19.796  0.00  0.00    +0.000 A 
ATOM     12  C   UNL     1       0.419   9.742  18.626  0.00  0.00    +0.000 A 
ATOM     13  C   UNL     1      -0.143  11.023  18.607  0.00  0.00    +0.000 A 
ATOM     14  C   UNL     1      -0.146  11.815  19.761  0.00  0.00    +0.000 A 
ATOM     15  C   UNL     1      -0.706  13.207  19.745  0.00  0.00    +0.000 C 
ATOM     16  C   UNL     1       0.398  11.296  20.945  0.00  0.00    +0.000 A 
ATOM     17  C   UNL     1       0.971  10.022  20.954  0.00  0.00    +0.000 A 
BRANCH  17  18
ATOM     18  O   UNL     1       1.549   9.549  22.101  0.00  0.00    +0.000 OA
ATOM     19  H   UNL     1       2.512   9.648  22.034  0.00  0.00    +0.000 HD
ENDBRANCH  17  18
ENDBRANCH   9  11
BRANCH   1  21
ATOM     20  C   UNL     1       5.965   7.376  17.153  0.00  0.00    +0.000 C 
ATOM     21  O   UNL     1       4.634   6.893  17.010  0.00  0.00    +0.000 OA
ENDBRANCH   1  21
BRANCH   5  22
ATOM     22  O   UNL     1       4.892   2.497  19.083  0.00  0.00    +0.000 OA
ATOM     23  H   UNL     1       5.646   2.524  19.694  0.00  0.00    +0.000 HD
ENDBRANCH   5  22
BRANCH   6  24
ATOM     24  C   UNL     1       5.955   4.142  17.092  0.00  0.00    +0.000 C 
BRANCH  24  25
ATOM     25  C   UNL     1       5.559   3.680  15.709  0.00  0.00    +0.000 C 
ATOM     26  C   UNL     1       6.101   4.124  14.555  0.00  0.00    +0.000 C 
ATOM     27  C   UNL     1       7.276   5.063  14.484  0.00  0.00    +0.000 C 
ATOM     28  C   UNL     1       5.555   3.708  13.216  0.00  0.00    +0.000 C 
ENDBRANCH  24  25
ENDBRANCH   6  24
TORSDOF 6
ENDMDL
MODEL 6
REMARK VINA RESULT:      -7.5      3.588      9.598
REMARK  Name = 
REMARK  10 active torsions:
REMARK  status: ('A' for Active; 'I' for Inactive)
REMARK    1  A    between atoms: C_1  and  O_2
REMARK    2  A    between atoms: O_2  and  C_3
REMARK    3  A    between atoms: C_7  and  O_8
REMARK    4  A    between atoms: C_9  and  C_10
REMARK    5  A    between atoms: C_10  and  C_11
REMARK    6  A    between atoms: C_12  and  C_13
REMARK    7  A    between atoms: C_12  and  C_14
REMARK    8  A    between atoms: C_17  and  C_18
REMARK    9  A    between atoms: C_21  and  C_22
REMARK   10  A    between atoms: C_24  and  O_25
REMARK                            x       y       z     vdW  Elec       q    Type
REMARK                         _______ _______ _______ _____ _____    ______ ____
ROOT
ATOM      1  C   UNL     1      -2.882  10.827  18.327  0.00  0.00    +0.000 A 
ATOM      2  C   UNL     1      -1.607  10.742  18.955  0.00  0.00    +0.000 A 
ATOM      3  C   UNL     1      -1.262  11.683  19.934  0.00  0.00    +0.000 A 
ATOM      4  C   UNL     1      -2.141  12.702  20.283  0.00  0.00    +0.000 A 
ATOM      5  C   UNL     1      -3.386  12.781  19.666  0.00  0.00    +0.000 A 
ATOM      6  C   UNL     1      -3.800  11.844  18.703  0.00  0.00    +0.000 A 
ATOM      7  O   UNL     1      -0.099  11.680  20.650  0.00  0.00    +0.000 OA
ATOM      8  C   UNL     1       0.925  10.749  20.281  0.00  0.00    +0.000 C 
ATOM      9  C   UNL     1       0.561   9.714  19.257  0.00  0.00    +0.000 C 
ATOM     10  C   UNL     1      -0.626   9.694  18.633  0.00  0.00    +0.000 C 
ENDROOT
BRANCH   9  11
ATOM     11  C   UNL     1       1.630   8.740  18.963  0.00  0.00    +0.000 A 
ATOM     12  C   UNL     1       2.309   8.805  17.740  0.00  0.00    +0.000 A 
ATOM     13  C   UNL     1       3.228   7.812  17.383  0.00  0.00    +0.000 A 
ATOM     14  C   UNL     1       3.491   6.743  18.246  0.00  0.00    +0.000 A 
ATOM     15  C   UNL     1       4.442   5.648  17.857  0.00  0.00    +0.000 C 
ATOM     16  C   UNL     1       2.841   6.693  19.487  0.00  0.00    +0.000 A 
ATOM     17  C   UNL     1       1.913   7.678  19.832  0.00  0.00    +0.000 A 
BRANCH  17  18
ATOM     18  O   UNL     1       1.243   7.588  21.022  0.00  0.00    +0.000 OA
ATOM     19  H   UNL     1       0.706   6.780  21.023  0.00  0.00    +0.000 HD
ENDBRANCH  17  18
ENDBRANCH   9  11
BRANCH   1  21
ATOM     20  C   UNL     1      -3.051  10.021  16.081  0.00  0.00    +0.000 C 
ATOM     21  O   UNL     1      -3.185   9.785  17.477  0.00  0.00    +0.000 OA
ENDBRANCH   1  21
BRANCH   5  22
ATOM     22  O   UNL     1      -4.244  13.779  20.049  0.00  0.00    +0.000 OA
ATOM     23  H   UNL     1      -3.873  14.237  20.820  0.00  0.00    +0.000 HD
ENDBRANCH   5  22
BRANCH   6  24
ATOM     24  C   UNL     1      -5.235  11.924  18.211  0.00  0.00    +0.000 C 
BRANCH  24  25
ATOM     25  C   UNL     1      -6.113  10.762  18.615  0.00  0.00    +0.000 C 
ATOM     26  C   UNL     1      -6.796  10.670  19.775  0.00  0.00    +0.000 C 
ATOM     27  C   UNL     1      -6.882  11.777  20.791  0.00  0.00    +0.000 C 
ATOM     28  C   UNL     1      -7.541   9.418  20.154  0.00  0.00    +0.000 C 
ENDBRANCH  24  25
ENDBRANCH   6  24
TORSDOF 6
ENDMDL
MODEL 7
REMARK VINA RESULT:      -7.5      1.832      8.261
REMARK  Name = 
REMARK  10 active torsions:
REMARK  status: ('A' for Active; 'I' for Inactive)
REMARK    1  A    between atoms: C_1  and  O_2
REMARK    2  A    between atoms: O_2  and  C_3
REMARK    3  A    between atoms: C_7  and  O_8
REMARK    4  A    between atoms: C_9  and  C_10
REMARK    5  A    between atoms: C_10  and  C_11
REMARK    6  A    between atoms: C_12  and  C_13
REMARK    7  A    between atoms: C_12  and  C_14
REMARK    8  A    between atoms: C_17  and  C_18
REMARK    9  A    between atoms: C_21  and  C_22
REMARK   10  A    between atoms: C_24  and  O_25
REMARK                            x       y       z     vdW  Elec       q    Type
REMARK                         _______ _______ _______ _____ _____    ______ ____
ROOT
ATOM      1  C   UNL     1       1.064   9.702  19.371  0.00  0.00    +0.000 A 
ATOM      2  C   UNL     1       1.635   8.401  19.477  0.00  0.00    +0.000 A 
ATOM      3  C   UNL     1       1.395   7.640  20.627  0.00  0.00    +0.000 A 
ATOM      4  C   UNL     1       0.623   8.145  21.668  0.00  0.00    +0.000 A 
ATOM      5  C   UNL     1       0.068   9.417  21.561  0.00  0.00    +0.000 A 
ATOM      6  C   UNL     1       0.246  10.211  20.415  0.00  0.00    +0.000 A 
ATOM      7  O   UNL     1       1.834   6.362  20.828  0.00  0.00    +0.000 OA
ATOM      8  C   UNL     1       2.739   5.795  19.874  0.00  0.00    +0.000 C 
ATOM      9  C   UNL     1       2.982   6.584  18.621  0.00  0.00    +0.000 C 
ATOM     10  C   UNL     1       2.464   7.804  18.418  0.00  0.00    +0.000 C 
ENDROOT
BRANCH   9  11
ATOM     11  C   UNL     1       3.870   5.925  17.644  0.00  0.00    +0.000 A 
ATOM     12  C   UNL     1       4.815   6.685  16.943  0.00  0.00    +0.000 A 
ATOM     13  C   UNL     1       5.572   6.109  15.917  0.00  0.00    +0.000 A 
ATOM     14  C   UNL     1       5.403   4.762  15.578  0.00  0.00    +0.000 A 
ATOM     15  C   UNL     1       6.176   4.142  14.451  0.00  0.00    +0.000 C 
ATOM     16  C   UNL     1       4.483   3.988  16.301  0.00  0.00    +0.000 A 
ATOM     17  C   UNL     1       3.720   4.572  17.315  0.00  0.00    +0.000 A 
BRANCH  17  18
ATOM     18  O   UNL     1       2.786   3.820  17.975  0.00  0.00    +0.000 OA
ATOM     19  H   UNL     1       2.295   4.390  18.587  0.00  0.00    +0.000 HD
ENDBRANCH  17  18
ENDBRANCH   9  11
BRANCH   1  21
ATOM     20  C   UNL     1       2.255  11.317  18.069  0.00  0.00    +0.000 C 
ATOM     21  O   UNL     1       1.243  10.321  18.153  0.00  0.00    +0.000 OA
ENDBRANCH   1  21
BRANCH   5  22
ATOM     22  O   UNL     1      -0.711   9.879  22.588  0.00  0.00    +0.000 OA
ATOM     23  H   UNL     1      -1.618  10.004  22.267  0.00  0.00    +0.000 HD
ENDBRANCH   5  22
BRANCH   6  24
ATOM     24  C   UNL     1      -0.534  11.513  20.330  0.00  0.00    +0.000 C 
BRANCH  24  25
ATOM     25  C   UNL     1       0.243  12.749  20.718  0.00  0.00    +0.000 C 
ATOM     26  C   UNL     1      -0.031  13.539  21.777  0.00  0.00    +0.000 C 
ATOM     27  C   UNL     1      -1.086  13.232  22.806  0.00  0.00    +0.000 C 
ATOM     28  C   UNL     1       0.714  14.826  22.014  0.00  0.00    +0.000 C 
ENDBRANCH  24  25
ENDBRANCH   6  24
TORSDOF 6
ENDMDL
MODEL 8
REMARK VINA RESULT:      -7.5      1.673      7.983
REMARK  Name = 
REMARK  10 active torsions:
REMARK  status: ('A' for Active; 'I' for Inactive)
REMARK    1  A    between atoms: C_1  and  O_2
REMARK    2  A    between atoms: O_2  and  C_3
REMARK    3  A    between atoms: C_7  and  O_8
REMARK    4  A    between atoms: C_9  and  C_10
REMARK    5  A    between atoms: C_10  and  C_11
REMARK    6  A    between atoms: C_12  and  C_13
REMARK    7  A    between atoms: C_12  and  C_14
REMARK    8  A    between atoms: C_17  and  C_18
REMARK    9  A    between atoms: C_21  and  C_22
REMARK   10  A    between atoms: C_24  and  O_25
REMARK                            x       y       z     vdW  Elec       q    Type
REMARK                         _______ _______ _______ _____ _____    ______ ____
ROOT
ATOM      1  C   UNL     1       1.119   9.609  19.255  0.00  0.00    +0.000 A 
ATOM      2  C   UNL     1       1.711   8.320  19.375  0.00  0.00    +0.000 A 
ATOM      3  C   UNL     1       1.492   7.571  20.538  0.00  0.00    +0.000 A 
ATOM      4  C   UNL     1       0.720   8.079  21.578  0.00  0.00    +0.000 A 
ATOM      5  C   UNL     1       0.144   9.340  21.456  0.00  0.00    +0.000 A 
ATOM      6  C   UNL     1       0.300  10.121  20.298  0.00  0.00    +0.000 A 
ATOM      7  O   UNL     1       1.953   6.303  20.754  0.00  0.00    +0.000 OA
ATOM      8  C   UNL     1       2.860   5.738  19.802  0.00  0.00    +0.000 C 
ATOM      9  C   UNL     1       3.081   6.512  18.535  0.00  0.00    +0.000 C 
ATOM     10  C   UNL     1       2.542   7.721  18.319  0.00  0.00    +0.000 C 
ENDROOT
BRANCH   9  11
ATOM     11  C   UNL     1       3.973   5.854  17.561  0.00  0.00    +0.000 A 
ATOM     12  C   UNL     1       4.930   6.610  16.875  0.00  0.00    +0.000 A 
ATOM     13  C   UNL     1       5.691   6.036  15.851  0.00  0.00    +0.000 A 
ATOM     14  C   UNL     1       5.514   4.693  15.501  0.00  0.00    +0.000 A 
ATOM     15  C   UNL     1       6.292   4.076  14.375  0.00  0.00    +0.000 C 
ATOM     16  C   UNL     1       4.582   3.921  16.209  0.00  0.00    +0.000 A 
ATOM     17  C   UNL     1       3.814   4.504  17.220  0.00  0.00    +0.000 A 
BRANCH  17  18
ATOM     18  O   UNL     1       2.867   3.754  17.866  0.00  0.00    +0.000 OA
ATOM     19  H   UNL     1       1.998   3.941  17.478  0.00  0.00    +0.000 HD
ENDBRANCH  17  18
ENDBRANCH   9  11
BRANCH   1  21
ATOM     20  C   UNL     1       2.299  11.198  17.911  0.00  0.00    +0.000 C 
ATOM     21  O   UNL     1       1.279  10.213  18.027  0.00  0.00    +0.000 OA
ENDBRANCH   1  21
BRANCH   5  22
ATOM     22  O   UNL     1      -0.635   9.805  22.483  0.00  0.00    +0.000 OA
ATOM     23  H   UNL     1      -0.070  10.003  23.246  0.00  0.00    +0.000 HD
ENDBRANCH   5  22
BRANCH   6  24
ATOM     24  C   UNL     1      -0.501  11.409  20.200  0.00  0.00    +0.000 C 
BRANCH  24  25
ATOM     25  C   UNL     1       0.243  12.656  20.616  0.00  0.00    +0.000 C 
ATOM     26  C   UNL     1       0.440  13.740  19.837  0.00  0.00    +0.000 C 
ATOM     27  C   UNL     1      -0.165  13.916  18.470  0.00  0.00    +0.000 C 
ATOM     28  C   UNL     1       1.308  14.886  20.285  0.00  0.00    +0.000 C 
ENDBRANCH  24  25
ENDBRANCH   6  24
TORSDOF 6
ENDMDL
MODEL 9
REMARK VINA RESULT:      -7.5      1.663      2.388
REMARK  Name = 
REMARK  10 active torsions:
REMARK  status: ('A' for Active; 'I' for Inactive)
REMARK    1  A    between atoms: C_1  and  O_2
REMARK    2  A    between atoms: O_2  and  C_3
REMARK    3  A    between atoms: C_7  and  O_8
REMARK    4  A    between atoms: C_9  and  C_10
REMARK    5  A    between atoms: C_10  and  C_11
REMARK    6  A    between atoms: C_12  and  C_13
REMARK    7  A    between atoms: C_12  and  C_14
REMARK    8  A    between atoms: C_17  and  C_18
REMARK    9  A    between atoms: C_21  and  C_22
REMARK   10  A    between atoms: C_24  and  O_25
REMARK                            x       y       z     vdW  Elec       q    Type
REMARK                         _______ _______ _______ _____ _____    ______ ____
ROOT
ATOM      1  C   UNL     1       5.422   6.021  16.552  0.00  0.00    +0.000 A 
ATOM      2  C   UNL     1       4.190   6.061  17.266  0.00  0.00    +0.000 A 
ATOM      3  C   UNL     1       3.477   4.873  17.466  0.00  0.00    +0.000 A 
ATOM      4  C   UNL     1       3.948   3.665  16.963  0.00  0.00    +0.000 A 
ATOM      5  C   UNL     1       5.151   3.631  16.266  0.00  0.00    +0.000 A 
ATOM      6  C   UNL     1       5.928   4.786  16.065  0.00  0.00    +0.000 A 
ATOM      7  O   UNL     1       2.316   4.765  18.180  0.00  0.00    +0.000 OA
ATOM      8  C   UNL     1       1.682   5.966  18.633  0.00  0.00    +0.000 C 
ATOM      9  C   UNL     1       2.448   7.245  18.454  0.00  0.00    +0.000 C 
ATOM     10  C   UNL     1       3.629   7.302  17.822  0.00  0.00    +0.000 C 
ENDROOT
BRANCH   9  11
ATOM     11  C   UNL     1       1.777   8.442  18.997  0.00  0.00    +0.000 A 
ATOM     12  C   UNL     1       1.511   9.529  18.155  0.00  0.00    +0.000 A 
ATOM     13  C   UNL     1       1.002  10.724  18.675  0.00  0.00    +0.000 A 
ATOM     14  C   UNL     1       0.743  10.850  20.045  0.00  0.00    +0.000 A 
ATOM     15  C   UNL     1       0.239  12.140  20.623  0.00  0.00    +0.000 C 
ATOM     16  C   UNL     1       0.975   9.753  20.886  0.00  0.00    +0.000 A 
ATOM     17  C   UNL     1       1.497   8.567  20.364  0.00  0.00    +0.000 A 
BRANCH  17  18
ATOM     18  O   UNL     1       1.771   7.522  21.205  0.00  0.00    +0.000 OA
ATOM     19  H   UNL     1       2.220   6.822  20.704  0.00  0.00    +0.000 HD
ENDBRANCH  17  18
ENDBRANCH   9  11
BRANCH   1  21
ATOM     20  C   UNL     1       7.190   7.366  17.440  0.00  0.00    +0.000 C 
ATOM     21  O   UNL     1       6.116   7.211  16.519  0.00  0.00    +0.000 OA
ENDBRANCH   1  21
BRANCH   5  22
ATOM     22  O   UNL     1       5.607   2.423  15.806  0.00  0.00    +0.000 OA
ATOM     23  H   UNL     1       5.060   1.714  16.180  0.00  0.00    +0.000 HD
ENDBRANCH   5  22
BRANCH   6  24
ATOM     24  C   UNL     1       7.300   4.614  15.435  0.00  0.00    +0.000 C 
BRANCH  24  25
ATOM     25  C   UNL     1       7.477   5.294  14.098  0.00  0.00    +0.000 C 
ATOM     26  C   UNL     1       7.123   4.770  12.906  0.00  0.00    +0.000 C 
ATOM     27  C   UNL     1       6.379   3.471  12.745  0.00  0.00    +0.000 C 
ATOM     28  C   UNL     1       7.457   5.460  11.610  0.00  0.00    +0.000 C 
ENDBRANCH  24  25
ENDBRANCH   6  24
TORSDOF 6
ENDMDL
