MODEL 1
REMARK VINA RESULT:      -8.8      0.000      0.000
REMARK  Name = 
REMARK  5 active torsions:
REMARK  status: ('A' for Active; 'I' for Inactive)
REMARK    1  A    between atoms: C_2  and  C_3
REMARK    2  A    between atoms: C_3  and  C_4
REMARK    3  A    between atoms: N_10  and  C_11
REMARK    4  A    between atoms: C_15  and  C_16
REMARK    5  A    between atoms: N_18  and  C_19
REMARK                            x       y       z     vdW  Elec       q    Type
REMARK                         _______ _______ _______ _____ _____    ______ ____
ROOT
ATOM      1  C   UNL     1       4.799   5.326  18.343  0.00  0.00    +0.000 A 
ATOM      2  S   UNL     1       5.080   3.667  18.198  0.00  0.00    +0.000 S 
ATOM      3  C   UNL     1       3.519   3.311  18.746  0.00  0.00    +0.000 A 
ATOM      4  C   UNL     1       2.752   4.440  18.997  0.00  0.00    +0.000 A 
ATOM      5  C   UNL     1       3.498   5.659  18.705  0.00  0.00    +0.000 A 
ATOM      6  C   UNL     1       1.299   4.293  19.373  0.00  0.00    +0.000 C 
ATOM      7  C   UNL     1       0.980   2.877  19.891  0.00  0.00    +0.000 C 
ATOM      8  C   UNL     1       1.556   1.790  18.976  0.00  0.00    +0.000 C 
ATOM      9  C   UNL     1       3.080   1.886  18.885  0.00  0.00    +0.000 C 
ENDROOT
BRANCH   1  12
ATOM     10  O   UNL     1       7.487   6.597  16.473  0.00  0.00    +0.000 OA
ATOM     11  C   UNL     1       6.356   6.150  16.675  0.00  0.00    +0.000 C 
ATOM     12  N   UNL     1       5.881   6.080  17.960  0.00  0.00    +0.000 N 
ATOM     13  H   UNL     1       6.562   6.309  18.675  0.00  0.00    +0.000 HD
BRANCH  11  14
ATOM     14  C   UNL     1       5.430   5.795  15.521  0.00  0.00    +0.000 C 
BRANCH  14  15
ATOM     15  C   UNL     1       6.058   5.071  14.354  0.00  0.00    +0.000 A 
ATOM     16  C   UNL     1       5.333   4.041  13.733  0.00  0.00    +0.000 A 
ATOM     17  C   UNL     1       5.845   3.376  12.617  0.00  0.00    +0.000 A 
ATOM     18  C   UNL     1       7.084   3.743  12.098  0.00  0.00    +0.000 A 
ATOM     19  C   UNL     1       7.803   4.781  12.689  0.00  0.00    +0.000 A 
ATOM     20  C   UNL     1       7.290   5.448  13.805  0.00  0.00    +0.000 A 
ENDBRANCH  14  15
ENDBRANCH  11  14
ENDBRANCH   1  12
BRANCH   5  21
ATOM     21  C   UNL     1       3.020   7.051  18.617  0.00  0.00    +0.000 C 
ATOM     22  O   UNL     1       3.472   7.777  17.739  0.00  0.00    +0.000 OA
ATOM     23  N   UNL     1       2.093   7.450  19.570  0.00  0.00    +0.000 N 
ATOM     24  H   UNL     1       1.972   6.842  20.367  0.00  0.00    +0.000 HD
BRANCH  23  25
ATOM     25  C   UNL     1       1.509   8.740  19.662  0.00  0.00    +0.000 A 
ATOM     26  C   UNL     1       1.297   9.571  18.554  0.00  0.00    +0.000 A 
ATOM     27  C   UNL     1       0.783  10.864  18.706  0.00  0.00    +0.000 A 
ATOM     28  C   UNL     1       0.460  11.336  19.971  0.00  0.00    +0.000 A 
ATOM     29 CL   UNL     1      -0.145  12.935  20.159  0.00  0.00    +0.000 Cl
ATOM     30  C   UNL     1       0.627  10.514  21.083  0.00  0.00    +0.000 A 
ATOM     31  C   UNL     1       1.143   9.219  20.928  0.00  0.00    +0.000 A 
ENDBRANCH  23  25
ENDBRANCH   5  21
TORSDOF 5
ENDMDL
MODEL 2
REMARK VINA RESULT:      -8.5      0.772      1.249
REMARK  Name = 
REMARK  5 active torsions:
REMARK  status: ('A' for Active; 'I' for Inactive)
REMARK    1  A    between atoms: C_2  and  C_3
REMARK    2  A    between atoms: C_3  and  C_4
REMARK    3  A    between atoms: N_10  and  C_11
REMARK    4  A    between atoms: C_15  and  C_16
REMARK    5  A    between atoms: N_18  and  C_19
REMARK                            x       y       z     vdW  Elec       q    Type
REMARK                         _______ _______ _______ _____ _____    ______ ____
ROOT
ATOM      1  C   UNL     1       4.659   5.433  18.677  0.00  0.00    +0.000 A 
ATOM      2  S   UNL     1       5.077   3.843  18.289  0.00  0.00    +0.000 S 
ATOM      3  C   UNL     1       3.544   3.284  18.741  0.00  0.00    +0.000 A 
ATOM      4  C   UNL     1       2.685   4.298  19.143  0.00  0.00    +0.000 A 
ATOM      5  C   UNL     1       3.332   5.602  19.056  0.00  0.00    +0.000 A 
ATOM      6  C   UNL     1       1.246   3.980  19.460  0.00  0.00    +0.000 C 
ATOM      7  C   UNL     1       1.038   2.481  19.751  0.00  0.00    +0.000 C 
ATOM      8  C   UNL     1       1.710   1.595  18.696  0.00  0.00    +0.000 C 
ATOM      9  C   UNL     1       3.222   1.825  18.654  0.00  0.00    +0.000 C 
ENDROOT
BRANCH   1  12
ATOM     10  O   UNL     1       7.218   7.219  17.063  0.00  0.00    +0.000 OA
ATOM     11  C   UNL     1       6.125   6.663  17.184  0.00  0.00    +0.000 C 
ATOM     12  N   UNL     1       5.679   6.320  18.436  0.00  0.00    +0.000 N 
ATOM     13  H   UNL     1       6.356   6.459  19.178  0.00  0.00    +0.000 HD
BRANCH  11  14
ATOM     14  C   UNL     1       5.203   6.466  15.990  0.00  0.00    +0.000 C 
BRANCH  14  15
ATOM     15  C   UNL     1       5.693   5.529  14.911  0.00  0.00    +0.000 A 
ATOM     16  C   UNL     1       7.003   5.682  14.430  0.00  0.00    +0.000 A 
ATOM     17  C   UNL     1       7.522   4.810  13.472  0.00  0.00    +0.000 A 
ATOM     18  C   UNL     1       6.741   3.763  12.992  0.00  0.00    +0.000 A 
ATOM     19  C   UNL     1       5.447   3.583  13.478  0.00  0.00    +0.000 A 
ATOM     20  C   UNL     1       4.928   4.455  14.439  0.00  0.00    +0.000 A 
ENDBRANCH  14  15
ENDBRANCH  11  14
ENDBRANCH   1  12
BRANCH   5  21
ATOM     21  C   UNL     1       2.742   6.949  19.168  0.00  0.00    +0.000 C 
ATOM     22  O   UNL     1       2.934   7.756  18.266  0.00  0.00    +0.000 OA
ATOM     23  N   UNL     1       2.021   7.215  20.323  0.00  0.00    +0.000 N 
ATOM     24  H   UNL     1       2.124   6.559  21.084  0.00  0.00    +0.000 HD
BRANCH  23  25
ATOM     25  C   UNL     1       1.375   8.442  20.628  0.00  0.00    +0.000 A 
ATOM     26  C   UNL     1       1.039   9.397  19.660  0.00  0.00    +0.000 A 
ATOM     27  C   UNL     1       0.468  10.623  20.018  0.00  0.00    +0.000 A 
ATOM     28  C   UNL     1       0.212  10.902  21.354  0.00  0.00    +0.000 A 
ATOM     29 CL   UNL     1      -0.464  12.421  21.797  0.00  0.00    +0.000 Cl
ATOM     30  C   UNL     1       0.503   9.953  22.331  0.00  0.00    +0.000 A 
ATOM     31  C   UNL     1       1.075   8.725  21.968  0.00  0.00    +0.000 A 
ENDBRANCH  23  25
ENDBRANCH   5  21
TORSDOF 5
ENDMDL
MODEL 3
REMARK VINA RESULT:      -8.5      0.801      1.222
REMARK  Name = 
REMARK  5 active torsions:
REMARK  status: ('A' for Active; 'I' for Inactive)
REMARK    1  A    between atoms: C_2  and  C_3
REMARK    2  A    between atoms: C_3  and  C_4
REMARK    3  A    between atoms: N_10  and  C_11
REMARK    4  A    between atoms: C_15  and  C_16
REMARK    5  A    between atoms: N_18  and  C_19
REMARK                            x       y       z     vdW  Elec       q    Type
REMARK                         _______ _______ _______ _____ _____    ______ ____
ROOT
ATOM      1  C   UNL     1       4.775   5.535  18.467  0.00  0.00    +0.000 A 
ATOM      2  S   UNL     1       5.101   3.902  18.754  0.00  0.00    +0.000 S 
ATOM      3  C   UNL     1       3.571   3.673  19.440  0.00  0.00    +0.000 A 
ATOM      4  C   UNL     1       2.780   4.814  19.416  0.00  0.00    +0.000 A 
ATOM      5  C   UNL     1       3.478   5.926  18.782  0.00  0.00    +0.000 A 
ATOM      6  C   UNL     1       1.346   4.742  19.877  0.00  0.00    +0.000 C 
ATOM      7  C   UNL     1       1.087   3.508  20.763  0.00  0.00    +0.000 C 
ATOM      8  C   UNL     1       1.664   2.230  20.145  0.00  0.00    +0.000 C 
ATOM      9  C   UNL     1       3.180   2.328  19.969  0.00  0.00    +0.000 C 
ENDROOT
BRANCH   1  12
ATOM     10  O   UNL     1       7.370   6.307  16.229  0.00  0.00    +0.000 OA
ATOM     11  C   UNL     1       6.261   5.904  16.585  0.00  0.00    +0.000 C 
ATOM     12  N   UNL     1       5.820   6.182  17.854  0.00  0.00    +0.000 N 
ATOM     13  H   UNL     1       6.510   6.619  18.455  0.00  0.00    +0.000 HD
BRANCH  11  14
ATOM     14  C   UNL     1       5.321   5.217  15.607  0.00  0.00    +0.000 C 
BRANCH  14  15
ATOM     15  C   UNL     1       5.921   4.778  14.292  0.00  0.00    +0.000 A 
ATOM     16  C   UNL     1       7.167   5.302  13.913  0.00  0.00    +0.000 A 
ATOM     17  C   UNL     1       7.790   4.889  12.734  0.00  0.00    +0.000 A 
ATOM     18  C   UNL     1       7.181   3.934  11.925  0.00  0.00    +0.000 A 
ATOM     19  C   UNL     1       5.955   3.387  12.301  0.00  0.00    +0.000 A 
ATOM     20  C   UNL     1       5.332   3.799  13.482  0.00  0.00    +0.000 A 
ENDBRANCH  14  15
ENDBRANCH  11  14
ENDBRANCH   1  12
BRANCH   5  21
ATOM     21  C   UNL     1       2.956   7.235  18.349  0.00  0.00    +0.000 C 
ATOM     22  O   UNL     1       3.261   7.656  17.239  0.00  0.00    +0.000 OA
ATOM     23  N   UNL     1       2.161   7.917  19.259  0.00  0.00    +0.000 N 
ATOM     24  H   UNL     1       2.169   7.578  20.211  0.00  0.00    +0.000 HD
BRANCH  23  25
ATOM     25  C   UNL     1       1.561   9.185  19.043  0.00  0.00    +0.000 A 
ATOM     26  C   UNL     1       2.140  10.186  18.252  0.00  0.00    +0.000 A 
ATOM     27  C   UNL     1       1.544  11.446  18.127  0.00  0.00    +0.000 A 
ATOM     28  C   UNL     1       0.351  11.715  18.783  0.00  0.00    +0.000 A 
ATOM     29 CL   UNL     1      -0.366  13.273  18.652  0.00  0.00    +0.000 Cl
ATOM     30  C   UNL     1      -0.262  10.723  19.545  0.00  0.00    +0.000 A 
ATOM     31  C   UNL     1       0.338   9.461  19.668  0.00  0.00    +0.000 A 
ENDBRANCH  23  25
ENDBRANCH   5  21
TORSDOF 5
ENDMDL
MODEL 4
REMARK VINA RESULT:      -8.5      0.146      1.271
REMARK  Name = 
REMARK  5 active torsions:
REMARK  status: ('A' for Active; 'I' for Inactive)
REMARK    1  A    between atoms: C_2  and  C_3
REMARK    2  A    between atoms: C_3  and  C_4
REMARK    3  A    between atoms: N_10  and  C_11
REMARK    4  A    between atoms: C_15  and  C_16
REMARK    5  A    between atoms: N_18  and  C_19
REMARK                            x       y       z     vdW  Elec       q    Type
REMARK                         _______ _______ _______ _____ _____    ______ ____
ROOT
ATOM      1  C   UNL     1       4.790   5.270  18.359  0.00  0.00    +0.000 A 
ATOM      2  S   UNL     1       5.058   3.613  18.169  0.00  0.00    +0.000 S 
ATOM      3  C   UNL     1       3.495   3.255  18.710  0.00  0.00    +0.000 A 
ATOM      4  C   UNL     1       2.738   4.384  18.993  0.00  0.00    +0.000 A 
ATOM      5  C   UNL     1       3.493   5.603  18.733  0.00  0.00    +0.000 A 
ATOM      6  C   UNL     1       1.285   4.238  19.369  0.00  0.00    +0.000 C 
ATOM      7  C   UNL     1       0.955   2.812  19.849  0.00  0.00    +0.000 C 
ATOM      8  C   UNL     1       1.520   1.745  18.905  0.00  0.00    +0.000 C 
ATOM      9  C   UNL     1       3.044   1.830  18.813  0.00  0.00    +0.000 C 
ENDROOT
BRANCH   1  12
ATOM     10  O   UNL     1       7.460   6.597  16.501  0.00  0.00    +0.000 OA
ATOM     11  C   UNL     1       6.326   6.159  16.704  0.00  0.00    +0.000 C 
ATOM     12  N   UNL     1       5.878   6.025  17.994  0.00  0.00    +0.000 N 
ATOM     13  H   UNL     1       6.579   6.200  18.705  0.00  0.00    +0.000 HD
BRANCH  11  14
ATOM     14  C   UNL     1       5.367   5.888  15.554  0.00  0.00    +0.000 C 
BRANCH  14  15
ATOM     15  C   UNL     1       5.937   5.157  14.362  0.00  0.00    +0.000 A 
ATOM     16  C   UNL     1       7.191   5.551  13.867  0.00  0.00    +0.000 A 
ATOM     17  C   UNL     1       7.787   4.874  12.802  0.00  0.00    +0.000 A 
ATOM     18  C   UNL     1       7.141   3.784  12.225  0.00  0.00    +0.000 A 
ATOM     19  C   UNL     1       5.908   3.366  12.721  0.00  0.00    +0.000 A 
ATOM     20  C   UNL     1       5.312   4.042  13.790  0.00  0.00    +0.000 A 
ENDBRANCH  14  15
ENDBRANCH  11  14
ENDBRANCH   1  12
BRANCH   5  21
ATOM     21  C   UNL     1       3.027   7.001  18.682  0.00  0.00    +0.000 C 
ATOM     22  O   UNL     1       3.481   7.746  17.822  0.00  0.00    +0.000 OA
ATOM     23  N   UNL     1       2.108   7.383  19.650  0.00  0.00    +0.000 N 
ATOM     24  H   UNL     1       1.985   6.755  20.432  0.00  0.00    +0.000 HD
BRANCH  23  25
ATOM     25  C   UNL     1       1.534   8.675  19.779  0.00  0.00    +0.000 A 
ATOM     26  C   UNL     1       1.215   9.256  21.013  0.00  0.00    +0.000 A 
ATOM     27  C   UNL     1       0.585  10.504  21.085  0.00  0.00    +0.000 A 
ATOM     28  C   UNL     1       0.279  11.192  19.919  0.00  0.00    +0.000 A 
ATOM     29 CL   UNL     1      -0.522  12.712  20.007  0.00  0.00    +0.000 Cl
ATOM     30  C   UNL     1       0.620  10.651  18.682  0.00  0.00    +0.000 A 
ATOM     31  C   UNL     1       1.252   9.400  18.613  0.00  0.00    +0.000 A 
ENDBRANCH  23  25
ENDBRANCH   5  21
TORSDOF 5
ENDMDL
MODEL 5
REMARK VINA RESULT:      -8.3      1.958      3.098
REMARK  Name = 
REMARK  5 active torsions:
REMARK  status: ('A' for Active; 'I' for Inactive)
REMARK    1  A    between atoms: C_2  and  C_3
REMARK    2  A    between atoms: C_3  and  C_4
REMARK    3  A    between atoms: N_10  and  C_11
REMARK    4  A    between atoms: C_15  and  C_16
REMARK    5  A    between atoms: N_18  and  C_19
REMARK                            x       y       z     vdW  Elec       q    Type
REMARK                         _______ _______ _______ _____ _____    ______ ____
ROOT
ATOM      1  C   UNL     1       3.486   4.250  17.364  0.00  0.00    +0.000 A 
ATOM      2  S   UNL     1       3.207   2.611  17.666  0.00  0.00    +0.000 S 
ATOM      3  C   UNL     1       2.739   2.941  19.259  0.00  0.00    +0.000 A 
ATOM      4  C   UNL     1       2.740   4.295  19.564  0.00  0.00    +0.000 A 
ATOM      5  C   UNL     1       3.137   5.095  18.411  0.00  0.00    +0.000 A 
ATOM      6  C   UNL     1       2.230   4.763  20.904  0.00  0.00    +0.000 C 
ATOM      7  C   UNL     1       2.213   3.624  21.942  0.00  0.00    +0.000 C 
ATOM      8  C   UNL     1       1.573   2.349  21.383  0.00  0.00    +0.000 C 
ATOM      9  C   UNL     1       2.345   1.821  20.172  0.00  0.00    +0.000 C 
ENDROOT
BRANCH   1  12
ATOM     10  O   UNL     1       5.450   5.208  14.613  0.00  0.00    +0.000 OA
ATOM     11  C   UNL     1       5.206   4.716  15.716  0.00  0.00    +0.000 C 
ATOM     12  N   UNL     1       3.902   4.485  16.076  0.00  0.00    +0.000 N 
ATOM     13  H   UNL     1       3.214   4.849  15.427  0.00  0.00    +0.000 HD
BRANCH  11  14
ATOM     14  C   UNL     1       6.323   4.242  16.634  0.00  0.00    +0.000 C 
BRANCH  14  15
ATOM     15  C   UNL     1       7.057   5.312  17.407  0.00  0.00    +0.000 A 
ATOM     16  C   UNL     1       7.138   6.603  16.859  0.00  0.00    +0.000 A 
ATOM     17  C   UNL     1       7.759   7.640  17.556  0.00  0.00    +0.000 A 
ATOM     18  C   UNL     1       8.295   7.404  18.819  0.00  0.00    +0.000 A 
ATOM     19  C   UNL     1       8.201   6.134  19.386  0.00  0.00    +0.000 A 
ATOM     20  C   UNL     1       7.577   5.096  18.689  0.00  0.00    +0.000 A 
ENDBRANCH  14  15
ENDBRANCH  11  14
ENDBRANCH   1  12
BRANCH   5  21
ATOM     21  C   UNL     1       3.067   6.554  18.215  0.00  0.00    +0.000 C 
ATOM     22  O   UNL     1       3.915   7.099  17.518  0.00  0.00    +0.000 OA
ATOM     23  N   UNL     1       2.039   7.219  18.868  0.00  0.00    +0.000 N 
ATOM     24  H   UNL     1       1.549   6.703  19.585  0.00  0.00    +0.000 HD
BRANCH  23  25
ATOM     25  C   UNL     1       1.793   8.616  18.813  0.00  0.00    +0.000 A 
ATOM     26  C   UNL     1       2.249   9.437  17.775  0.00  0.00    +0.000 A 
ATOM     27  C   UNL     1       2.043  10.822  17.802  0.00  0.00    +0.000 A 
ATOM     28  C   UNL     1       1.362  11.399  18.865  0.00  0.00    +0.000 A 
ATOM     29 CL   UNL     1       1.134  13.103  18.911  0.00  0.00    +0.000 Cl
ATOM     30  C   UNL     1       0.867  10.597  19.890  0.00  0.00    +0.000 A 
ATOM     31  C   UNL     1       1.076   9.210  19.860  0.00  0.00    +0.000 A 
ENDBRANCH  23  25
ENDBRANCH   5  21
TORSDOF 5
ENDMDL
MODEL 6
REMARK VINA RESULT:      -8.2      5.063     10.081
REMARK  Name = 
REMARK  5 active torsions:
REMARK  status: ('A' for Active; 'I' for Inactive)
REMARK    1  A    between atoms: C_2  and  C_3
REMARK    2  A    between atoms: C_3  and  C_4
REMARK    3  A    between atoms: N_10  and  C_11
REMARK    4  A    between atoms: C_15  and  C_16
REMARK    5  A    between atoms: N_18  and  C_19
REMARK                            x       y       z     vdW  Elec       q    Type
REMARK                         _______ _______ _______ _____ _____    ______ ____
ROOT
ATOM      1  C   UNL     1      -1.593  11.523  18.461  0.00  0.00    +0.000 A 
ATOM      2  S   UNL     1      -2.326  12.775  19.328  0.00  0.00    +0.000 S 
ATOM      3  C   UNL     1      -1.757  12.149  20.795  0.00  0.00    +0.000 A 
ATOM      4  C   UNL     1      -0.968  11.017  20.642  0.00  0.00    +0.000 A 
ATOM      5  C   UNL     1      -0.819  10.665  19.235  0.00  0.00    +0.000 A 
ATOM      6  C   UNL     1      -0.284  10.412  21.841  0.00  0.00    +0.000 C 
ATOM      7  C   UNL     1      -0.939  10.858  23.163  0.00  0.00    +0.000 C 
ATOM      8  C   UNL     1      -1.164  12.374  23.206  0.00  0.00    +0.000 C 
ATOM      9  C   UNL     1      -2.095  12.833  22.083  0.00  0.00    +0.000 C 
ENDROOT
BRANCH   1  12
ATOM     10  O   UNL     1      -2.543  10.806  15.156  0.00  0.00    +0.000 OA
ATOM     11  C   UNL     1      -2.648  10.845  16.384  0.00  0.00    +0.000 C 
ATOM     12  N   UNL     1      -1.790  11.635  17.107  0.00  0.00    +0.000 N 
ATOM     13  H   UNL     1      -1.044  12.055  16.564  0.00  0.00    +0.000 HD
BRANCH  11  14
ATOM     14  C   UNL     1      -3.787  10.137  17.101  0.00  0.00    +0.000 C 
BRANCH  14  15
ATOM     15  C   UNL     1      -5.002  10.975  17.424  0.00  0.00    +0.000 A 
ATOM     16  C   UNL     1      -5.867  10.541  18.441  0.00  0.00    +0.000 A 
ATOM     17  C   UNL     1      -6.975  11.305  18.815  0.00  0.00    +0.000 A 
ATOM     18  C   UNL     1      -7.223  12.521  18.184  0.00  0.00    +0.000 A 
ATOM     19  C   UNL     1      -6.359  12.976  17.190  0.00  0.00    +0.000 A 
ATOM     20  C   UNL     1      -5.249  12.212  16.818  0.00  0.00    +0.000 A 
ENDBRANCH  14  15
ENDBRANCH  11  14
ENDBRANCH   1  12
BRANCH   5  21
ATOM     21  C   UNL     1       0.091   9.692  18.604  0.00  0.00    +0.000 C 
ATOM     22  O   UNL     1      -0.066   9.414  17.421  0.00  0.00    +0.000 OA
ATOM     23  N   UNL     1       1.063   9.133  19.421  0.00  0.00    +0.000 N 
ATOM     24  H   UNL     1       0.950   9.265  20.416  0.00  0.00    +0.000 HD
BRANCH  23  25
ATOM     25  C   UNL     1       2.035   8.181  19.015  0.00  0.00    +0.000 A 
ATOM     26  C   UNL     1       2.787   8.302  17.840  0.00  0.00    +0.000 A 
ATOM     27  C   UNL     1       3.682   7.300  17.446  0.00  0.00    +0.000 A 
ATOM     28  C   UNL     1       3.846   6.170  18.235  0.00  0.00    +0.000 A 
ATOM     29 CL   UNL     1       4.925   4.927  17.736  0.00  0.00    +0.000 Cl
ATOM     30  C   UNL     1       3.137   6.046  19.427  0.00  0.00    +0.000 A 
ATOM     31  C   UNL     1       2.240   7.051  19.819  0.00  0.00    +0.000 A 
ENDBRANCH  23  25
ENDBRANCH   5  21
TORSDOF 5
ENDMDL
MODEL 7
REMARK VINA RESULT:      -8.1      4.714      9.278
REMARK  Name = 
REMARK  5 active torsions:
REMARK  status: ('A' for Active; 'I' for Inactive)
REMARK    1  A    between atoms: C_2  and  C_3
REMARK    2  A    between atoms: C_3  and  C_4
REMARK    3  A    between atoms: N_10  and  C_11
REMARK    4  A    between atoms: C_15  and  C_16
REMARK    5  A    between atoms: N_18  and  C_19
REMARK                            x       y       z     vdW  Elec       q    Type
REMARK                         _______ _______ _______ _____ _____    ______ ____
ROOT
ATOM      1  C   UNL     1      -0.215  11.996  20.010  0.00  0.00    +0.000 A 
ATOM      2  S   UNL     1      -1.623  12.919  19.871  0.00  0.00    +0.000 S 
ATOM      3  C   UNL     1      -2.314  11.786  18.820  0.00  0.00    +0.000 A 
ATOM      4  C   UNL     1      -1.509  10.675  18.603  0.00  0.00    +0.000 A 
ATOM      5  C   UNL     1      -0.266  10.769  19.358  0.00  0.00    +0.000 A 
ATOM      6  C   UNL     1      -2.032   9.518  17.789  0.00  0.00    +0.000 C 
ATOM      7  C   UNL     1      -3.227   9.928  16.907  0.00  0.00    +0.000 C 
ATOM      8  C   UNL     1      -4.271  10.728  17.694  0.00  0.00    +0.000 C 
ATOM      9  C   UNL     1      -3.679  12.023  18.253  0.00  0.00    +0.000 C 
ENDROOT
BRANCH   1  12
ATOM     10  O   UNL     1       2.814  13.212  21.310  0.00  0.00    +0.000 OA
ATOM     11  C   UNL     1       1.951  12.996  20.457  0.00  0.00    +0.000 C 
ATOM     12  N   UNL     1       0.709  12.567  20.851  0.00  0.00    +0.000 N 
ATOM     13  H   UNL     1       0.630  12.351  21.839  0.00  0.00    +0.000 HD
BRANCH  11  14
ATOM     14  C   UNL     1       2.193  13.318  18.990  0.00  0.00    +0.000 C 
BRANCH  14  15
ATOM     15  C   UNL     1       2.089  14.772  18.595  0.00  0.00    +0.000 A 
ATOM     16  C   UNL     1       3.124  15.337  17.833  0.00  0.00    +0.000 A 
ATOM     17  C   UNL     1       3.053  16.661  17.396  0.00  0.00    +0.000 A 
ATOM     18  C   UNL     1       1.937  17.434  17.705  0.00  0.00    +0.000 A 
ATOM     19  C   UNL     1       0.891  16.878  18.439  0.00  0.00    +0.000 A 
ATOM     20  C   UNL     1       0.961  15.552  18.875  0.00  0.00    +0.000 A 
ENDBRANCH  14  15
ENDBRANCH  11  14
ENDBRANCH   1  12
BRANCH   5  21
ATOM     21  C   UNL     1       0.763   9.741  19.599  0.00  0.00    +0.000 C 
ATOM     22  O   UNL     1       1.148   9.546  20.746  0.00  0.00    +0.000 OA
ATOM     23  N   UNL     1       1.248   9.076  18.482  0.00  0.00    +0.000 N 
ATOM     24  H   UNL     1       1.024   9.477  17.582  0.00  0.00    +0.000 HD
BRANCH  23  25
ATOM     25  C   UNL     1       2.236   8.056  18.492  0.00  0.00    +0.000 A 
ATOM     26  C   UNL     1       3.231   7.938  17.514  0.00  0.00    +0.000 A 
ATOM     27  C   UNL     1       4.139   6.873  17.528  0.00  0.00    +0.000 A 
ATOM     28  C   UNL     1       4.069   5.919  18.534  0.00  0.00    +0.000 A 
ATOM     29 CL   UNL     1       5.167   4.595  18.535  0.00  0.00    +0.000 Cl
ATOM     30  C   UNL     1       3.112   6.036  19.539  0.00  0.00    +0.000 A 
ATOM     31  C   UNL     1       2.203   7.105  19.521  0.00  0.00    +0.000 A 
ENDBRANCH  23  25
ENDBRANCH   5  21
TORSDOF 5
ENDMDL
MODEL 8
REMARK VINA RESULT:      -8.0      4.634      9.027
REMARK  Name = 
REMARK  5 active torsions:
REMARK  status: ('A' for Active; 'I' for Inactive)
REMARK    1  A    between atoms: C_2  and  C_3
REMARK    2  A    between atoms: C_3  and  C_4
REMARK    3  A    between atoms: N_10  and  C_11
REMARK    4  A    between atoms: C_15  and  C_16
REMARK    5  A    between atoms: N_18  and  C_19
REMARK                            x       y       z     vdW  Elec       q    Type
REMARK                         _______ _______ _______ _____ _____    ______ ____
ROOT
ATOM      1  C   UNL     1      -0.082  11.701  19.830  0.00  0.00    +0.000 A 
ATOM      2  S   UNL     1      -1.644  12.264  20.146  0.00  0.00    +0.000 S 
ATOM      3  C   UNL     1      -2.252  11.471  18.780  0.00  0.00    +0.000 A 
ATOM      4  C   UNL     1      -1.293  10.732  18.100  0.00  0.00    +0.000 A 
ATOM      5  C   UNL     1       0.005  10.822  18.757  0.00  0.00    +0.000 A 
ATOM      6  C   UNL     1      -1.701   9.869  16.933  0.00  0.00    +0.000 C 
ATOM      7  C   UNL     1      -3.064  10.291  16.353  0.00  0.00    +0.000 C 
ATOM      8  C   UNL     1      -4.117  10.485  17.450  0.00  0.00    +0.000 C 
ATOM      9  C   UNL     1      -3.704  11.583  18.432  0.00  0.00    +0.000 C 
ENDROOT
BRANCH   1  12
ATOM     10  O   UNL     1       2.769  13.111  21.322  0.00  0.00    +0.000 OA
ATOM     11  C   UNL     1       1.830  13.023  20.528  0.00  0.00    +0.000 C 
ATOM     12  N   UNL     1       0.828  12.117  20.771  0.00  0.00    +0.000 N 
ATOM     13  H   UNL     1       1.000  11.496  21.554  0.00  0.00    +0.000 HD
BRANCH  11  14
ATOM     14  C   UNL     1       1.693  13.983  19.357  0.00  0.00    +0.000 C 
BRANCH  14  15
ATOM     15  C   UNL     1       2.903  14.826  19.034  0.00  0.00    +0.000 A 
ATOM     16  C   UNL     1       3.034  16.081  19.651  0.00  0.00    +0.000 A 
ATOM     17  C   UNL     1       4.159  16.876  19.429  0.00  0.00    +0.000 A 
ATOM     18  C   UNL     1       5.177  16.421  18.595  0.00  0.00    +0.000 A 
ATOM     19  C   UNL     1       5.072  15.167  17.995  0.00  0.00    +0.000 A 
ATOM     20  C   UNL     1       3.947  14.370  18.219  0.00  0.00    +0.000 A 
ENDBRANCH  14  15
ENDBRANCH  11  14
ENDBRANCH   1  12
BRANCH   5  21
ATOM     21  C   UNL     1       1.232  10.041  18.517  0.00  0.00    +0.000 C 
ATOM     22  O   UNL     1       2.203  10.600  18.020  0.00  0.00    +0.000 OA
ATOM     23  N   UNL     1       1.187   8.696  18.855  0.00  0.00    +0.000 N 
ATOM     24  H   UNL     1       0.274   8.305  19.040  0.00  0.00    +0.000 HD
BRANCH  23  25
ATOM     25  C   UNL     1       2.253   7.771  18.707  0.00  0.00    +0.000 A 
ATOM     26  C   UNL     1       3.133   7.779  17.616  0.00  0.00    +0.000 A 
ATOM     27  C   UNL     1       4.125   6.801  17.478  0.00  0.00    +0.000 A 
ATOM     28  C   UNL     1       4.257   5.810  18.441  0.00  0.00    +0.000 A 
ATOM     29 CL   UNL     1       5.458   4.592  18.256  0.00  0.00    +0.000 Cl
ATOM     30  C   UNL     1       3.418   5.803  19.552  0.00  0.00    +0.000 A 
ATOM     31  C   UNL     1       2.425   6.785  19.688  0.00  0.00    +0.000 A 
ENDBRANCH  23  25
ENDBRANCH   5  21
TORSDOF 5
ENDMDL
MODEL 9
REMARK VINA RESULT:      -7.9      4.739      9.250
REMARK  Name = 
REMARK  5 active torsions:
REMARK  status: ('A' for Active; 'I' for Inactive)
REMARK    1  A    between atoms: C_2  and  C_3
REMARK    2  A    between atoms: C_3  and  C_4
REMARK    3  A    between atoms: N_10  and  C_11
REMARK    4  A    between atoms: C_15  and  C_16
REMARK    5  A    between atoms: N_18  and  C_19
REMARK                            x       y       z     vdW  Elec       q    Type
REMARK                         _______ _______ _______ _____ _____    ______ ____
ROOT
ATOM      1  C   UNL     1      -0.199  12.005  20.023  0.00  0.00    +0.000 A 
ATOM      2  S   UNL     1      -1.589  12.956  19.896  0.00  0.00    +0.000 S 
ATOM      3  C   UNL     1      -2.328  11.817  18.885  0.00  0.00    +0.000 A 
ATOM      4  C   UNL     1      -1.553  10.685  18.672  0.00  0.00    +0.000 A 
ATOM      5  C   UNL     1      -0.291  10.766  19.398  0.00  0.00    +0.000 A 
ATOM      6  C   UNL     1      -2.119   9.523  17.895  0.00  0.00    +0.000 C 
ATOM      7  C   UNL     1      -3.325   9.942  17.032  0.00  0.00    +0.000 C 
ATOM      8  C   UNL     1      -4.333  10.780  17.825  0.00  0.00    +0.000 C 
ATOM      9  C   UNL     1      -3.700  12.073  18.343  0.00  0.00    +0.000 C 
ENDROOT
BRANCH   1  12
ATOM     10  O   UNL     1       2.889  13.158  21.239  0.00  0.00    +0.000 OA
ATOM     11  C   UNL     1       2.007  12.943  20.406  0.00  0.00    +0.000 C 
ATOM     12  N   UNL     1       0.756  12.572  20.831  0.00  0.00    +0.000 N 
ATOM     13  H   UNL     1       0.684  12.393  21.827  0.00  0.00    +0.000 HD
BRANCH  11  14
ATOM     14  C   UNL     1       2.239  13.204  18.926  0.00  0.00    +0.000 C 
BRANCH  14  15
ATOM     15  C   UNL     1       2.169  14.645  18.478  0.00  0.00    +0.000 A 
ATOM     16  C   UNL     1       1.062  15.417  18.866  0.00  0.00    +0.000 A 
ATOM     17  C   UNL     1       0.975  16.768  18.524  0.00  0.00    +0.000 A 
ATOM     18  C   UNL     1       2.002  17.368  17.801  0.00  0.00    +0.000 A 
ATOM     19  C   UNL     1       3.118  16.620  17.430  0.00  0.00    +0.000 A 
ATOM     20  C   UNL     1       3.207  15.268  17.774  0.00  0.00    +0.000 A 
ENDBRANCH  14  15
ENDBRANCH  11  14
ENDBRANCH   1  12
BRANCH   5  21
ATOM     21  C   UNL     1       0.721   9.721  19.637  0.00  0.00    +0.000 C 
ATOM     22  O   UNL     1       1.113   9.527  20.782  0.00  0.00    +0.000 OA
ATOM     23  N   UNL     1       1.181   9.037  18.520  0.00  0.00    +0.000 N 
ATOM     24  H   UNL     1       0.956   9.435  17.620  0.00  0.00    +0.000 HD
BRANCH  23  25
ATOM     25  C   UNL     1       2.149   7.998  18.530  0.00  0.00    +0.000 A 
ATOM     26  C   UNL     1       2.208   7.009  19.520  0.00  0.00    +0.000 A 
ATOM     27  C   UNL     1       3.226   6.049  19.525  0.00  0.00    +0.000 A 
ATOM     28  C   UNL     1       4.191   6.059  18.527  0.00  0.00    +0.000 A 
ATOM     29 CL   UNL     1       5.457   4.895  18.550  0.00  0.00    +0.000 Cl
ATOM     30  C   UNL     1       4.131   7.010  17.512  0.00  0.00    +0.000 A 
ATOM     31  C   UNL     1       3.110   7.971  17.510  0.00  0.00    +0.000 A 
ENDBRANCH  23  25
ENDBRANCH   5  21
TORSDOF 5
ENDMDL
