MODEL 1
REMARK VINA RESULT:      -7.2      0.000      0.000
REMARK  Name = 
REMARK  8 active torsions:
REMARK  status: ('A' for Active; 'I' for Inactive)
REMARK    1  A    between atoms: C_1  and  O_2
REMARK    2  A    between atoms: O_2  and  C_3
REMARK    3  A    between atoms: C_8  and  C_9
REMARK    4  A    between atoms: N_11  and  C_12
REMARK    5  A    between atoms: C_12  and  C_13
REMARK    6  A    between atoms: N_17  and  C_18
REMARK    7  A    between atoms: N_21  and  C_22
REMARK    8  A    between atoms: C_22  and  C_23
REMARK                            x       y       z     vdW  Elec       q    Type
REMARK                         _______ _______ _______ _____ _____    ______ ____
ROOT
ATOM      1  C   UNL     1       0.199   9.812  19.096  0.00  0.00    +0.000 C 
ATOM      2  C   UNL     1      -1.141   9.897  18.358  0.00  0.00    +0.000 C 
ATOM      3  C   UNL     1      -1.290  11.250  17.678  0.00  0.00    +0.000 C 
ATOM      4  C   UNL     1      -1.041  12.412  18.652  0.00  0.00    +0.000 C 
ATOM      5  N   UNL     1       0.221  12.304  19.414  0.00  0.00    +0.000 NA
ATOM      6  C   UNL     1       0.287  10.984  20.086  0.00  0.00    +0.000 C 
ENDROOT
BRANCH   5   7
ATOM      7  C   UNL     1       0.423  13.399  20.414  0.00  0.00    +0.000 C 
ATOM      8  C   UNL     1       0.151  14.836  19.940  0.00  0.00    +0.000 C 
ATOM      9  C   UNL     1       1.131  15.279  18.857  0.00  0.00    +0.000 C 
ATOM     10  N   UNL     1       2.547  15.114  19.193  0.00  0.00    +0.000 NA
ATOM     11  C   UNL     1       2.872  13.854  19.875  0.00  0.00    +0.000 C 
ATOM     12  C   UNL     1       1.870  13.427  20.950  0.00  0.00    +0.000 C 
BRANCH  10  13
ATOM     13  C   UNL     1       3.431  15.362  18.027  0.00  0.00    +0.000 C 
BRANCH  13  14
ATOM     14  C   UNL     1       4.911  15.541  18.349  0.00  0.00    +0.000 A 
ATOM     15  C   UNL     1       5.883  14.733  17.741  0.00  0.00    +0.000 A 
ATOM     16  C   UNL     1       7.243  15.018  17.891  0.00  0.00    +0.000 A 
ATOM     17  C   UNL     1       7.653  16.109  18.660  0.00  0.00    +0.000 A 
ATOM     18 CL   UNL     1       9.346  16.446  18.744  0.00  0.00    +0.000 Cl
ATOM     19  C   UNL     1       6.699  16.893  19.314  0.00  0.00    +0.000 A 
ATOM     20 CL   UNL     1       7.123  18.278  20.255  0.00  0.00    +0.000 Cl
ATOM     21  C   UNL     1       5.339  16.592  19.178  0.00  0.00    +0.000 A 
ENDBRANCH  13  14
ENDBRANCH  10  13
ENDBRANCH   5   7
BRANCH   1  22
ATOM     22  C   UNL     1       1.416   9.827  18.150  0.00  0.00    +0.000 C 
BRANCH  22  25
ATOM     23  C   UNL     1       2.286   7.574  18.639  0.00  0.00    +0.000 C 
ATOM     24  O   UNL     1       2.361   7.812  19.842  0.00  0.00    +0.000 OA
ATOM     25  N   UNL     1       1.825   8.501  17.738  0.00  0.00    +0.000 N 
ATOM     26  H   UNL     1       1.712   8.222  16.771  0.00  0.00    +0.000 HD
BRANCH  23  32
ATOM     27  C   UNL     1       3.923   5.977  17.420  0.00  0.00    +0.000 A 
ATOM     28  C   UNL     1       4.191   4.667  16.997  0.00  0.00    +0.000 A 
ATOM     29  C   UNL     1       3.296   3.630  17.268  0.00  0.00    +0.000 A 
ATOM     30  C   UNL     1       2.119   3.875  17.957  0.00  0.00    +0.000 A 
ATOM     31  C   UNL     1       1.833   5.173  18.373  0.00  0.00    +0.000 A 
ATOM     32  C   UNL     1       2.719   6.238  18.111  0.00  0.00    +0.000 A 
BRANCH  27  34
ATOM     33  C   UNL     1       6.166   6.777  17.254  0.00  0.00    +0.000 C 
ATOM     34  O   UNL     1       4.766   7.029  17.151  0.00  0.00    +0.000 OA
ENDBRANCH  27  34
ENDBRANCH  23  32
ENDBRANCH  22  25
ENDBRANCH   1  22
TORSDOF 7
ENDMDL
MODEL 2
REMARK VINA RESULT:      -7.0      4.059      9.408
REMARK  Name = 
REMARK  8 active torsions:
REMARK  status: ('A' for Active; 'I' for Inactive)
REMARK    1  A    between atoms: C_1  and  O_2
REMARK    2  A    between atoms: O_2  and  C_3
REMARK    3  A    between atoms: C_8  and  C_9
REMARK    4  A    between atoms: N_11  and  C_12
REMARK    5  A    between atoms: C_12  and  C_13
REMARK    6  A    between atoms: N_17  and  C_18
REMARK    7  A    between atoms: N_21  and  C_22
REMARK    8  A    between atoms: C_22  and  C_23
REMARK                            x       y       z     vdW  Elec       q    Type
REMARK                         _______ _______ _______ _____ _____    ______ ____
ROOT
ATOM      1  C   UNL     1       2.207   7.080  20.563  0.00  0.00    +0.000 C 
ATOM      2  C   UNL     1       2.789   7.224  19.154  0.00  0.00    +0.000 C 
ATOM      3  C   UNL     1       1.871   6.574  18.129  0.00  0.00    +0.000 C 
ATOM      4  C   UNL     1       1.517   5.128  18.512  0.00  0.00    +0.000 C 
ATOM      5  N   UNL     1       1.014   4.973  19.893  0.00  0.00    +0.000 NA
ATOM      6  C   UNL     1       1.970   5.588  20.845  0.00  0.00    +0.000 C 
ENDROOT
BRANCH   5   7
ATOM      7  C   UNL     1       0.741   3.555  20.285  0.00  0.00    +0.000 C 
ATOM      8  C   UNL     1       1.759   2.880  21.218  0.00  0.00    +0.000 C 
ATOM      9  C   UNL     1       3.125   2.716  20.557  0.00  0.00    +0.000 C 
ATOM     10  N   UNL     1       3.110   2.048  19.253  0.00  0.00    +0.000 NA
ATOM     11  C   UNL     1       2.014   2.461  18.366  0.00  0.00    +0.000 C 
ATOM     12  C   UNL     1       0.657   2.626  19.055  0.00  0.00    +0.000 C 
BRANCH  10  13
ATOM     13  C   UNL     1       4.429   2.112  18.577  0.00  0.00    +0.000 C 
BRANCH  13  14
ATOM     14  C   UNL     1       4.939   3.514  18.258  0.00  0.00    +0.000 A 
ATOM     15  C   UNL     1       5.549   4.300  19.246  0.00  0.00    +0.000 A 
ATOM     16  C   UNL     1       6.180   5.502  18.913  0.00  0.00    +0.000 A 
ATOM     17  C   UNL     1       6.202   5.941  17.587  0.00  0.00    +0.000 A 
ATOM     18 CL   UNL     1       7.062   7.398  17.235  0.00  0.00    +0.000 Cl
ATOM     19  C   UNL     1       5.554   5.195  16.599  0.00  0.00    +0.000 A 
ATOM     20 CL   UNL     1       5.564   5.653  14.934  0.00  0.00    +0.000 Cl
ATOM     21  C   UNL     1       4.905   4.003  16.941  0.00  0.00    +0.000 A 
ENDBRANCH  13  14
ENDBRANCH  10  13
ENDBRANCH   5   7
BRANCH   1  22
ATOM     22  C   UNL     1       0.898   7.870  20.765  0.00  0.00    +0.000 C 
BRANCH  22  25
ATOM     23  C   UNL     1       0.791  10.331  20.803  0.00  0.00    +0.000 C 
ATOM     24  O   UNL     1       0.688  10.355  22.027  0.00  0.00    +0.000 OA
ATOM     25  N   UNL     1       0.909   9.157  20.102  0.00  0.00    +0.000 N 
ATOM     26  H   UNL     1       1.070   9.202  19.103  0.00  0.00    +0.000 HD
BRANCH  23  32
ATOM     27  C   UNL     1      -0.201  11.993  19.081  0.00  0.00    +0.000 A 
ATOM     28  C   UNL     1      -0.078  13.235  18.440  0.00  0.00    +0.000 A 
ATOM     29  C   UNL     1       0.981  14.094  18.739  0.00  0.00    +0.000 A 
ATOM     30  C   UNL     1       1.938  13.734  19.674  0.00  0.00    +0.000 A 
ATOM     31  C   UNL     1       1.837  12.500  20.310  0.00  0.00    +0.000 A 
ATOM     32  C   UNL     1       0.779  11.613  20.025  0.00  0.00    +0.000 A 
BRANCH  27  34
ATOM     33  C   UNL     1      -1.991  11.373  17.628  0.00  0.00    +0.000 C 
ATOM     34  O   UNL     1      -1.214  11.110  18.795  0.00  0.00    +0.000 OA
ENDBRANCH  27  34
ENDBRANCH  23  32
ENDBRANCH  22  25
ENDBRANCH   1  22
TORSDOF 7
ENDMDL
MODEL 3
REMARK VINA RESULT:      -7.0      1.599      2.094
REMARK  Name = 
REMARK  8 active torsions:
REMARK  status: ('A' for Active; 'I' for Inactive)
REMARK    1  A    between atoms: C_1  and  O_2
REMARK    2  A    between atoms: O_2  and  C_3
REMARK    3  A    between atoms: C_8  and  C_9
REMARK    4  A    between atoms: N_11  and  C_12
REMARK    5  A    between atoms: C_12  and  C_13
REMARK    6  A    between atoms: N_17  and  C_18
REMARK    7  A    between atoms: N_21  and  C_22
REMARK    8  A    between atoms: C_22  and  C_23
REMARK                            x       y       z     vdW  Elec       q    Type
REMARK                         _______ _______ _______ _____ _____    ______ ____
ROOT
ATOM      1  C   UNL     1       0.136   9.828  21.023  0.00  0.00    +0.000 C 
ATOM      2  C   UNL     1      -0.698   9.522  19.777  0.00  0.00    +0.000 C 
ATOM      3  C   UNL     1      -0.216  10.352  18.595  0.00  0.00    +0.000 C 
ATOM      4  C   UNL     1      -0.137  11.848  18.940  0.00  0.00    +0.000 C 
ATOM      5  N   UNL     1       0.614  12.145  20.178  0.00  0.00    +0.000 NA
ATOM      6  C   UNL     1       0.071  11.339  21.298  0.00  0.00    +0.000 C 
ENDROOT
BRANCH   5   7
ATOM      7  C   UNL     1       0.625  13.595  20.548  0.00  0.00    +0.000 C 
ATOM      8  C   UNL     1       0.503  14.610  19.400  0.00  0.00    +0.000 C 
ATOM      9  C   UNL     1       1.706  14.565  18.462  0.00  0.00    +0.000 C 
ATOM     10  N   UNL     1       3.011  14.692  19.117  0.00  0.00    +0.000 NA
ATOM     11  C   UNL     1       3.145  13.934  20.368  0.00  0.00    +0.000 C 
ATOM     12  C   UNL     1       1.921  13.989  21.287  0.00  0.00    +0.000 C 
BRANCH  10  13
ATOM     13  C   UNL     1       4.133  14.428  18.182  0.00  0.00    +0.000 C 
BRANCH  13  14
ATOM     14  C   UNL     1       5.335  15.357  18.318  0.00  0.00    +0.000 A 
ATOM     15  C   UNL     1       5.201  16.628  18.897  0.00  0.00    +0.000 A 
ATOM     16  C   UNL     1       6.329  17.400  19.190  0.00  0.00    +0.000 A 
ATOM     17  C   UNL     1       7.607  16.918  18.899  0.00  0.00    +0.000 A 
ATOM     18 CL   UNL     1       8.959  17.893  19.355  0.00  0.00    +0.000 Cl
ATOM     19  C   UNL     1       7.754  15.676  18.276  0.00  0.00    +0.000 A 
ATOM     20 CL   UNL     1       9.301  14.997  17.913  0.00  0.00    +0.000 Cl
ATOM     21  C   UNL     1       6.622  14.915  17.964  0.00  0.00    +0.000 A 
ENDBRANCH  13  14
ENDBRANCH  10  13
ENDBRANCH   5   7
BRANCH   1  22
ATOM     22  C   UNL     1       1.605   9.377  20.899  0.00  0.00    +0.000 C 
BRANCH  22  25
ATOM     23  C   UNL     1       2.191   7.223  19.855  0.00  0.00    +0.000 C 
ATOM     24  O   UNL     1       2.486   7.764  18.793  0.00  0.00    +0.000 OA
ATOM     25  N   UNL     1       1.759   7.938  20.944  0.00  0.00    +0.000 N 
ATOM     26  H   UNL     1       1.605   7.448  21.817  0.00  0.00    +0.000 HD
BRANCH  23  32
ATOM     27  C   UNL     1       3.436   4.955  19.733  0.00  0.00    +0.000 A 
ATOM     28  C   UNL     1       3.369   3.565  19.914  0.00  0.00    +0.000 A 
ATOM     29  C   UNL     1       2.193   2.957  20.358  0.00  0.00    +0.000 A 
ATOM     30  C   UNL     1       1.064   3.715  20.624  0.00  0.00    +0.000 A 
ATOM     31  C   UNL     1       1.111   5.094  20.437  0.00  0.00    +0.000 A 
ATOM     32  C   UNL     1       2.285   5.732  19.988  0.00  0.00    +0.000 A 
BRANCH  27  34
ATOM     33  C   UNL     1       5.701   4.766  19.001  0.00  0.00    +0.000 C 
ATOM     34  O   UNL     1       4.566   5.587  19.273  0.00  0.00    +0.000 OA
ENDBRANCH  27  34
ENDBRANCH  23  32
ENDBRANCH  22  25
ENDBRANCH   1  22
TORSDOF 7
ENDMDL
MODEL 4
REMARK VINA RESULT:      -6.9      0.652      1.276
REMARK  Name = 
REMARK  8 active torsions:
REMARK  status: ('A' for Active; 'I' for Inactive)
REMARK    1  A    between atoms: C_1  and  O_2
REMARK    2  A    between atoms: O_2  and  C_3
REMARK    3  A    between atoms: C_8  and  C_9
REMARK    4  A    between atoms: N_11  and  C_12
REMARK    5  A    between atoms: C_12  and  C_13
REMARK    6  A    between atoms: N_17  and  C_18
REMARK    7  A    between atoms: N_21  and  C_22
REMARK    8  A    between atoms: C_22  and  C_23
REMARK                            x       y       z     vdW  Elec       q    Type
REMARK                         _______ _______ _______ _____ _____    ______ ____
ROOT
ATOM      1  C   UNL     1       0.474   9.837  19.367  0.00  0.00    +0.000 C 
ATOM      2  C   UNL     1      -0.898   9.797  18.688  0.00  0.00    +0.000 C 
ATOM      3  C   UNL     1      -1.126  11.061  17.872  0.00  0.00    +0.000 C 
ATOM      4  C   UNL     1      -0.878  12.331  18.703  0.00  0.00    +0.000 C 
ATOM      5  N   UNL     1       0.418  12.348  19.412  0.00  0.00    +0.000 NA
ATOM      6  C   UNL     1       0.562  11.112  20.219  0.00  0.00    +0.000 C 
ENDROOT
BRANCH   5   7
ATOM      7  C   UNL     1       0.622  13.552  20.277  0.00  0.00    +0.000 C 
ATOM      8  C   UNL     1       0.511  14.926  19.598  0.00  0.00    +0.000 C 
ATOM      9  C   UNL     1       1.612  15.149  18.565  0.00  0.00    +0.000 C 
ATOM     10  N   UNL     1       2.976  14.933  19.054  0.00  0.00    +0.000 NA
ATOM     11  C   UNL     1       3.138  13.757  19.920  0.00  0.00    +0.000 C 
ATOM     12  C   UNL     1       2.015  13.552  20.941  0.00  0.00    +0.000 C 
BRANCH  10  13
ATOM     13  C   UNL     1       3.975  14.958  17.956  0.00  0.00    +0.000 C 
BRANCH  13  14
ATOM     14  C   UNL     1       5.295  15.648  18.282  0.00  0.00    +0.000 A 
ATOM     15  C   UNL     1       5.324  16.824  19.047  0.00  0.00    +0.000 A 
ATOM     16  C   UNL     1       6.536  17.350  19.500  0.00  0.00    +0.000 A 
ATOM     17  C   UNL     1       7.740  16.715  19.188  0.00  0.00    +0.000 A 
ATOM     18 CL   UNL     1       9.195  17.379  19.843  0.00  0.00    +0.000 Cl
ATOM     19  C   UNL     1       7.732  15.572  18.385  0.00  0.00    +0.000 A 
ATOM     20 CL   UNL     1       9.174  14.710  17.981  0.00  0.00    +0.000 Cl
ATOM     21  C   UNL     1       6.518  15.060  17.914  0.00  0.00    +0.000 A 
ENDBRANCH  13  14
ENDBRANCH  10  13
ENDBRANCH   5   7
BRANCH   1  22
ATOM     22  C   UNL     1       1.649   9.786  18.369  0.00  0.00    +0.000 C 
BRANCH  22  25
ATOM     23  C   UNL     1       2.303   7.447  18.787  0.00  0.00    +0.000 C 
ATOM     24  O   UNL     1       2.378   7.634  19.999  0.00  0.00    +0.000 OA
ATOM     25  N   UNL     1       1.944   8.444  17.914  0.00  0.00    +0.000 N 
ATOM     26  H   UNL     1       1.823   8.211  16.936  0.00  0.00    +0.000 HD
BRANCH  23  32
ATOM     27  C   UNL     1       3.810   5.753  17.533  0.00  0.00    +0.000 A 
ATOM     28  C   UNL     1       3.967   4.440  17.066  0.00  0.00    +0.000 A 
ATOM     29  C   UNL     1       2.977   3.479  17.285  0.00  0.00    +0.000 A 
ATOM     30  C   UNL     1       1.816   3.806  17.966  0.00  0.00    +0.000 A 
ATOM     31  C   UNL     1       1.640   5.108  18.426  0.00  0.00    +0.000 A 
ATOM     32  C   UNL     1       2.623   6.098  18.216  0.00  0.00    +0.000 A 
BRANCH  27  34
ATOM     33  C   UNL     1       5.502   6.650  16.106  0.00  0.00    +0.000 C 
ATOM     34  O   UNL     1       4.749   6.733  17.315  0.00  0.00    +0.000 OA
ENDBRANCH  27  34
ENDBRANCH  23  32
ENDBRANCH  22  25
ENDBRANCH   1  22
TORSDOF 7
ENDMDL
MODEL 5
REMARK VINA RESULT:      -6.9      1.193      1.683
REMARK  Name = 
REMARK  8 active torsions:
REMARK  status: ('A' for Active; 'I' for Inactive)
REMARK    1  A    between atoms: C_1  and  O_2
REMARK    2  A    between atoms: O_2  and  C_3
REMARK    3  A    between atoms: C_8  and  C_9
REMARK    4  A    between atoms: N_11  and  C_12
REMARK    5  A    between atoms: C_12  and  C_13
REMARK    6  A    between atoms: N_17  and  C_18
REMARK    7  A    between atoms: N_21  and  C_22
REMARK    8  A    between atoms: C_22  and  C_23
REMARK                            x       y       z     vdW  Elec       q    Type
REMARK                         _______ _______ _______ _____ _____    ______ ____
ROOT
ATOM      1  C   UNL     1      -0.353  10.262  19.604  0.00  0.00    +0.000 C 
ATOM      2  C   UNL     1      -1.593  10.463  18.727  0.00  0.00    +0.000 C 
ATOM      3  C   UNL     1      -1.456  11.729  17.893  0.00  0.00    +0.000 C 
ATOM      4  C   UNL     1      -1.099  12.949  18.758  0.00  0.00    +0.000 C 
ATOM      5  N   UNL     1       0.058  12.739  19.653  0.00  0.00    +0.000 NA
ATOM      6  C   UNL     1      -0.153  11.518  20.466  0.00  0.00    +0.000 C 
ENDROOT
BRANCH   5   7
ATOM      7  C   UNL     1       0.356  13.904  20.544  0.00  0.00    +0.000 C 
ATOM      8  C   UNL     1       0.122  15.307  19.962  0.00  0.00    +0.000 C 
ATOM      9  C   UNL     1       1.065  15.612  18.801  0.00  0.00    +0.000 C 
ATOM     10  N   UNL     1       2.488  15.409  19.085  0.00  0.00    +0.000 NA
ATOM     11  C   UNL     1       2.792  14.197  19.857  0.00  0.00    +0.000 C 
ATOM     12  C   UNL     1       1.827  13.909  21.010  0.00  0.00    +0.000 C 
BRANCH  10  13
ATOM     13  C   UNL     1       3.323  15.518  17.863  0.00  0.00    +0.000 C 
BRANCH  13  14
ATOM     14  C   UNL     1       4.822  15.668  18.101  0.00  0.00    +0.000 A 
ATOM     15  C   UNL     1       5.335  16.780  18.786  0.00  0.00    +0.000 A 
ATOM     16  C   UNL     1       6.679  16.826  19.166  0.00  0.00    +0.000 A 
ATOM     17  C   UNL     1       7.534  15.766  18.857  0.00  0.00    +0.000 A 
ATOM     18 CL   UNL     1       9.165  15.857  19.420  0.00  0.00    +0.000 Cl
ATOM     19  C   UNL     1       7.051  14.675  18.131  0.00  0.00    +0.000 A 
ATOM     20 CL   UNL     1       8.037  13.311  17.739  0.00  0.00    +0.000 Cl
ATOM     21  C   UNL     1       5.710  14.642  17.733  0.00  0.00    +0.000 A 
ENDBRANCH  13  14
ENDBRANCH  10  13
ENDBRANCH   5   7
BRANCH   1  22
ATOM     22  C   UNL     1       0.925   9.969  18.792  0.00  0.00    +0.000 C 
BRANCH  22  25
ATOM     23  C   UNL     1       2.363   8.046  18.238  0.00  0.00    +0.000 C 
ATOM     24  O   UNL     1       2.692   8.542  17.164  0.00  0.00    +0.000 OA
ATOM     25  N   UNL     1       1.508   8.681  19.104  0.00  0.00    +0.000 N 
ATOM     26  H   UNL     1       1.333   8.261  20.009  0.00  0.00    +0.000 HD
BRANCH  23  32
ATOM     27  C   UNL     1       3.911   5.987  17.970  0.00  0.00    +0.000 A 
ATOM     28  C   UNL     1       4.302   4.736  18.472  0.00  0.00    +0.000 A 
ATOM     29  C   UNL     1       3.706   4.206  19.618  0.00  0.00    +0.000 A 
ATOM     30  C   UNL     1       2.711   4.905  20.283  0.00  0.00    +0.000 A 
ATOM     31  C   UNL     1       2.304   6.142  19.791  0.00  0.00    +0.000 A 
ATOM     32  C   UNL     1       2.888   6.699  18.635  0.00  0.00    +0.000 A 
BRANCH  27  34
ATOM     33  C   UNL     1       5.430   5.747  16.143  0.00  0.00    +0.000 C 
ATOM     34  O   UNL     1       4.456   6.530  16.831  0.00  0.00    +0.000 OA
ENDBRANCH  27  34
ENDBRANCH  23  32
ENDBRANCH  22  25
ENDBRANCH   1  22
TORSDOF 7
ENDMDL
MODEL 6
REMARK VINA RESULT:      -6.8      2.998      7.416
REMARK  Name = 
REMARK  8 active torsions:
REMARK  status: ('A' for Active; 'I' for Inactive)
REMARK    1  A    between atoms: C_1  and  O_2
REMARK    2  A    between atoms: O_2  and  C_3
REMARK    3  A    between atoms: C_8  and  C_9
REMARK    4  A    between atoms: N_11  and  C_12
REMARK    5  A    between atoms: C_12  and  C_13
REMARK    6  A    between atoms: N_17  and  C_18
REMARK    7  A    between atoms: N_21  and  C_22
REMARK    8  A    between atoms: C_22  and  C_23
REMARK                            x       y       z     vdW  Elec       q    Type
REMARK                         _______ _______ _______ _____ _____    ______ ____
ROOT
ATOM      1  C   UNL     1       2.382   6.111  18.295  0.00  0.00    +0.000 C 
ATOM      2  C   UNL     1       2.112   4.891  19.180  0.00  0.00    +0.000 C 
ATOM      3  C   UNL     1       3.365   4.508  19.955  0.00  0.00    +0.000 C 
ATOM      4  C   UNL     1       4.585   4.352  19.033  0.00  0.00    +0.000 C 
ATOM      5  N   UNL     1       4.813   5.500  18.131  0.00  0.00    +0.000 NA
ATOM      6  C   UNL     1       3.572   5.797  17.375  0.00  0.00    +0.000 C 
ENDROOT
BRANCH   5   7
ATOM      7  C   UNL     1       5.957   5.312  17.185  0.00  0.00    +0.000 C 
ATOM      8  C   UNL     1       7.273   4.782  17.777  0.00  0.00    +0.000 C 
ATOM      9  C   UNL     1       7.899   5.767  18.760  0.00  0.00    +0.000 C 
ATOM     10  N   UNL     1       8.083   7.127  18.246  0.00  0.00    +0.000 NA
ATOM     11  C   UNL     1       6.958   7.640  17.453  0.00  0.00    +0.000 C 
ATOM     12  C   UNL     1       6.343   6.630  16.482  0.00  0.00    +0.000 C 
BRANCH  10  13
ATOM     13  C   UNL     1       8.495   8.076  19.311  0.00  0.00    +0.000 C 
BRANCH  13  14
ATOM     14  C   UNL     1       8.863   9.478  18.838  0.00  0.00    +0.000 A 
ATOM     15  C   UNL     1       8.200  10.069  17.751  0.00  0.00    +0.000 A 
ATOM     16  C   UNL     1       8.406  11.415  17.437  0.00  0.00    +0.000 A 
ATOM     17  C   UNL     1       9.285  12.189  18.197  0.00  0.00    +0.000 A 
ATOM     18 CL   UNL     1       9.436  13.863  17.798  0.00  0.00    +0.000 Cl
ATOM     19  C   UNL     1       9.991  11.602  19.251  0.00  0.00    +0.000 A 
ATOM     20 CL   UNL     1      11.071  12.499  20.258  0.00  0.00    +0.000 Cl
ATOM     21  C   UNL     1       9.799  10.249  19.549  0.00  0.00    +0.000 A 
ENDBRANCH  13  14
ENDBRANCH  10  13
ENDBRANCH   5   7
BRANCH   1  22
ATOM     22  C   UNL     1       2.661   7.396  19.100  0.00  0.00    +0.000 C 
BRANCH  22  25
ATOM     23  C   UNL     1       1.405   9.368  18.321  0.00  0.00    +0.000 C 
ATOM     24  O   UNL     1       2.253   9.632  17.472  0.00  0.00    +0.000 OA
ATOM     25  N   UNL     1       1.520   8.285  19.156  0.00  0.00    +0.000 N 
ATOM     26  H   UNL     1       0.753   8.072  19.783  0.00  0.00    +0.000 HD
BRANCH  23  32
ATOM     27  C   UNL     1       0.136  11.416  19.272  0.00  0.00    +0.000 A 
ATOM     28  C   UNL     1      -1.064  12.144  19.308  0.00  0.00    +0.000 A 
ATOM     29  C   UNL     1      -2.171  11.737  18.560  0.00  0.00    +0.000 A 
ATOM     30  C   UNL     1      -2.108  10.602  17.768  0.00  0.00    +0.000 A 
ATOM     31  C   UNL     1      -0.929   9.863  17.731  0.00  0.00    +0.000 A 
ATOM     32  C   UNL     1       0.202  10.250  18.478  0.00  0.00    +0.000 A 
BRANCH  27  34
ATOM     33  C   UNL     1       1.545  13.161  20.093  0.00  0.00    +0.000 C 
ATOM     34  O   UNL     1       1.237  11.770  20.013  0.00  0.00    +0.000 OA
ENDBRANCH  27  34
ENDBRANCH  23  32
ENDBRANCH  22  25
ENDBRANCH   1  22
TORSDOF 7
ENDMDL
MODEL 7
REMARK VINA RESULT:      -6.8      3.314      7.391
REMARK  Name = 
REMARK  8 active torsions:
REMARK  status: ('A' for Active; 'I' for Inactive)
REMARK    1  A    between atoms: C_1  and  O_2
REMARK    2  A    between atoms: O_2  and  C_3
REMARK    3  A    between atoms: C_8  and  C_9
REMARK    4  A    between atoms: N_11  and  C_12
REMARK    5  A    between atoms: C_12  and  C_13
REMARK    6  A    between atoms: N_17  and  C_18
REMARK    7  A    between atoms: N_21  and  C_22
REMARK    8  A    between atoms: C_22  and  C_23
REMARK                            x       y       z     vdW  Elec       q    Type
REMARK                         _______ _______ _______ _____ _____    ______ ____
ROOT
ATOM      1  C   UNL     1       3.094   6.055  17.916  0.00  0.00    +0.000 C 
ATOM      2  C   UNL     1       2.485   4.771  18.487  0.00  0.00    +0.000 C 
ATOM      3  C   UNL     1       3.379   4.197  19.577  0.00  0.00    +0.000 C 
ATOM      4  C   UNL     1       4.833   4.040  19.102  0.00  0.00    +0.000 C 
ATOM      5  N   UNL     1       5.405   5.258  18.492  0.00  0.00    +0.000 NA
ATOM      6  C   UNL     1       4.512   5.744  17.413  0.00  0.00    +0.000 C 
ENDROOT
BRANCH   5   7
ATOM      7  C   UNL     1       6.795   5.078  17.966  0.00  0.00    +0.000 C 
ATOM      8  C   UNL     1       7.938   5.699  18.785  0.00  0.00    +0.000 C 
ATOM      9  C   UNL     1       7.860   7.223  18.819  0.00  0.00    +0.000 C 
ATOM     10  N   UNL     1       7.764   7.870  17.508  0.00  0.00    +0.000 NA
ATOM     11  C   UNL     1       6.862   7.203  16.560  0.00  0.00    +0.000 C 
ATOM     12  C   UNL     1       6.954   5.675  16.552  0.00  0.00    +0.000 C 
BRANCH  10  13
ATOM     13  C   UNL     1       7.480   9.323  17.622  0.00  0.00    +0.000 C 
BRANCH  13  14
ATOM     14  C   UNL     1       8.594  10.166  18.233  0.00  0.00    +0.000 A 
ATOM     15  C   UNL     1       9.139   9.841  19.484  0.00  0.00    +0.000 A 
ATOM     16  C   UNL     1      10.279  10.497  19.957  0.00  0.00    +0.000 A 
ATOM     17  C   UNL     1      10.885  11.495  19.191  0.00  0.00    +0.000 A 
ATOM     18 CL   UNL     1      12.333  12.213  19.804  0.00  0.00    +0.000 Cl
ATOM     19  C   UNL     1      10.325  11.865  17.966  0.00  0.00    +0.000 A 
ATOM     20 CL   UNL     1      11.033  13.067  16.946  0.00  0.00    +0.000 Cl
ATOM     21  C   UNL     1       9.171  11.222  17.506  0.00  0.00    +0.000 A 
ENDBRANCH  13  14
ENDBRANCH  10  13
ENDBRANCH   5   7
BRANCH   1  22
ATOM     22  C   UNL     1       3.137   7.213  18.933  0.00  0.00    +0.000 C 
BRANCH  22  25
ATOM     23  C   UNL     1       1.804   9.141  18.170  0.00  0.00    +0.000 C 
ATOM     24  O   UNL     1       2.705   9.533  17.434  0.00  0.00    +0.000 OA
ATOM     25  N   UNL     1       1.926   8.007  18.935  0.00  0.00    +0.000 N 
ATOM     26  H   UNL     1       1.122   7.689  19.463  0.00  0.00    +0.000 HD
BRANCH  23  32
ATOM     27  C   UNL     1       0.337  11.112  18.992  0.00  0.00    +0.000 A 
ATOM     28  C   UNL     1      -0.924  11.726  18.974  0.00  0.00    +0.000 A 
ATOM     29  C   UNL     1      -1.976  11.180  18.237  0.00  0.00    +0.000 A 
ATOM     30  C   UNL     1      -1.797  10.014  17.510  0.00  0.00    +0.000 A 
ATOM     31  C   UNL     1      -0.555   9.386  17.527  0.00  0.00    +0.000 A 
ATOM     32  C   UNL     1       0.523   9.915  18.265  0.00  0.00    +0.000 A 
BRANCH  27  34
ATOM     33  C   UNL     1       1.573  13.019  19.724  0.00  0.00    +0.000 C 
ATOM     34  O   UNL     1       1.390  11.604  19.725  0.00  0.00    +0.000 OA
ENDBRANCH  27  34
ENDBRANCH  23  32
ENDBRANCH  22  25
ENDBRANCH   1  22
TORSDOF 7
ENDMDL
MODEL 8
REMARK VINA RESULT:      -6.8      4.477      9.461
REMARK  Name = 
REMARK  8 active torsions:
REMARK  status: ('A' for Active; 'I' for Inactive)
REMARK    1  A    between atoms: C_1  and  O_2
REMARK    2  A    between atoms: O_2  and  C_3
REMARK    3  A    between atoms: C_8  and  C_9
REMARK    4  A    between atoms: N_11  and  C_12
REMARK    5  A    between atoms: C_12  and  C_13
REMARK    6  A    between atoms: N_17  and  C_18
REMARK    7  A    between atoms: N_21  and  C_22
REMARK    8  A    between atoms: C_22  and  C_23
REMARK                            x       y       z     vdW  Elec       q    Type
REMARK                         _______ _______ _______ _____ _____    ______ ____
ROOT
ATOM      1  C   UNL     1       1.329  14.387  18.928  0.00  0.00    +0.000 C 
ATOM      2  C   UNL     1       1.271  15.197  20.226  0.00  0.00    +0.000 C 
ATOM      3  C   UNL     1       1.376  14.276  21.433  0.00  0.00    +0.000 C 
ATOM      4  C   UNL     1       0.356  13.127  21.368  0.00  0.00    +0.000 C 
ATOM      5  N   UNL     1       0.363  12.382  20.093  0.00  0.00    +0.000 NA
ATOM      6  C   UNL     1       0.216  13.328  18.960  0.00  0.00    +0.000 C 
ENDROOT
BRANCH   5   7
ATOM      7  C   UNL     1      -0.681  11.313  20.007  0.00  0.00    +0.000 C 
ATOM      8  C   UNL     1      -0.590  10.165  21.024  0.00  0.00    +0.000 C 
ATOM      9  C   UNL     1       0.669   9.324  20.831  0.00  0.00    +0.000 C 
ATOM     10  N   UNL     1       0.877   8.817  19.472  0.00  0.00    +0.000 NA
ATOM     11  C   UNL     1       0.581   9.784  18.406  0.00  0.00    +0.000 C 
ATOM     12  C   UNL     1      -0.681  10.621  18.628  0.00  0.00    +0.000 C 
BRANCH  10  13
ATOM     13  C   UNL     1       2.213   8.194  19.305  0.00  0.00    +0.000 C 
BRANCH  13  14
ATOM     14  C   UNL     1       2.254   6.676  19.443  0.00  0.00    +0.000 A 
ATOM     15  C   UNL     1       1.781   6.045  20.603  0.00  0.00    +0.000 A 
ATOM     16  C   UNL     1       1.645   4.655  20.654  0.00  0.00    +0.000 A 
ATOM     17  C   UNL     1       1.990   3.873  19.550  0.00  0.00    +0.000 A 
ATOM     18 CL   UNL     1       1.728   2.168  19.656  0.00  0.00    +0.000 Cl
ATOM     19  C   UNL     1       2.510   4.482  18.405  0.00  0.00    +0.000 A 
ATOM     20 CL   UNL     1       2.928   3.588  16.987  0.00  0.00    +0.000 Cl
ATOM     21  C   UNL     1       2.665   5.872  18.365  0.00  0.00    +0.000 A 
ENDBRANCH  13  14
ENDBRANCH  10  13
ENDBRANCH   5   7
BRANCH   1  22
ATOM     22  C   UNL     1       2.695  13.711  18.692  0.00  0.00    +0.000 C 
BRANCH  22  25
ATOM     23  C   UNL     1       4.411  15.437  18.306  0.00  0.00    +0.000 C 
ATOM     24  O   UNL     1       4.029  15.627  17.155  0.00  0.00    +0.000 OA
ATOM     25  N   UNL     1       3.809  14.523  19.135  0.00  0.00    +0.000 N 
ATOM     26  H   UNL     1       4.117  14.465  20.098  0.00  0.00    +0.000 HD
BRANCH  23  32
ATOM     27  C   UNL     1       6.935  15.986  18.510  0.00  0.00    +0.000 A 
ATOM     28  C   UNL     1       7.918  16.801  19.092  0.00  0.00    +0.000 A 
ATOM     29  C   UNL     1       7.568  17.826  19.973  0.00  0.00    +0.000 A 
ATOM     30  C   UNL     1       6.241  18.058  20.294  0.00  0.00    +0.000 A 
ATOM     31  C   UNL     1       5.254  17.250  19.735  0.00  0.00    +0.000 A 
ATOM     32  C   UNL     1       5.580  16.207  18.844  0.00  0.00    +0.000 A 
BRANCH  27  34
ATOM     33  C   UNL     1       8.336  14.113  18.027  0.00  0.00    +0.000 C 
ATOM     34  O   UNL     1       7.240  14.951  17.660  0.00  0.00    +0.000 OA
ENDBRANCH  27  34
ENDBRANCH  23  32
ENDBRANCH  22  25
ENDBRANCH   1  22
TORSDOF 7
ENDMDL
MODEL 9
REMARK VINA RESULT:      -6.8      4.085      9.326
REMARK  Name = 
REMARK  8 active torsions:
REMARK  status: ('A' for Active; 'I' for Inactive)
REMARK    1  A    between atoms: C_1  and  O_2
REMARK    2  A    between atoms: O_2  and  C_3
REMARK    3  A    between atoms: C_8  and  C_9
REMARK    4  A    between atoms: N_11  and  C_12
REMARK    5  A    between atoms: C_12  and  C_13
REMARK    6  A    between atoms: N_17  and  C_18
REMARK    7  A    between atoms: N_21  and  C_22
REMARK    8  A    between atoms: C_22  and  C_23
REMARK                            x       y       z     vdW  Elec       q    Type
REMARK                         _______ _______ _______ _____ _____    ______ ____
ROOT
ATOM      1  C   UNL     1       2.300   6.940  20.594  0.00  0.00    +0.000 C 
ATOM      2  C   UNL     1       2.733   7.149  19.140  0.00  0.00    +0.000 C 
ATOM      3  C   UNL     1       1.717   6.533  18.188  0.00  0.00    +0.000 C 
ATOM      4  C   UNL     1       1.413   5.069  18.544  0.00  0.00    +0.000 C 
ATOM      5  N   UNL     1       1.057   4.851  19.961  0.00  0.00    +0.000 NA
ATOM      6  C   UNL     1       2.103   5.435  20.835  0.00  0.00    +0.000 C 
ENDROOT
BRANCH   5   7
ATOM      7  C   UNL     1       0.834   3.414  20.317  0.00  0.00    +0.000 C 
ATOM      8  C   UNL     1       1.899   2.740  21.196  0.00  0.00    +0.000 C 
ATOM      9  C   UNL     1       3.246   2.633  20.487  0.00  0.00    +0.000 C 
ATOM     10  N   UNL     1       3.205   2.004  19.164  0.00  0.00    +0.000 NA
ATOM     11  C   UNL     1       2.070   2.413  18.326  0.00  0.00    +0.000 C 
ATOM     12  C   UNL     1       0.733   2.521  19.063  0.00  0.00    +0.000 C 
BRANCH  10  13
ATOM     13  C   UNL     1       4.499   2.124  18.448  0.00  0.00    +0.000 C 
BRANCH  13  14
ATOM     14  C   UNL     1       4.989   3.547  18.205  0.00  0.00    +0.000 A 
ATOM     15  C   UNL     1       5.689   4.247  19.199  0.00  0.00    +0.000 A 
ATOM     16  C   UNL     1       6.297   5.473  18.913  0.00  0.00    +0.000 A 
ATOM     17  C   UNL     1       6.205   6.024  17.633  0.00  0.00    +0.000 A 
ATOM     18 CL   UNL     1       7.041   7.506  17.331  0.00  0.00    +0.000 Cl
ATOM     19  C   UNL     1       5.468   5.363  16.647  0.00  0.00    +0.000 A 
ATOM     20 CL   UNL     1       5.334   5.962  15.031  0.00  0.00    +0.000 Cl
ATOM     21  C   UNL     1       4.843   4.147  16.942  0.00  0.00    +0.000 A 
ENDBRANCH  13  14
ENDBRANCH  10  13
ENDBRANCH   5   7
BRANCH   1  22
ATOM     22  C   UNL     1       1.015   7.707  20.964  0.00  0.00    +0.000 C 
BRANCH  22  25
ATOM     23  C   UNL     1       0.107   9.986  20.730  0.00  0.00    +0.000 C 
ATOM     24  O   UNL     1      -0.502   9.903  21.794  0.00  0.00    +0.000 OA
ATOM     25  N   UNL     1       0.883   8.960  20.251  0.00  0.00    +0.000 N 
ATOM     26  H   UNL     1       1.423   9.113  19.408  0.00  0.00    +0.000 HD
BRANCH  23  32
ATOM     27  C   UNL     1       0.836  12.368  20.021  0.00  0.00    +0.000 A 
ATOM     28  C   UNL     1       0.621  13.458  19.163  0.00  0.00    +0.000 A 
ATOM     29  C   UNL     1      -0.384  13.419  18.195  0.00  0.00    +0.000 A 
ATOM     30  C   UNL     1      -1.195  12.303  18.064  0.00  0.00    +0.000 A 
ATOM     31  C   UNL     1      -1.002  11.219  18.916  0.00  0.00    +0.000 A 
ATOM     32  C   UNL     1       0.005  11.233  19.903  0.00  0.00    +0.000 A 
BRANCH  27  34
ATOM     33  C   UNL     1       2.666  13.510  21.047  0.00  0.00    +0.000 C 
ATOM     34  O   UNL     1       1.798  12.378  21.003  0.00  0.00    +0.000 OA
ENDBRANCH  27  34
ENDBRANCH  23  32
ENDBRANCH  22  25
ENDBRANCH   1  22
TORSDOF 7
ENDMDL
