MODEL 1
REMARK VINA RESULT:      -7.5      0.000      0.000
REMARK  Name = 
REMARK  11 active torsions:
REMARK  status: ('A' for Active; 'I' for Inactive)
REMARK    1  A    between atoms: C_1  and  N_2
REMARK    2  A    between atoms: N_2  and  S_3
REMARK    3  A    between atoms: S_3  and  C_6
REMARK    4  A    between atoms: C_9  and  O_10
REMARK    5  A    between atoms: O_10  and  C_11
REMARK    6  A    between atoms: C_14  and  S_15
REMARK    7  A    between atoms: S_15  and  C_16
REMARK    8  A    between atoms: C_19  and  C_20
REMARK    9  A    between atoms: C_20  and  N_21
REMARK   10  A    between atoms: N_21  and  C_22
REMARK   11  A    between atoms: N_21  and  C_23
REMARK                            x       y       z     vdW  Elec       q    Type
REMARK                         _______ _______ _______ _____ _____    ______ ____
ROOT
ATOM      1  C   UNL     1       5.565   5.287  16.437  0.00  0.00    +0.000 A 
ATOM      2  C   UNL     1       5.552   6.564  16.977  0.00  0.00    +0.000 A 
ATOM      3  C   UNL     1       4.477   6.943  17.776  0.00  0.00    +0.000 A 
ATOM      4  C   UNL     1       3.475   6.016  18.119  0.00  0.00    +0.000 A 
ATOM      5  C   UNL     1       3.464   4.739  17.529  0.00  0.00    +0.000 A 
ATOM      6  C   UNL     1       4.500   4.407  16.638  0.00  0.00    +0.000 A 
ENDROOT
BRANCH   1   7
ATOM      7  S   UNL     1       7.006   4.700  15.574  0.00  0.00    +0.000 S 
ATOM      8  O   UNL     1       7.903   4.117  16.549  0.00  0.00    +0.000 OA
ATOM      9  O   UNL     1       7.418   5.747  14.669  0.00  0.00    +0.000 OA
BRANCH   7  11
ATOM     10  C   UNL     1       6.095   3.702  13.230  0.00  0.00    +0.000 C 
ATOM     11  N   UNL     1       6.381   3.448  14.643  0.00  0.00    +0.000 NA
ATOM     12  H   UNL     1       6.799   2.547  14.871  0.00  0.00    +0.000 HD
ENDBRANCH   7  11
ENDBRANCH   1   7
BRANCH   4  13
ATOM     13  O   UNL     1       2.481   6.337  19.025  0.00  0.00    +0.000 OA
BRANCH  13  14
ATOM     14  C   UNL     1       1.996   7.629  19.035  0.00  0.00    +0.000 A 
ATOM     15  C   UNL     1       1.624   8.161  20.269  0.00  0.00    +0.000 A 
ATOM     16  C   UNL     1       1.091   9.454  20.346  0.00  0.00    +0.000 A 
ATOM     17  C   UNL     1       0.935  10.234  19.191  0.00  0.00    +0.000 A 
ATOM     18  C   UNL     1       1.318   9.695  17.960  0.00  0.00    +0.000 A 
ATOM     19  C   UNL     1       1.880   8.418  17.886  0.00  0.00    +0.000 A 
BRANCH  17  20
ATOM     20  S   UNL     1       0.217  11.861  19.357  0.00  0.00    +0.000 S 
ATOM     21  C   UNL     1      -1.560  11.484  19.389  0.00  0.00    +0.000 C 
ENDBRANCH  17  20
ENDBRANCH  13  14
ENDBRANCH   4  13
BRANCH   5  22
ATOM     22  C   UNL     1       2.401   3.697  17.834  0.00  0.00    +0.000 C 
BRANCH  22  23
ATOM     23  N   UNL     1       2.742   2.834  18.992  0.00  0.00    +0.000 NA
ATOM     24  C   UNL     1       1.568   2.541  19.817  0.00  0.00    +0.000 C 
ATOM     25  C   UNL     1       3.324   1.574  18.518  0.00  0.00    +0.000 C 
ENDBRANCH  22  23
ENDBRANCH   5  22
TORSDOF 7
ENDMDL
MODEL 2
REMARK VINA RESULT:      -7.2      1.132      1.451
REMARK  Name = 
REMARK  11 active torsions:
REMARK  status: ('A' for Active; 'I' for Inactive)
REMARK    1  A    between atoms: C_1  and  N_2
REMARK    2  A    between atoms: N_2  and  S_3
REMARK    3  A    between atoms: S_3  and  C_6
REMARK    4  A    between atoms: C_9  and  O_10
REMARK    5  A    between atoms: O_10  and  C_11
REMARK    6  A    between atoms: C_14  and  S_15
REMARK    7  A    between atoms: S_15  and  C_16
REMARK    8  A    between atoms: C_19  and  C_20
REMARK    9  A    between atoms: C_20  and  N_21
REMARK   10  A    between atoms: N_21  and  C_22
REMARK   11  A    between atoms: N_21  and  C_23
REMARK                            x       y       z     vdW  Elec       q    Type
REMARK                         _______ _______ _______ _____ _____    ______ ____
ROOT
ATOM      1  C   UNL     1       5.336   5.282  16.465  0.00  0.00    +0.000 A 
ATOM      2  C   UNL     1       5.321   6.612  16.855  0.00  0.00    +0.000 A 
ATOM      3  C   UNL     1       4.311   7.050  17.707  0.00  0.00    +0.000 A 
ATOM      4  C   UNL     1       3.384   6.140  18.249  0.00  0.00    +0.000 A 
ATOM      5  C   UNL     1       3.370   4.803  17.811  0.00  0.00    +0.000 A 
ATOM      6  C   UNL     1       4.332   4.400  16.867  0.00  0.00    +0.000 A 
ENDROOT
BRANCH   1   7
ATOM      7  S   UNL     1       6.714   4.642  15.539  0.00  0.00    +0.000 S 
ATOM      8  O   UNL     1       7.396   5.760  14.923  0.00  0.00    +0.000 OA
ATOM      9  O   UNL     1       6.231   3.514  14.778  0.00  0.00    +0.000 OA
BRANCH   7  11
ATOM     10  C   UNL     1       7.756   4.743  18.034  0.00  0.00    +0.000 C 
ATOM     11  N   UNL     1       7.712   4.040  16.751  0.00  0.00    +0.000 NA
ATOM     12  H   UNL     1       7.711   3.021  16.786  0.00  0.00    +0.000 HD
ENDBRANCH   7  11
ENDBRANCH   1   7
BRANCH   4  13
ATOM     13  O   UNL     1       2.466   6.534  19.205  0.00  0.00    +0.000 OA
BRANCH  13  14
ATOM     14  C   UNL     1       1.942   7.809  19.124  0.00  0.00    +0.000 A 
ATOM     15  C   UNL     1       1.509   8.397  20.311  0.00  0.00    +0.000 A 
ATOM     16  C   UNL     1       0.935   9.675  20.294  0.00  0.00    +0.000 A 
ATOM     17  C   UNL     1       0.799  10.383  19.092  0.00  0.00    +0.000 A 
ATOM     18  C   UNL     1       1.243   9.788  17.909  0.00  0.00    +0.000 A 
ATOM     19  C   UNL     1       1.846   8.528  17.927  0.00  0.00    +0.000 A 
BRANCH  17  20
ATOM     20  S   UNL     1       0.026  11.993  19.139  0.00  0.00    +0.000 S 
ATOM     21  C   UNL     1      -1.735  11.560  19.238  0.00  0.00    +0.000 C 
ENDBRANCH  17  20
ENDBRANCH  13  14
ENDBRANCH   4  13
BRANCH   5  22
ATOM     22  C   UNL     1       2.384   3.772  18.335  0.00  0.00    +0.000 C 
BRANCH  22  23
ATOM     23  N   UNL     1       2.630   3.391  19.748  0.00  0.00    +0.000 NA
ATOM     24  C   UNL     1       1.411   2.912  20.403  0.00  0.00    +0.000 C 
ATOM     25  C   UNL     1       3.653   2.341  19.809  0.00  0.00    +0.000 C 
ENDBRANCH  22  23
ENDBRANCH   5  22
TORSDOF 7
ENDMDL
MODEL 3
REMARK VINA RESULT:      -7.0      2.130      2.321
REMARK  Name = 
REMARK  11 active torsions:
REMARK  status: ('A' for Active; 'I' for Inactive)
REMARK    1  A    between atoms: C_1  and  N_2
REMARK    2  A    between atoms: N_2  and  S_3
REMARK    3  A    between atoms: S_3  and  C_6
REMARK    4  A    between atoms: C_9  and  O_10
REMARK    5  A    between atoms: O_10  and  C_11
REMARK    6  A    between atoms: C_14  and  S_15
REMARK    7  A    between atoms: S_15  and  C_16
REMARK    8  A    between atoms: C_19  and  C_20
REMARK    9  A    between atoms: C_20  and  N_21
REMARK   10  A    between atoms: N_21  and  C_22
REMARK   11  A    between atoms: N_21  and  C_23
REMARK                            x       y       z     vdW  Elec       q    Type
REMARK                         _______ _______ _______ _____ _____    ______ ____
ROOT
ATOM      1  C   UNL     1       5.674   5.992  18.522  0.00  0.00    +0.000 A 
ATOM      2  C   UNL     1       5.317   6.925  17.560  0.00  0.00    +0.000 A 
ATOM      3  C   UNL     1       3.980   7.296  17.450  0.00  0.00    +0.000 A 
ATOM      4  C   UNL     1       3.023   6.816  18.365  0.00  0.00    +0.000 A 
ATOM      5  C   UNL     1       3.379   5.832  19.306  0.00  0.00    +0.000 A 
ATOM      6  C   UNL     1       4.714   5.387  19.334  0.00  0.00    +0.000 A 
ENDROOT
BRANCH   1   7
ATOM      7  S   UNL     1       7.392   5.639  18.823  0.00  0.00    +0.000 S 
ATOM      8  O   UNL     1       7.524   5.204  20.197  0.00  0.00    +0.000 OA
ATOM      9  O   UNL     1       8.156   6.738  18.281  0.00  0.00    +0.000 OA
BRANCH   7  11
ATOM     10  C   UNL     1       7.217   4.363  16.443  0.00  0.00    +0.000 C 
ATOM     11  N   UNL     1       7.662   4.305  17.837  0.00  0.00    +0.000 NA
ATOM     12  H   UNL     1       8.566   3.868  18.011  0.00  0.00    +0.000 HD
ENDBRANCH   7  11
ENDBRANCH   1   7
BRANCH   4  13
ATOM     13  O   UNL     1       1.723   7.285  18.356  0.00  0.00    +0.000 OA
BRANCH  13  14
ATOM     14  C   UNL     1       1.474   8.536  18.886  0.00  0.00    +0.000 A 
ATOM     15  C   UNL     1       1.210   8.608  20.253  0.00  0.00    +0.000 A 
ATOM     16  C   UNL     1       0.915   9.842  20.847  0.00  0.00    +0.000 A 
ATOM     17  C   UNL     1       0.891  11.018  20.084  0.00  0.00    +0.000 A 
ATOM     18  C   UNL     1       1.164  10.935  18.716  0.00  0.00    +0.000 A 
ATOM     19  C   UNL     1       1.491   9.711  18.127  0.00  0.00    +0.000 A 
BRANCH  17  20
ATOM     20  S   UNL     1       0.473  12.551  20.900  0.00  0.00    +0.000 S 
ATOM     21  C   UNL     1      -0.622  11.979  22.232  0.00  0.00    +0.000 C 
ENDBRANCH  17  20
ENDBRANCH  13  14
ENDBRANCH   4  13
BRANCH   5  22
ATOM     22  C   UNL     1       2.395   5.251  20.307  0.00  0.00    +0.000 C 
BRANCH  22  23
ATOM     23  N   UNL     1       2.318   3.770  20.261  0.00  0.00    +0.000 NA
ATOM     24  C   UNL     1       2.046   3.198  21.581  0.00  0.00    +0.000 C 
ATOM     25  C   UNL     1       1.261   3.357  19.331  0.00  0.00    +0.000 C 
ENDBRANCH  22  23
ENDBRANCH   5  22
TORSDOF 7
ENDMDL
MODEL 4
REMARK VINA RESULT:      -7.0      1.242      1.824
REMARK  Name = 
REMARK  11 active torsions:
REMARK  status: ('A' for Active; 'I' for Inactive)
REMARK    1  A    between atoms: C_1  and  N_2
REMARK    2  A    between atoms: N_2  and  S_3
REMARK    3  A    between atoms: S_3  and  C_6
REMARK    4  A    between atoms: C_9  and  O_10
REMARK    5  A    between atoms: O_10  and  C_11
REMARK    6  A    between atoms: C_14  and  S_15
REMARK    7  A    between atoms: S_15  and  C_16
REMARK    8  A    between atoms: C_19  and  C_20
REMARK    9  A    between atoms: C_20  and  N_21
REMARK   10  A    between atoms: N_21  and  C_22
REMARK   11  A    between atoms: N_21  and  C_23
REMARK                            x       y       z     vdW  Elec       q    Type
REMARK                         _______ _______ _______ _____ _____    ______ ____
ROOT
ATOM      1  C   UNL     1       5.327   5.266  16.583  0.00  0.00    +0.000 A 
ATOM      2  C   UNL     1       5.189   6.618  16.860  0.00  0.00    +0.000 A 
ATOM      3  C   UNL     1       4.163   7.028  17.706  0.00  0.00    +0.000 A 
ATOM      4  C   UNL     1       3.346   6.083  18.355  0.00  0.00    +0.000 A 
ATOM      5  C   UNL     1       3.455   4.718  18.033  0.00  0.00    +0.000 A 
ATOM      6  C   UNL     1       4.427   4.329  17.094  0.00  0.00    +0.000 A 
ENDROOT
BRANCH   1   7
ATOM      7  S   UNL     1       6.736   4.685  15.667  0.00  0.00    +0.000 S 
ATOM      8  O   UNL     1       7.405   5.835  15.098  0.00  0.00    +0.000 OA
ATOM      9  O   UNL     1       6.295   3.568  14.865  0.00  0.00    +0.000 OA
BRANCH   7  11
ATOM     10  C   UNL     1       7.813   4.800  18.148  0.00  0.00    +0.000 C 
ATOM     11  N   UNL     1       7.724   4.071  16.881  0.00  0.00    +0.000 NA
ATOM     12  H   UNL     1       7.683   3.054  16.940  0.00  0.00    +0.000 HD
ENDBRANCH   7  11
ENDBRANCH   1   7
BRANCH   4  13
ATOM     13  O   UNL     1       2.419   6.469  19.306  0.00  0.00    +0.000 OA
BRANCH  13  14
ATOM     14  C   UNL     1       1.938   7.762  19.265  0.00  0.00    +0.000 A 
ATOM     15  C   UNL     1       1.935   8.403  18.027  0.00  0.00    +0.000 A 
ATOM     16  C   UNL     1       1.492   9.727  17.922  0.00  0.00    +0.000 A 
ATOM     17  C   UNL     1       1.038  10.423  19.052  0.00  0.00    +0.000 A 
ATOM     18  C   UNL     1       1.040   9.770  20.287  0.00  0.00    +0.000 A 
ATOM     19  C   UNL     1       1.449   8.438  20.388  0.00  0.00    +0.000 A 
BRANCH  17  20
ATOM     20  S   UNL     1       0.522  12.121  18.853  0.00  0.00    +0.000 S 
ATOM     21  C   UNL     1      -1.264  11.940  18.580  0.00  0.00    +0.000 C 
ENDBRANCH  17  20
ENDBRANCH  13  14
ENDBRANCH   4  13
BRANCH   5  22
ATOM     22  C   UNL     1       2.591   3.646  18.676  0.00  0.00    +0.000 C 
BRANCH  22  23
ATOM     23  N   UNL     1       2.972   3.351  20.080  0.00  0.00    +0.000 NA
ATOM     24  C   UNL     1       1.842   2.829  20.853  0.00  0.00    +0.000 C 
ATOM     25  C   UNL     1       4.064   2.371  20.103  0.00  0.00    +0.000 C 
ENDBRANCH  22  23
ENDBRANCH   5  22
TORSDOF 7
ENDMDL
MODEL 5
REMARK VINA RESULT:      -7.0      1.130      1.287
REMARK  Name = 
REMARK  11 active torsions:
REMARK  status: ('A' for Active; 'I' for Inactive)
REMARK    1  A    between atoms: C_1  and  N_2
REMARK    2  A    between atoms: N_2  and  S_3
REMARK    3  A    between atoms: S_3  and  C_6
REMARK    4  A    between atoms: C_9  and  O_10
REMARK    5  A    between atoms: O_10  and  C_11
REMARK    6  A    between atoms: C_14  and  S_15
REMARK    7  A    between atoms: S_15  and  C_16
REMARK    8  A    between atoms: C_19  and  C_20
REMARK    9  A    between atoms: C_20  and  N_21
REMARK   10  A    between atoms: N_21  and  C_22
REMARK   11  A    between atoms: N_21  and  C_23
REMARK                            x       y       z     vdW  Elec       q    Type
REMARK                         _______ _______ _______ _____ _____    ______ ____
ROOT
ATOM      1  C   UNL     1       5.502   5.195  16.792  0.00  0.00    +0.000 A 
ATOM      2  C   UNL     1       5.750   6.372  17.481  0.00  0.00    +0.000 A 
ATOM      3  C   UNL     1       4.756   6.886  18.310  0.00  0.00    +0.000 A 
ATOM      4  C   UNL     1       3.563   6.171  18.529  0.00  0.00    +0.000 A 
ATOM      5  C   UNL     1       3.294   5.005  17.790  0.00  0.00    +0.000 A 
ATOM      6  C   UNL     1       4.264   4.555  16.876  0.00  0.00    +0.000 A 
ENDROOT
BRANCH   1   7
ATOM      7  S   UNL     1       6.810   4.406  15.881  0.00  0.00    +0.000 S 
ATOM      8  O   UNL     1       6.252   3.255  15.203  0.00  0.00    +0.000 OA
ATOM      9  O   UNL     1       7.949   4.309  16.763  0.00  0.00    +0.000 OA
BRANCH   7  11
ATOM     10  C   UNL     1       7.578   5.100  13.380  0.00  0.00    +0.000 C 
ATOM     11  N   UNL     1       7.178   5.557  14.712  0.00  0.00    +0.000 NA
ATOM     12  H   UNL     1       6.557   6.365  14.752  0.00  0.00    +0.000 HD
ENDBRANCH   7  11
ENDBRANCH   1   7
BRANCH   4  13
ATOM     13  O   UNL     1       2.631   6.599  19.457  0.00  0.00    +0.000 OA
BRANCH  13  14
ATOM     14  C   UNL     1       2.025   7.823  19.261  0.00  0.00    +0.000 A 
ATOM     15  C   UNL     1       1.458   8.440  20.375  0.00  0.00    +0.000 A 
ATOM     16  C   UNL     1       0.798   9.668  20.239  0.00  0.00    +0.000 A 
ATOM     17  C   UNL     1       0.706  10.298  18.990  0.00  0.00    +0.000 A 
ATOM     18  C   UNL     1       1.284   9.675  17.881  0.00  0.00    +0.000 A 
ATOM     19  C   UNL     1       1.972   8.467  18.020  0.00  0.00    +0.000 A 
BRANCH  17  20
ATOM     20  S   UNL     1      -0.181  11.844  18.882  0.00  0.00    +0.000 S 
ATOM     21  C   UNL     1       1.171  13.037  18.663  0.00  0.00    +0.000 C 
ENDBRANCH  17  20
ENDBRANCH  13  14
ENDBRANCH   4  13
BRANCH   5  22
ATOM     22  C   UNL     1       2.018   4.196  17.957  0.00  0.00    +0.000 C 
BRANCH  22  23
ATOM     23  N   UNL     1       2.029   3.328  19.161  0.00  0.00    +0.000 NA
ATOM     24  C   UNL     1       0.981   3.704  20.112  0.00  0.00    +0.000 C 
ATOM     25  C   UNL     1       1.840   1.928  18.765  0.00  0.00    +0.000 C 
ENDBRANCH  22  23
ENDBRANCH   5  22
TORSDOF 7
ENDMDL
MODEL 6
REMARK VINA RESULT:      -6.9      0.591      1.255
REMARK  Name = 
REMARK  11 active torsions:
REMARK  status: ('A' for Active; 'I' for Inactive)
REMARK    1  A    between atoms: C_1  and  N_2
REMARK    2  A    between atoms: N_2  and  S_3
REMARK    3  A    between atoms: S_3  and  C_6
REMARK    4  A    between atoms: C_9  and  O_10
REMARK    5  A    between atoms: O_10  and  C_11
REMARK    6  A    between atoms: C_14  and  S_15
REMARK    7  A    between atoms: S_15  and  C_16
REMARK    8  A    between atoms: C_19  and  C_20
REMARK    9  A    between atoms: C_20  and  N_21
REMARK   10  A    between atoms: N_21  and  C_22
REMARK   11  A    between atoms: N_21  and  C_23
REMARK                            x       y       z     vdW  Elec       q    Type
REMARK                         _______ _______ _______ _____ _____    ______ ____
ROOT
ATOM      1  C   UNL     1       5.605   5.259  16.567  0.00  0.00    +0.000 A 
ATOM      2  C   UNL     1       5.651   6.506  17.171  0.00  0.00    +0.000 A 
ATOM      3  C   UNL     1       4.615   6.877  18.024  0.00  0.00    +0.000 A 
ATOM      4  C   UNL     1       3.594   5.966  18.352  0.00  0.00    +0.000 A 
ATOM      5  C   UNL     1       3.521   4.722  17.698  0.00  0.00    +0.000 A 
ATOM      6  C   UNL     1       4.518   4.403  16.758  0.00  0.00    +0.000 A 
ENDROOT
BRANCH   1   7
ATOM      7  S   UNL     1       6.998   4.672  15.630  0.00  0.00    +0.000 S 
ATOM      8  O   UNL     1       7.932   4.062  16.551  0.00  0.00    +0.000 OA
ATOM      9  O   UNL     1       7.381   5.730  14.725  0.00  0.00    +0.000 OA
BRANCH   7  11
ATOM     10  C   UNL     1       6.052   3.699  13.288  0.00  0.00    +0.000 C 
ATOM     11  N   UNL     1       6.317   3.444  14.705  0.00  0.00    +0.000 NA
ATOM     12  H   UNL     1       6.688   2.525  14.944  0.00  0.00    +0.000 HD
ENDBRANCH   7  11
ENDBRANCH   1   7
BRANCH   4  13
ATOM     13  O   UNL     1       2.639   6.270  19.305  0.00  0.00    +0.000 OA
BRANCH  13  14
ATOM     14  C   UNL     1       2.062   7.524  19.276  0.00  0.00    +0.000 A 
ATOM     15  C   UNL     1       2.015   8.177  18.045  0.00  0.00    +0.000 A 
ATOM     16  C   UNL     1       1.474   9.465  17.953  0.00  0.00    +0.000 A 
ATOM     17  C   UNL     1       0.963  10.111  19.088  0.00  0.00    +0.000 A 
ATOM     18  C   UNL     1       1.008   9.445  20.316  0.00  0.00    +0.000 A 
ATOM     19  C   UNL     1       1.517   8.147  20.404  0.00  0.00    +0.000 A 
BRANCH  17  20
ATOM     20  S   UNL     1       0.320  11.768  18.905  0.00  0.00    +0.000 S 
ATOM     21  C   UNL     1      -0.793  11.897  20.334  0.00  0.00    +0.000 C 
ENDBRANCH  17  20
ENDBRANCH  13  14
ENDBRANCH   4  13
BRANCH   5  22
ATOM     22  C   UNL     1       2.434   3.700  17.984  0.00  0.00    +0.000 C 
BRANCH  22  23
ATOM     23  N   UNL     1       2.888   2.592  18.861  0.00  0.00    +0.000 NA
ATOM     24  C   UNL     1       3.488   1.500  18.093  0.00  0.00    +0.000 C 
ATOM     25  C   UNL     1       3.870   3.096  19.829  0.00  0.00    +0.000 C 
ENDBRANCH  22  23
ENDBRANCH   5  22
TORSDOF 7
ENDMDL
MODEL 7
REMARK VINA RESULT:      -6.8      0.754      1.273
REMARK  Name = 
REMARK  11 active torsions:
REMARK  status: ('A' for Active; 'I' for Inactive)
REMARK    1  A    between atoms: C_1  and  N_2
REMARK    2  A    between atoms: N_2  and  S_3
REMARK    3  A    between atoms: S_3  and  C_6
REMARK    4  A    between atoms: C_9  and  O_10
REMARK    5  A    between atoms: O_10  and  C_11
REMARK    6  A    between atoms: C_14  and  S_15
REMARK    7  A    between atoms: S_15  and  C_16
REMARK    8  A    between atoms: C_19  and  C_20
REMARK    9  A    between atoms: C_20  and  N_21
REMARK   10  A    between atoms: N_21  and  C_22
REMARK   11  A    between atoms: N_21  and  C_23
REMARK                            x       y       z     vdW  Elec       q    Type
REMARK                         _______ _______ _______ _____ _____    ______ ____
ROOT
ATOM      1  C   UNL     1       5.510   5.271  16.300  0.00  0.00    +0.000 A 
ATOM      2  C   UNL     1       5.507   6.492  16.957  0.00  0.00    +0.000 A 
ATOM      3  C   UNL     1       4.457   6.785  17.823  0.00  0.00    +0.000 A 
ATOM      4  C   UNL     1       3.473   5.820  18.110  0.00  0.00    +0.000 A 
ATOM      5  C   UNL     1       3.450   4.603  17.404  0.00  0.00    +0.000 A 
ATOM      6  C   UNL     1       4.458   4.365  16.452  0.00  0.00    +0.000 A 
ENDROOT
BRANCH   1   7
ATOM      7  S   UNL     1       6.925   4.781  15.340  0.00  0.00    +0.000 S 
ATOM      8  O   UNL     1       7.945   4.313  16.254  0.00  0.00    +0.000 OA
ATOM      9  O   UNL     1       7.170   5.826  14.374  0.00  0.00    +0.000 OA
BRANCH   7  11
ATOM     10  C   UNL     1       6.157   3.558  13.051  0.00  0.00    +0.000 C 
ATOM     11  N   UNL     1       6.343   3.446  14.498  0.00  0.00    +0.000 NA
ATOM     12  H   UNL     1       6.730   2.569  14.844  0.00  0.00    +0.000 HD
ENDBRANCH   7  11
ENDBRANCH   1   7
BRANCH   4  13
ATOM     13  O   UNL     1       2.508   6.045  19.074  0.00  0.00    +0.000 OA
BRANCH  13  14
ATOM     14  C   UNL     1       2.091   7.343  19.293  0.00  0.00    +0.000 A 
ATOM     15  C   UNL     1       2.098   8.208  18.200  0.00  0.00    +0.000 A 
ATOM     16  C   UNL     1       1.720   9.547  18.360  0.00  0.00    +0.000 A 
ATOM     17  C   UNL     1       1.320  10.033  19.613  0.00  0.00    +0.000 A 
ATOM     18  C   UNL     1       1.309   9.157  20.701  0.00  0.00    +0.000 A 
ATOM     19  C   UNL     1       1.655   7.813  20.536  0.00  0.00    +0.000 A 
BRANCH  17  20
ATOM     20  S   UNL     1       0.885  11.760  19.753  0.00  0.00    +0.000 S 
ATOM     21  C   UNL     1       1.662  12.464  18.270  0.00  0.00    +0.000 C 
ENDBRANCH  17  20
ENDBRANCH  13  14
ENDBRANCH   4  13
BRANCH   5  22
ATOM     22  C   UNL     1       2.405   3.527  17.645  0.00  0.00    +0.000 C 
BRANCH  22  23
ATOM     23  N   UNL     1       2.727   2.646  18.795  0.00  0.00    +0.000 NA
ATOM     24  C   UNL     1       1.522   2.225  19.513  0.00  0.00    +0.000 C 
ATOM     25  C   UNL     1       3.445   1.456  18.324  0.00  0.00    +0.000 C 
ENDBRANCH  22  23
ENDBRANCH   5  22
TORSDOF 7
ENDMDL
MODEL 8
REMARK VINA RESULT:      -6.8      1.286      1.869
REMARK  Name = 
REMARK  11 active torsions:
REMARK  status: ('A' for Active; 'I' for Inactive)
REMARK    1  A    between atoms: C_1  and  N_2
REMARK    2  A    between atoms: N_2  and  S_3
REMARK    3  A    between atoms: S_3  and  C_6
REMARK    4  A    between atoms: C_9  and  O_10
REMARK    5  A    between atoms: O_10  and  C_11
REMARK    6  A    between atoms: C_14  and  S_15
REMARK    7  A    between atoms: S_15  and  C_16
REMARK    8  A    between atoms: C_19  and  C_20
REMARK    9  A    between atoms: C_20  and  N_21
REMARK   10  A    between atoms: N_21  and  C_22
REMARK   11  A    between atoms: N_21  and  C_23
REMARK                            x       y       z     vdW  Elec       q    Type
REMARK                         _______ _______ _______ _____ _____    ______ ____
ROOT
ATOM      1  C   UNL     1       5.451   5.362  17.510  0.00  0.00    +0.000 A 
ATOM      2  C   UNL     1       4.873   6.580  17.190  0.00  0.00    +0.000 A 
ATOM      3  C   UNL     1       3.705   6.962  17.844  0.00  0.00    +0.000 A 
ATOM      4  C   UNL     1       3.178   6.178  18.887  0.00  0.00    +0.000 A 
ATOM      5  C   UNL     1       3.736   4.919  19.175  0.00  0.00    +0.000 A 
ATOM      6  C   UNL     1       4.854   4.499  18.431  0.00  0.00    +0.000 A 
ENDROOT
BRANCH   1   7
ATOM      7  S   UNL     1       7.041   4.928  16.842  0.00  0.00    +0.000 S 
ATOM      8  O   UNL     1       7.839   4.368  17.912  0.00  0.00    +0.000 OA
ATOM      9  O   UNL     1       7.489   6.045  16.043  0.00  0.00    +0.000 OA
BRANCH   7  11
ATOM     10  C   UNL     1       6.308   4.012  14.403  0.00  0.00    +0.000 C 
ATOM     11  N   UNL     1       6.657   3.678  15.785  0.00  0.00    +0.000 NA
ATOM     12  H   UNL     1       7.244   2.856  15.924  0.00  0.00    +0.000 HD
ENDBRANCH   7  11
ENDBRANCH   1   7
BRANCH   4  13
ATOM     13  O   UNL     1       2.103   6.614  19.640  0.00  0.00    +0.000 OA
BRANCH  13  14
ATOM     14  C   UNL     1       1.723   7.937  19.534  0.00  0.00    +0.000 A 
ATOM     15  C   UNL     1       1.775   8.516  18.267  0.00  0.00    +0.000 A 
ATOM     16  C   UNL     1       1.436   9.865  18.096  0.00  0.00    +0.000 A 
ATOM     17  C   UNL     1       1.032  10.646  19.188  0.00  0.00    +0.000 A 
ATOM     18  C   UNL     1       0.977  10.054  20.453  0.00  0.00    +0.000 A 
ATOM     19  C   UNL     1       1.282   8.701  20.620  0.00  0.00    +0.000 A 
BRANCH  17  20
ATOM     20  S   UNL     1       0.649  12.368  18.904  0.00  0.00    +0.000 S 
ATOM     21  C   UNL     1       2.266  13.034  18.413  0.00  0.00    +0.000 C 
ENDBRANCH  17  20
ENDBRANCH  13  14
ENDBRANCH   4  13
BRANCH   5  22
ATOM     22  C   UNL     1       3.205   4.010  20.270  0.00  0.00    +0.000 C 
BRANCH  22  23
ATOM     23  N   UNL     1       1.949   3.314  19.895  0.00  0.00    +0.000 NA
ATOM     24  C   UNL     1       2.207   2.120  19.087  0.00  0.00    +0.000 C 
ATOM     25  C   UNL     1       1.215   2.926  21.105  0.00  0.00    +0.000 C 
ENDBRANCH  22  23
ENDBRANCH   5  22
TORSDOF 7
ENDMDL
MODEL 9
REMARK VINA RESULT:      -6.8      1.779      2.038
REMARK  Name = 
REMARK  11 active torsions:
REMARK  status: ('A' for Active; 'I' for Inactive)
REMARK    1  A    between atoms: C_1  and  N_2
REMARK    2  A    between atoms: N_2  and  S_3
REMARK    3  A    between atoms: S_3  and  C_6
REMARK    4  A    between atoms: C_9  and  O_10
REMARK    5  A    between atoms: O_10  and  C_11
REMARK    6  A    between atoms: C_14  and  S_15
REMARK    7  A    between atoms: S_15  and  C_16
REMARK    8  A    between atoms: C_19  and  C_20
REMARK    9  A    between atoms: C_20  and  N_21
REMARK   10  A    between atoms: N_21  and  C_22
REMARK   11  A    between atoms: N_21  and  C_23
REMARK                            x       y       z     vdW  Elec       q    Type
REMARK                         _______ _______ _______ _____ _____    ______ ____
ROOT
ATOM      1  C   UNL     1       5.581   6.009  17.959  0.00  0.00    +0.000 A 
ATOM      2  C   UNL     1       4.949   7.013  17.240  0.00  0.00    +0.000 A 
ATOM      3  C   UNL     1       3.622   7.314  17.533  0.00  0.00    +0.000 A 
ATOM      4  C   UNL     1       2.963   6.687  18.607  0.00  0.00    +0.000 A 
ATOM      5  C   UNL     1       3.589   5.634  19.300  0.00  0.00    +0.000 A 
ATOM      6  C   UNL     1       4.893   5.268  18.922  0.00  0.00    +0.000 A 
ENDROOT
BRANCH   1   7
ATOM      7  S   UNL     1       7.325   5.729  17.751  0.00  0.00    +0.000 S 
ATOM      8  O   UNL     1       7.878   5.376  19.040  0.00  0.00    +0.000 OA
ATOM      9  O   UNL     1       7.842   6.819  16.957  0.00  0.00    +0.000 OA
BRANCH   7  11
ATOM     10  C   UNL     1       6.816   4.434  15.429  0.00  0.00    +0.000 C 
ATOM     11  N   UNL     1       7.354   4.351  16.788  0.00  0.00    +0.000 NA
ATOM     12  H   UNL     1       8.209   3.808  16.911  0.00  0.00    +0.000 HD
ENDBRANCH   7  11
ENDBRANCH   1   7
BRANCH   4  13
ATOM     13  O   UNL     1       1.696   7.077  18.998  0.00  0.00    +0.000 OA
BRANCH  13  14
ATOM     14  C   UNL     1       1.490   8.402  19.327  0.00  0.00    +0.000 A 
ATOM     15  C   UNL     1       1.235   8.695  20.665  0.00  0.00    +0.000 A 
ATOM     16  C   UNL     1       0.983  10.015  21.061  0.00  0.00    +0.000 A 
ATOM     17  C   UNL     1       0.995  11.058  20.124  0.00  0.00    +0.000 A 
ATOM     18  C   UNL     1       1.258  10.755  18.786  0.00  0.00    +0.000 A 
ATOM     19  C   UNL     1       1.542   9.444  18.395  0.00  0.00    +0.000 A 
BRANCH  17  20
ATOM     20  S   UNL     1       0.630  12.712  20.691  0.00  0.00    +0.000 S 
ATOM     21  C   UNL     1       2.202  13.568  20.384  0.00  0.00    +0.000 C 
ENDBRANCH  17  20
ENDBRANCH  13  14
ENDBRANCH   4  13
BRANCH   5  22
ATOM     22  C   UNL     1       2.929   4.897  20.454  0.00  0.00    +0.000 C 
BRANCH  22  23
ATOM     23  N   UNL     1       2.631   3.476  20.147  0.00  0.00    +0.000 NA
ATOM     24  C   UNL     1       2.479   2.676  21.364  0.00  0.00    +0.000 C 
ATOM     25  C   UNL     1       1.399   3.387  19.355  0.00  0.00    +0.000 C 
ENDBRANCH  22  23
ENDBRANCH   5  22
TORSDOF 7
ENDMDL
