MODEL 1
REMARK VINA RESULT:      -8.6      0.000      0.000
REMARK  Name = 
REMARK  3 active torsions:
REMARK  status: ('A' for Active; 'I' for Inactive)
REMARK    1  A    between atoms: C_2  and  C_20
REMARK    2  A    between atoms: N_3  and  C_4
REMARK    3  A    between atoms: C_9  and  C_10
REMARK                            x       y       z     vdW  Elec       q    Type
REMARK                         _______ _______ _______ _____ _____    ______ ____
ROOT
ATOM      1  C   UNL     1       4.456   4.533  17.287  0.00  0.00    +0.000 A 
ATOM      2  C   UNL     1       4.461   3.415  18.122  0.00  0.00    +0.000 A 
ATOM      3  C   UNL     1       3.794   3.430  19.344  0.00  0.00    +0.000 A 
ATOM      4  C   UNL     1       3.109   4.570  19.763  0.00  0.00    +0.000 A 
ATOM      5 CL   UNL     1       2.224   4.409  21.244  0.00  0.00    +0.000 Cl
ATOM      6  C   UNL     1       3.122   5.733  18.973  0.00  0.00    +0.000 A 
ATOM      7  C   UNL     1       3.817   5.699  17.736  0.00  0.00    +0.000 A 
ENDROOT
BRANCH   6   8
ATOM      8  C   UNL     1       2.407   6.959  19.331  0.00  0.00    +0.000 A 
ATOM      9  N   UNL     1       1.870   7.296  20.494  0.00  0.00    +0.000 NA
ATOM     10  C   UNL     1       1.378   8.560  20.270  0.00  0.00    +0.000 A 
ATOM     11  C   UNL     1       0.732   9.467  21.121  0.00  0.00    +0.000 A 
ATOM     12  C   UNL     1       0.341  10.708  20.591  0.00  0.00    +0.000 A 
ATOM     13  C   UNL     1       0.589  11.037  19.252  0.00  0.00    +0.000 A 
ATOM     14  C   UNL     1       1.235  10.142  18.392  0.00  0.00    +0.000 A 
ATOM     15  C   UNL     1       1.599   8.925  18.955  0.00  0.00    +0.000 A 
ATOM     16  O   UNL     1       2.232   7.890  18.339  0.00  0.00    +0.000 OA
ENDBRANCH   6   8
BRANCH   1  19
ATOM     17  O   UNL     1       7.281   4.756  16.640  0.00  0.00    +0.000 OA
ATOM     18  C   UNL     1       6.427   4.664  15.764  0.00  0.00    +0.000 C 
ATOM     19  N   UNL     1       5.063   4.523  16.009  0.00  0.00    +0.000 N 
ATOM     20  H   UNL     1       4.492   4.279  15.206  0.00  0.00    +0.000 HD
BRANCH  18  21
ATOM     21  C   UNL     1       6.807   4.651  14.366  0.00  0.00    +0.000 A 
ATOM     22  C   UNL     1       6.343   3.845  13.342  0.00  0.00    +0.000 A 
ATOM     23  C   UNL     1       7.062   4.201  12.182  0.00  0.00    +0.000 A 
ATOM     24  C   UNL     1       7.923   5.203  12.564  0.00  0.00    +0.000 A 
ATOM     25  O   UNL     1       7.769   5.498  13.884  0.00  0.00    +0.000 OA
ENDBRANCH  18  21
ENDBRANCH   1  19
TORSDOF 3
ENDMDL
MODEL 2
REMARK VINA RESULT:      -8.5      0.742      1.250
REMARK  Name = 
REMARK  3 active torsions:
REMARK  status: ('A' for Active; 'I' for Inactive)
REMARK    1  A    between atoms: C_2  and  C_20
REMARK    2  A    between atoms: N_3  and  C_4
REMARK    3  A    between atoms: C_9  and  C_10
REMARK                            x       y       z     vdW  Elec       q    Type
REMARK                         _______ _______ _______ _____ _____    ______ ____
ROOT
ATOM      1  C   UNL     1       4.454   4.613  17.275  0.00  0.00    +0.000 A 
ATOM      2  C   UNL     1       4.452   3.503  18.121  0.00  0.00    +0.000 A 
ATOM      3  C   UNL     1       3.784   3.534  19.342  0.00  0.00    +0.000 A 
ATOM      4  C   UNL     1       3.104   4.682  19.749  0.00  0.00    +0.000 A 
ATOM      5 CL   UNL     1       2.217   4.540  21.230  0.00  0.00    +0.000 Cl
ATOM      6  C   UNL     1       3.125   5.837  18.947  0.00  0.00    +0.000 A 
ATOM      7  C   UNL     1       3.821   5.786  17.712  0.00  0.00    +0.000 A 
ENDROOT
BRANCH   6   8
ATOM      8  C   UNL     1       2.416   7.070  19.292  0.00  0.00    +0.000 A 
ATOM      9  N   UNL     1       2.202   8.140  18.543  0.00  0.00    +0.000 NA
ATOM     10  C   UNL     1       1.452   8.960  19.352  0.00  0.00    +0.000 A 
ATOM     11  C   UNL     1       0.880  10.218  19.123  0.00  0.00    +0.000 A 
ATOM     12  C   UNL     1       0.152  10.815  20.167  0.00  0.00    +0.000 A 
ATOM     13  C   UNL     1      -0.003  10.175  21.403  0.00  0.00    +0.000 A 
ATOM     14  C   UNL     1       0.562   8.917  21.645  0.00  0.00    +0.000 A 
ATOM     15  C   UNL     1       1.277   8.366  20.589  0.00  0.00    +0.000 A 
ATOM     16  O   UNL     1       1.919   7.167  20.567  0.00  0.00    +0.000 OA
ENDBRANCH   6   8
BRANCH   1  19
ATOM     17  O   UNL     1       7.284   4.789  16.630  0.00  0.00    +0.000 OA
ATOM     18  C   UNL     1       6.429   4.706  15.754  0.00  0.00    +0.000 C 
ATOM     19  N   UNL     1       5.063   4.587  15.998  0.00  0.00    +0.000 N 
ATOM     20  H   UNL     1       4.489   4.347  15.195  0.00  0.00    +0.000 HD
BRANCH  18  21
ATOM     21  C   UNL     1       6.810   4.680  14.356  0.00  0.00    +0.000 A 
ATOM     22  C   UNL     1       6.338   3.873  13.337  0.00  0.00    +0.000 A 
ATOM     23  C   UNL     1       7.063   4.213  12.176  0.00  0.00    +0.000 A 
ATOM     24  C   UNL     1       7.935   5.207  12.553  0.00  0.00    +0.000 A 
ATOM     25  O   UNL     1       7.783   5.512  13.871  0.00  0.00    +0.000 OA
ENDBRANCH  18  21
ENDBRANCH   1  19
TORSDOF 3
ENDMDL
MODEL 3
REMARK VINA RESULT:      -7.7      1.989      7.888
REMARK  Name = 
REMARK  3 active torsions:
REMARK  status: ('A' for Active; 'I' for Inactive)
REMARK    1  A    between atoms: C_2  and  C_20
REMARK    2  A    between atoms: N_3  and  C_4
REMARK    3  A    between atoms: C_9  and  C_10
REMARK                            x       y       z     vdW  Elec       q    Type
REMARK                         _______ _______ _______ _____ _____    ______ ____
ROOT
ATOM      1  C   UNL     1       1.858   5.470  20.536  0.00  0.00    +0.000 A 
ATOM      2  C   UNL     1       1.539   4.210  21.046  0.00  0.00    +0.000 A 
ATOM      3  C   UNL     1       2.133   3.059  20.535  0.00  0.00    +0.000 A 
ATOM      4  C   UNL     1       3.060   3.141  19.496  0.00  0.00    +0.000 A 
ATOM      5 CL   UNL     1       3.810   1.646  19.043  0.00  0.00    +0.000 Cl
ATOM      6  C   UNL     1       3.370   4.387  18.922  0.00  0.00    +0.000 A 
ATOM      7  C   UNL     1       2.745   5.546  19.451  0.00  0.00    +0.000 A 
ENDROOT
BRANCH   6   8
ATOM      8  C   UNL     1       4.350   4.558  17.848  0.00  0.00    +0.000 A 
ATOM      9  N   UNL     1       5.527   5.162  17.889  0.00  0.00    +0.000 NA
ATOM     10  C   UNL     1       6.030   4.980  16.622  0.00  0.00    +0.000 A 
ATOM     11  C   UNL     1       7.252   5.352  16.048  0.00  0.00    +0.000 A 
ATOM     12  C   UNL     1       7.481   5.016  14.703  0.00  0.00    +0.000 A 
ATOM     13  C   UNL     1       6.520   4.327  13.952  0.00  0.00    +0.000 A 
ATOM     14  C   UNL     1       5.295   3.948  14.513  0.00  0.00    +0.000 A 
ATOM     15  C   UNL     1       5.108   4.304  15.844  0.00  0.00    +0.000 A 
ATOM     16  O   UNL     1       4.015   4.057  16.615  0.00  0.00    +0.000 OA
ENDBRANCH   6   8
BRANCH   1  19
ATOM     17  O   UNL     1       1.916   8.146  19.402  0.00  0.00    +0.000 OA
ATOM     18  C   UNL     1       1.413   7.923  20.498  0.00  0.00    +0.000 C 
ATOM     19  N   UNL     1       1.326   6.661  21.081  0.00  0.00    +0.000 N 
ATOM     20  H   UNL     1       0.730   6.593  21.901  0.00  0.00    +0.000 HD
BRANCH  18  21
ATOM     21  C   UNL     1       0.815   8.999  21.264  0.00  0.00    +0.000 A 
ATOM     22  C   UNL     1       0.117   8.938  22.456  0.00  0.00    +0.000 A 
ATOM     23  C   UNL     1      -0.293  10.254  22.758  0.00  0.00    +0.000 A 
ATOM     24  C   UNL     1       0.178  11.041  21.734  0.00  0.00    +0.000 A 
ATOM     25  O   UNL     1       0.866  10.295  20.826  0.00  0.00    +0.000 OA
ENDBRANCH  18  21
ENDBRANCH   1  19
TORSDOF 3
ENDMDL
MODEL 4
REMARK VINA RESULT:      -7.6      1.848      7.802
REMARK  Name = 
REMARK  3 active torsions:
REMARK  status: ('A' for Active; 'I' for Inactive)
REMARK    1  A    between atoms: C_2  and  C_20
REMARK    2  A    between atoms: N_3  and  C_4
REMARK    3  A    between atoms: C_9  and  C_10
REMARK                            x       y       z     vdW  Elec       q    Type
REMARK                         _______ _______ _______ _____ _____    ______ ____
ROOT
ATOM      1  C   UNL     1       2.073   5.351  20.626  0.00  0.00    +0.000 A 
ATOM      2  C   UNL     1       1.942   4.166  21.352  0.00  0.00    +0.000 A 
ATOM      3  C   UNL     1       2.584   3.000  20.942  0.00  0.00    +0.000 A 
ATOM      4  C   UNL     1       3.370   2.992  19.789  0.00  0.00    +0.000 A 
ATOM      5 CL   UNL     1       4.206   1.509  19.466  0.00  0.00    +0.000 Cl
ATOM      6  C   UNL     1       3.486   4.152  19.004  0.00  0.00    +0.000 A 
ATOM      7  C   UNL     1       2.815   5.326  19.435  0.00  0.00    +0.000 A 
ENDROOT
BRANCH   6   8
ATOM      8  C   UNL     1       4.311   4.230  17.798  0.00  0.00    +0.000 A 
ATOM      9  N   UNL     1       4.070   3.731  16.596  0.00  0.00    +0.000 NA
ATOM     10  C   UNL     1       5.149   4.145  15.850  0.00  0.00    +0.000 A 
ATOM     11  C   UNL     1       5.461   3.971  14.496  0.00  0.00    +0.000 A 
ATOM     12  C   UNL     1       6.661   4.524  14.016  0.00  0.00    +0.000 A 
ATOM     13  C   UNL     1       7.523   5.233  14.862  0.00  0.00    +0.000 A 
ATOM     14  C   UNL     1       7.223   5.415  16.217  0.00  0.00    +0.000 A 
ATOM     15  C   UNL     1       6.031   4.848  16.650  0.00  0.00    +0.000 A 
ATOM     16  O   UNL     1       5.514   4.880  17.908  0.00  0.00    +0.000 OA
ENDBRANCH   6   8
BRANCH   1  19
ATOM     17  O   UNL     1       2.140   7.939  19.304  0.00  0.00    +0.000 OA
ATOM     18  C   UNL     1       1.586   7.785  20.388  0.00  0.00    +0.000 C 
ATOM     19  N   UNL     1       1.492   6.567  21.056  0.00  0.00    +0.000 N 
ATOM     20  H   UNL     1       0.857   6.545  21.849  0.00  0.00    +0.000 HD
BRANCH  18  21
ATOM     21  C   UNL     1       0.931   8.900  21.043  0.00  0.00    +0.000 A 
ATOM     22  C   UNL     1       0.066   8.893  22.122  0.00  0.00    +0.000 A 
ATOM     23  C   UNL     1      -0.325  10.230  22.343  0.00  0.00    +0.000 A 
ATOM     24  C   UNL     1       0.323  10.976  21.386  0.00  0.00    +0.000 A 
ATOM     25  O   UNL     1       1.101  10.184  20.598  0.00  0.00    +0.000 OA
ENDBRANCH  18  21
ENDBRANCH   1  19
TORSDOF 3
ENDMDL
MODEL 5
REMARK VINA RESULT:      -7.5      4.459      6.260
REMARK  Name = 
REMARK  3 active torsions:
REMARK  status: ('A' for Active; 'I' for Inactive)
REMARK    1  A    between atoms: C_2  and  C_20
REMARK    2  A    between atoms: N_3  and  C_4
REMARK    3  A    between atoms: C_9  and  C_10
REMARK                            x       y       z     vdW  Elec       q    Type
REMARK                         _______ _______ _______ _____ _____    ______ ____
ROOT
ATOM      1  C   UNL     1       7.496   6.595  17.720  0.00  0.00    +0.000 A 
ATOM      2  C   UNL     1       7.732   6.155  16.417  0.00  0.00    +0.000 A 
ATOM      3  C   UNL     1       6.980   5.122  15.862  0.00  0.00    +0.000 A 
ATOM      4  C   UNL     1       5.976   4.500  16.603  0.00  0.00    +0.000 A 
ATOM      5 CL   UNL     1       5.040   3.317  15.749  0.00  0.00    +0.000 Cl
ATOM      6  C   UNL     1       5.741   4.881  17.936  0.00  0.00    +0.000 A 
ATOM      7  C   UNL     1       6.526   5.929  18.484  0.00  0.00    +0.000 A 
ENDROOT
BRANCH   6   8
ATOM      8  C   UNL     1       4.689   4.295  18.768  0.00  0.00    +0.000 A 
ATOM      9  N   UNL     1       4.807   3.434  19.767  0.00  0.00    +0.000 NA
ATOM     10  C   UNL     1       3.515   3.271  20.209  0.00  0.00    +0.000 A 
ATOM     11  C   UNL     1       2.984   2.517  21.264  0.00  0.00    +0.000 A 
ATOM     12  C   UNL     1       1.595   2.555  21.472  0.00  0.00    +0.000 A 
ATOM     13  C   UNL     1       0.759   3.325  20.653  0.00  0.00    +0.000 A 
ATOM     14  C   UNL     1       1.276   4.084  19.596  0.00  0.00    +0.000 A 
ATOM     15  C   UNL     1       2.652   4.013  19.423  0.00  0.00    +0.000 A 
ATOM     16  O   UNL     1       3.396   4.649  18.478  0.00  0.00    +0.000 OA
ENDBRANCH   6   8
BRANCH   1  19
ATOM     17  O   UNL     1       7.187   9.423  17.123  0.00  0.00    +0.000 OA
ATOM     18  C   UNL     1       8.018   9.024  17.932  0.00  0.00    +0.000 C 
ATOM     19  N   UNL     1       8.193   7.688  18.285  0.00  0.00    +0.000 N 
ATOM     20  H   UNL     1       8.786   7.518  19.092  0.00  0.00    +0.000 HD
BRANCH  18  21
ATOM     21  C   UNL     1       8.871   9.964  18.632  0.00  0.00    +0.000 A 
ATOM     22  C   UNL     1       9.732  10.915  18.114  0.00  0.00    +0.000 A 
ATOM     23  C   UNL     1      10.361  11.539  19.212  0.00  0.00    +0.000 A 
ATOM     24  C   UNL     1       9.848  10.933  20.335  0.00  0.00    +0.000 A 
ATOM     25  O   UNL     1       8.932   9.985  20.000  0.00  0.00    +0.000 OA
ENDBRANCH  18  21
ENDBRANCH   1  19
TORSDOF 3
ENDMDL
MODEL 6
REMARK VINA RESULT:      -7.4      4.232      6.076
REMARK  Name = 
REMARK  3 active torsions:
REMARK  status: ('A' for Active; 'I' for Inactive)
REMARK    1  A    between atoms: C_2  and  C_20
REMARK    2  A    between atoms: N_3  and  C_4
REMARK    3  A    between atoms: C_9  and  C_10
REMARK                            x       y       z     vdW  Elec       q    Type
REMARK                         _______ _______ _______ _____ _____    ______ ____
ROOT
ATOM      1  C   UNL     1       6.991   6.765  16.901  0.00  0.00    +0.000 A 
ATOM      2  C   UNL     1       7.477   6.013  15.830  0.00  0.00    +0.000 A 
ATOM      3  C   UNL     1       6.905   4.787  15.497  0.00  0.00    +0.000 A 
ATOM      4  C   UNL     1       5.833   4.282  16.234  0.00  0.00    +0.000 A 
ATOM      5 CL   UNL     1       5.143   2.810  15.635  0.00  0.00    +0.000 Cl
ATOM      6  C   UNL     1       5.348   4.986  17.350  0.00  0.00    +0.000 A 
ATOM      7  C   UNL     1       5.952   6.228  17.677  0.00  0.00    +0.000 A 
ENDROOT
BRANCH   6   8
ATOM      8  C   UNL     1       4.212   4.536  18.155  0.00  0.00    +0.000 A 
ATOM      9  N   UNL     1       2.926   4.524  17.841  0.00  0.00    +0.000 NA
ATOM     10  C   UNL     1       2.327   3.960  18.942  0.00  0.00    +0.000 A 
ATOM     11  C   UNL     1       0.990   3.640  19.209  0.00  0.00    +0.000 A 
ATOM     12  C   UNL     1       0.683   3.057  20.450  0.00  0.00    +0.000 A 
ATOM     13  C   UNL     1       1.681   2.798  21.398  0.00  0.00    +0.000 A 
ATOM     14  C   UNL     1       3.021   3.111  21.145  0.00  0.00    +0.000 A 
ATOM     15  C   UNL     1       3.280   3.690  19.908  0.00  0.00    +0.000 A 
ATOM     16  O   UNL     1       4.487   4.086  19.421  0.00  0.00    +0.000 OA
ENDBRANCH   6   8
BRANCH   1  19
ATOM     17  O   UNL     1       8.714   7.509  19.121  0.00  0.00    +0.000 OA
ATOM     18  C   UNL     1       8.304   8.341  18.318  0.00  0.00    +0.000 C 
ATOM     19  N   UNL     1       7.504   8.044  17.218  0.00  0.00    +0.000 N 
ATOM     20  H   UNL     1       7.387   8.792  16.541  0.00  0.00    +0.000 HD
BRANCH  18  21
ATOM     21  C   UNL     1       8.682   9.734  18.448  0.00  0.00    +0.000 A 
ATOM     22  C   UNL     1       9.428  10.348  19.438  0.00  0.00    +0.000 A 
ATOM     23  C   UNL     1       9.473  11.723  19.124  0.00  0.00    +0.000 A 
ATOM     24  C   UNL     1       8.753  11.869  17.962  0.00  0.00    +0.000 A 
ATOM     25  O   UNL     1       8.279  10.667  17.531  0.00  0.00    +0.000 OA
ENDBRANCH  18  21
ENDBRANCH   1  19
TORSDOF 3
ENDMDL
MODEL 7
REMARK VINA RESULT:      -7.3      4.222      6.024
REMARK  Name = 
REMARK  3 active torsions:
REMARK  status: ('A' for Active; 'I' for Inactive)
REMARK    1  A    between atoms: C_2  and  C_20
REMARK    2  A    between atoms: N_3  and  C_4
REMARK    3  A    between atoms: C_9  and  C_10
REMARK                            x       y       z     vdW  Elec       q    Type
REMARK                         _______ _______ _______ _____ _____    ______ ____
ROOT
ATOM      1  C   UNL     1       6.995   6.720  16.841  0.00  0.00    +0.000 A 
ATOM      2  C   UNL     1       7.415   6.027  15.704  0.00  0.00    +0.000 A 
ATOM      3  C   UNL     1       6.876   4.784  15.384  0.00  0.00    +0.000 A 
ATOM      4  C   UNL     1       5.905   4.201  16.198  0.00  0.00    +0.000 A 
ATOM      5 CL   UNL     1       5.235   2.713  15.615  0.00  0.00    +0.000 Cl
ATOM      6  C   UNL     1       5.492   4.845  17.378  0.00  0.00    +0.000 A 
ATOM      7  C   UNL     1       6.062   6.106  17.690  0.00  0.00    +0.000 A 
ENDROOT
BRANCH   6   8
ATOM      8  C   UNL     1       4.461   4.311  18.269  0.00  0.00    +0.000 A 
ATOM      9  N   UNL     1       4.597   3.816  19.489  0.00  0.00    +0.000 NA
ATOM     10  C   UNL     1       3.308   3.515  19.863  0.00  0.00    +0.000 A 
ATOM     11  C   UNL     1       2.785   2.998  21.056  0.00  0.00    +0.000 A 
ATOM     12  C   UNL     1       1.397   2.798  21.138  0.00  0.00    +0.000 A 
ATOM     13  C   UNL     1       0.553   3.107  20.063  0.00  0.00    +0.000 A 
ATOM     14  C   UNL     1       1.062   3.625  18.866  0.00  0.00    +0.000 A 
ATOM     15  C   UNL     1       2.439   3.802  18.826  0.00  0.00    +0.000 A 
ATOM     16  O   UNL     1       3.177   4.285  17.790  0.00  0.00    +0.000 OA
ENDBRANCH   6   8
BRANCH   1  19
ATOM     17  O   UNL     1       8.713   7.518  19.046  0.00  0.00    +0.000 OA
ATOM     18  C   UNL     1       8.271   8.337  18.246  0.00  0.00    +0.000 C 
ATOM     19  N   UNL     1       7.471   8.015  17.153  0.00  0.00    +0.000 N 
ATOM     20  H   UNL     1       7.327   8.759  16.476  0.00  0.00    +0.000 HD
BRANCH  18  21
ATOM     21  C   UNL     1       8.608   9.741  18.372  0.00  0.00    +0.000 A 
ATOM     22  C   UNL     1       9.339  10.379  19.357  0.00  0.00    +0.000 A 
ATOM     23  C   UNL     1       9.341  11.754  19.042  0.00  0.00    +0.000 A 
ATOM     24  C   UNL     1       8.611  11.876  17.883  0.00  0.00    +0.000 A 
ATOM     25  O   UNL     1       8.171  10.661  17.456  0.00  0.00    +0.000 OA
ENDBRANCH  18  21
ENDBRANCH   1  19
TORSDOF 3
ENDMDL
MODEL 8
REMARK VINA RESULT:      -7.3      4.518      6.311
REMARK  Name = 
REMARK  3 active torsions:
REMARK  status: ('A' for Active; 'I' for Inactive)
REMARK    1  A    between atoms: C_2  and  C_20
REMARK    2  A    between atoms: N_3  and  C_4
REMARK    3  A    between atoms: C_9  and  C_10
REMARK                            x       y       z     vdW  Elec       q    Type
REMARK                         _______ _______ _______ _____ _____    ______ ____
ROOT
ATOM      1  C   UNL     1       7.435   6.774  17.723  0.00  0.00    +0.000 A 
ATOM      2  C   UNL     1       7.697   6.282  16.443  0.00  0.00    +0.000 A 
ATOM      3  C   UNL     1       6.894   5.295  15.877  0.00  0.00    +0.000 A 
ATOM      4  C   UNL     1       5.810   4.772  16.582  0.00  0.00    +0.000 A 
ATOM      5 CL   UNL     1       4.827   3.642  15.711  0.00  0.00    +0.000 Cl
ATOM      6  C   UNL     1       5.543   5.207  17.892  0.00  0.00    +0.000 A 
ATOM      7  C   UNL     1       6.380   6.206  18.453  0.00  0.00    +0.000 A 
ENDROOT
BRANCH   6   8
ATOM      8  C   UNL     1       4.411   4.727  18.685  0.00  0.00    +0.000 A 
ATOM      9  N   UNL     1       3.144   5.109  18.637  0.00  0.00    +0.000 NA
ATOM     10  C   UNL     1       2.525   4.299  19.559  0.00  0.00    +0.000 A 
ATOM     11  C   UNL     1       1.182   4.189  19.944  0.00  0.00    +0.000 A 
ATOM     12  C   UNL     1       0.851   3.246  20.932  0.00  0.00    +0.000 A 
ATOM     13  C   UNL     1       1.830   2.434  21.518  0.00  0.00    +0.000 A 
ATOM     14  C   UNL     1       3.175   2.532  21.143  0.00  0.00    +0.000 A 
ATOM     15  C   UNL     1       3.459   3.480  20.167  0.00  0.00    +0.000 A 
ATOM     16  O   UNL     1       4.675   3.771  19.633  0.00  0.00    +0.000 OA
ENDBRANCH   6   8
BRANCH   1  19
ATOM     17  O   UNL     1       7.287   9.616  17.131  0.00  0.00    +0.000 OA
ATOM     18  C   UNL     1       8.089   9.170  17.945  0.00  0.00    +0.000 C 
ATOM     19  N   UNL     1       8.188   7.826  18.295  0.00  0.00    +0.000 N 
ATOM     20  H   UNL     1       8.765   7.621  19.105  0.00  0.00    +0.000 HD
BRANCH  18  21
ATOM     21  C   UNL     1       8.989  10.059  18.653  0.00  0.00    +0.000 A 
ATOM     22  C   UNL     1       9.931  10.935  18.144  0.00  0.00    +0.000 A 
ATOM     23  C   UNL     1      10.573  11.533  19.248  0.00  0.00    +0.000 A 
ATOM     24  C   UNL     1       9.986  10.989  20.366  0.00  0.00    +0.000 A 
ATOM     25  O   UNL     1       9.012  10.103  20.021  0.00  0.00    +0.000 OA
ENDBRANCH  18  21
ENDBRANCH   1  19
TORSDOF 3
ENDMDL
MODEL 9
REMARK VINA RESULT:      -7.3      2.078      3.067
REMARK  Name = 
REMARK  3 active torsions:
REMARK  status: ('A' for Active; 'I' for Inactive)
REMARK    1  A    between atoms: C_2  and  C_20
REMARK    2  A    between atoms: N_3  and  C_4
REMARK    3  A    between atoms: C_9  and  C_10
REMARK                            x       y       z     vdW  Elec       q    Type
REMARK                         _______ _______ _______ _____ _____    ______ ____
ROOT
ATOM      1  C   UNL     1       3.062   6.567  18.329  0.00  0.00    +0.000 A 
ATOM      2  C   UNL     1       2.760   5.844  19.485  0.00  0.00    +0.000 A 
ATOM      3  C   UNL     1       1.967   6.394  20.488  0.00  0.00    +0.000 A 
ATOM      4  C   UNL     1       1.460   7.687  20.361  0.00  0.00    +0.000 A 
ATOM      5 CL   UNL     1       0.390   8.199  21.625  0.00  0.00    +0.000 Cl
ATOM      6  C   UNL     1       1.782   8.466  19.235  0.00  0.00    +0.000 A 
ATOM      7  C   UNL     1       2.600   7.888  18.229  0.00  0.00    +0.000 A 
ENDROOT
BRANCH   6   8
ATOM      8  C   UNL     1       1.268   9.818  19.016  0.00  0.00    +0.000 A 
ATOM      9  N   UNL     1       0.010  10.222  18.923  0.00  0.00    +0.000 NA
ATOM     10  C   UNL     1       0.117  11.584  18.767  0.00  0.00    +0.000 A 
ATOM     11  C   UNL     1      -0.859  12.583  18.653  0.00  0.00    +0.000 A 
ATOM     12  C   UNL     1      -0.430  13.913  18.504  0.00  0.00    +0.000 A 
ATOM     13  C   UNL     1       0.932  14.238  18.473  0.00  0.00    +0.000 A 
ATOM     14  C   UNL     1       1.917  13.250  18.588  0.00  0.00    +0.000 A 
ATOM     15  C   UNL     1       1.450  11.949  18.728  0.00  0.00    +0.000 A 
ATOM     16  O   UNL     1       2.194  10.818  18.856  0.00  0.00    +0.000 OA
ENDBRANCH   6   8
BRANCH   1  19
ATOM     17  O   UNL     1       5.921   6.058  18.205  0.00  0.00    +0.000 OA
ATOM     18  C   UNL     1       5.183   5.817  17.255  0.00  0.00    +0.000 C 
ATOM     19  N   UNL     1       3.804   6.009  17.262  0.00  0.00    +0.000 N 
ATOM     20  H   UNL     1       3.297   5.603  16.482  0.00  0.00    +0.000 HD
BRANCH  18  21
ATOM     21  C   UNL     1       5.721   5.254  16.032  0.00  0.00    +0.000 A 
ATOM     22  C   UNL     1       5.305   4.138  15.328  0.00  0.00    +0.000 A 
ATOM     23  C   UNL     1       6.185   3.991  14.236  0.00  0.00    +0.000 A 
ATOM     24  C   UNL     1       7.087   5.024  14.336  0.00  0.00    +0.000 A 
ATOM     25  O   UNL     1       6.809   5.808  15.413  0.00  0.00    +0.000 OA
ENDBRANCH  18  21
ENDBRANCH   1  19
TORSDOF 3
ENDMDL
