MODEL 1
REMARK VINA RESULT:      -8.6      0.000      0.000
REMARK  Name = 
REMARK  9 active torsions:
REMARK  status: ('A' for Active; 'I' for Inactive)
REMARK    1  A    between atoms: C_1  and  O_2
REMARK    2  A    between atoms: O_2  and  C_3
REMARK    3  A    between atoms: C_5  and  C_6
REMARK    4  A    between atoms: C_14  and  O_15
REMARK    5  A    between atoms: O_15  and  C_16
REMARK    6  A    between atoms: C_16  and  C_17
REMARK    7  A    between atoms: C_16  and  C_18
REMARK    8  A    between atoms: C_27  and  O_28
REMARK    9  A    between atoms: O_28  and  C_29
REMARK                            x       y       z     vdW  Elec       q    Type
REMARK                         _______ _______ _______ _____ _____    ______ ____
ROOT
ATOM      1  C   UNL     1       2.492   6.637  19.125  0.00  0.00    +0.000 A 
ATOM      2  C   UNL     1       2.190   5.714  20.121  0.00  0.00    +0.000 A 
ATOM      3  C   UNL     1       2.824   4.512  20.170  0.00  0.00    +0.000 A 
ATOM      4  N   UNL     1       2.462   3.715  21.191  0.00  0.00    +0.000 NA
ATOM      5  C   UNL     1       3.062   2.521  21.317  0.00  0.00    +0.000 A 
ATOM      6  C   UNL     1       4.033   2.077  20.444  0.00  0.00    +0.000 A 
ATOM      7  C   UNL     1       4.389   2.901  19.366  0.00  0.00    +0.000 A 
ATOM      8  C   UNL     1       3.778   4.170  19.191  0.00  0.00    +0.000 A 
ATOM      9  C   UNL     1       3.986   5.131  18.165  0.00  0.00    +0.000 A 
ATOM     10  N   UNL     1       3.390   6.349  18.164  0.00  0.00    +0.000 NA
ENDROOT
BRANCH   1  13
ATOM     11  C   UNL     1       1.156   9.979  20.381  0.00  0.00    +0.000 A 
ATOM     12  C   UNL     1       1.458   8.608  20.307  0.00  0.00    +0.000 A 
ATOM     13  C   UNL     1       1.925   8.000  19.124  0.00  0.00    +0.000 A 
ATOM     14  C   UNL     1       1.933   8.784  17.965  0.00  0.00    +0.000 A 
ATOM     15  C   UNL     1       1.554  10.127  18.009  0.00  0.00    +0.000 A 
ATOM     16  C   UNL     1       1.173  10.741  19.210  0.00  0.00    +0.000 A 
BRANCH  11  18
ATOM     17  C   UNL     1      -0.410  10.508  22.089  0.00  0.00    +0.000 C 
ATOM     18  O   UNL     1       0.915  10.613  21.570  0.00  0.00    +0.000 OA
ENDBRANCH  11  18
BRANCH  16  19
ATOM     19  O   UNL     1       1.011  12.084  19.074  0.00  0.00    +0.000 OA
BRANCH  19  20
ATOM     20  C   UNL     1      -0.259  12.711  19.065  0.00  0.00    +0.000 C 
ATOM     21  F   UNL     1      -0.575  13.411  20.168  0.00  0.00    +0.000 F 
ATOM     22  F   UNL     1      -0.356  13.504  17.974  0.00  0.00    +0.000 F 
ATOM     23  F   UNL     1      -1.192  11.734  18.935  0.00  0.00    +0.000 F 
ENDBRANCH  19  20
ENDBRANCH  16  19
ENDBRANCH   1  13
BRANCH   9  24
ATOM     24  O   UNL     1       4.824   4.856  17.077  0.00  0.00    +0.000 OA
BRANCH  24  25
ATOM     25  C   UNL     1       5.566   6.021  16.615  0.00  0.00    +0.000 C 
ATOM     26  C   UNL     1       5.423   6.173  15.090  0.00  0.00    +0.000 C 
BRANCH  25  27
ATOM     27  C   UNL     1       7.080   5.985  16.960  0.00  0.00    +0.000 C 
ATOM     28  C   UNL     1       7.632   7.287  17.533  0.00  0.00    +0.000 C 
ATOM     29  N   UNL     1       8.160   6.951  18.816  0.00  0.00    +0.000 N 
ATOM     30  C   UNL     1       8.114   5.613  19.103  0.00  0.00    +0.000 C 
ATOM     31  O   UNL     1       8.534   5.102  20.126  0.00  0.00    +0.000 OA
ATOM     32  C   UNL     1       7.500   4.885  17.943  0.00  0.00    +0.000 C 
ATOM     33  H   UNL     1       8.595   7.598  19.462  0.00  0.00    +0.000 HD
ENDBRANCH  25  27
ENDBRANCH  24  25
ENDBRANCH   9  24
TORSDOF 7
ENDMDL
MODEL 2
REMARK VINA RESULT:      -8.5      1.181      1.308
REMARK  Name = 
REMARK  9 active torsions:
REMARK  status: ('A' for Active; 'I' for Inactive)
REMARK    1  A    between atoms: C_1  and  O_2
REMARK    2  A    between atoms: O_2  and  C_3
REMARK    3  A    between atoms: C_5  and  C_6
REMARK    4  A    between atoms: C_14  and  O_15
REMARK    5  A    between atoms: O_15  and  C_16
REMARK    6  A    between atoms: C_16  and  C_17
REMARK    7  A    between atoms: C_16  and  C_18
REMARK    8  A    between atoms: C_27  and  O_28
REMARK    9  A    between atoms: O_28  and  C_29
REMARK                            x       y       z     vdW  Elec       q    Type
REMARK                         _______ _______ _______ _____ _____    ______ ____
ROOT
ATOM      1  C   UNL     1       2.199   7.112  19.377  0.00  0.00    +0.000 A 
ATOM      2  C   UNL     1       1.894   6.162  20.346  0.00  0.00    +0.000 A 
ATOM      3  C   UNL     1       2.495   4.942  20.338  0.00  0.00    +0.000 A 
ATOM      4  N   UNL     1       2.135   4.119  21.339  0.00  0.00    +0.000 NA
ATOM      5  C   UNL     1       2.703   2.905  21.408  0.00  0.00    +0.000 A 
ATOM      6  C   UNL     1       3.641   2.467  20.497  0.00  0.00    +0.000 A 
ATOM      7  C   UNL     1       3.995   3.318  19.441  0.00  0.00    +0.000 A 
ATOM      8  C   UNL     1       3.416   4.610  19.325  0.00  0.00    +0.000 A 
ATOM      9  C   UNL     1       3.627   5.601  18.329  0.00  0.00    +0.000 A 
ATOM     10  N   UNL     1       3.067   6.834  18.386  0.00  0.00    +0.000 NA
ENDROOT
BRANCH   1  13
ATOM     11  C   UNL     1       0.847  10.388  20.780  0.00  0.00    +0.000 A 
ATOM     12  C   UNL     1       1.118   9.017  20.621  0.00  0.00    +0.000 A 
ATOM     13  C   UNL     1       1.670   8.488  19.437  0.00  0.00    +0.000 A 
ATOM     14  C   UNL     1       1.802   9.360  18.351  0.00  0.00    +0.000 A 
ATOM     15  C   UNL     1       1.457  10.707  18.471  0.00  0.00    +0.000 A 
ATOM     16  C   UNL     1       0.987  11.238  19.680  0.00  0.00    +0.000 A 
BRANCH  11  18
ATOM     17  C   UNL     1      -0.449  10.228  22.766  0.00  0.00    +0.000 C 
ATOM     18  O   UNL     1       0.519  10.934  21.991  0.00  0.00    +0.000 OA
ENDBRANCH  11  18
BRANCH  16  19
ATOM     19  O   UNL     1       0.873  12.592  19.640  0.00  0.00    +0.000 OA
BRANCH  19  20
ATOM     20  C   UNL     1       1.842  13.464  20.195  0.00  0.00    +0.000 C 
ATOM     21  F   UNL     1       2.911  12.871  20.756  0.00  0.00    +0.000 F 
ATOM     22  F   UNL     1       2.248  14.339  19.248  0.00  0.00    +0.000 F 
ATOM     23  F   UNL     1       1.230  14.183  21.170  0.00  0.00    +0.000 F 
ENDBRANCH  19  20
ENDBRANCH  16  19
ENDBRANCH   1  13
BRANCH   9  24
ATOM     24  O   UNL     1       4.433   5.342  17.212  0.00  0.00    +0.000 OA
BRANCH  24  25
ATOM     25  C   UNL     1       5.340   6.436  16.893  0.00  0.00    +0.000 C 
ATOM     26  C   UNL     1       5.217   6.812  15.405  0.00  0.00    +0.000 C 
BRANCH  25  27
ATOM     27  C   UNL     1       6.832   6.131  17.195  0.00  0.00    +0.000 C 
ATOM     28  C   UNL     1       7.649   7.338  17.646  0.00  0.00    +0.000 C 
ATOM     29  N   UNL     1       8.159   7.000  18.936  0.00  0.00    +0.000 N 
ATOM     30  C   UNL     1       7.869   5.720  19.329  0.00  0.00    +0.000 C 
ATOM     31  O   UNL     1       8.227   5.213  20.377  0.00  0.00    +0.000 OA
ATOM     32  C   UNL     1       7.075   5.045  18.250  0.00  0.00    +0.000 C 
ATOM     33  H   UNL     1       8.737   7.595  19.515  0.00  0.00    +0.000 HD
ENDBRANCH  25  27
ENDBRANCH  24  25
ENDBRANCH   9  24
TORSDOF 7
ENDMDL
MODEL 3
REMARK VINA RESULT:      -8.4      1.963      4.497
REMARK  Name = 
REMARK  9 active torsions:
REMARK  status: ('A' for Active; 'I' for Inactive)
REMARK    1  A    between atoms: C_1  and  O_2
REMARK    2  A    between atoms: O_2  and  C_3
REMARK    3  A    between atoms: C_5  and  C_6
REMARK    4  A    between atoms: C_14  and  O_15
REMARK    5  A    between atoms: O_15  and  C_16
REMARK    6  A    between atoms: C_16  and  C_17
REMARK    7  A    between atoms: C_16  and  C_18
REMARK    8  A    between atoms: C_27  and  O_28
REMARK    9  A    between atoms: O_28  and  C_29
REMARK                            x       y       z     vdW  Elec       q    Type
REMARK                         _______ _______ _______ _____ _____    ______ ____
ROOT
ATOM      1  C   UNL     1       3.586   6.577  17.878  0.00  0.00    +0.000 A 
ATOM      2  C   UNL     1       4.348   6.808  16.737  0.00  0.00    +0.000 A 
ATOM      3  C   UNL     1       5.129   5.826  16.212  0.00  0.00    +0.000 A 
ATOM      4  N   UNL     1       5.801   6.163  15.097  0.00  0.00    +0.000 NA
ATOM      5  C   UNL     1       6.576   5.239  14.510  0.00  0.00    +0.000 A 
ATOM      6  C   UNL     1       6.713   3.958  15.002  0.00  0.00    +0.000 A 
ATOM      7  C   UNL     1       6.031   3.618  16.179  0.00  0.00    +0.000 A 
ATOM      8  C   UNL     1       5.203   4.565  16.837  0.00  0.00    +0.000 A 
ATOM      9  C   UNL     1       4.453   4.422  18.035  0.00  0.00    +0.000 A 
ATOM     10  N   UNL     1       3.632   5.390  18.512  0.00  0.00    +0.000 NA
ENDROOT
BRANCH   1  13
ATOM     11  C   UNL     1       1.415   8.567  20.298  0.00  0.00    +0.000 A 
ATOM     12  C   UNL     1       2.121   7.505  19.705  0.00  0.00    +0.000 A 
ATOM     13  C   UNL     1       2.625   7.573  18.391  0.00  0.00    +0.000 A 
ATOM     14  C   UNL     1       2.266   8.689  17.628  0.00  0.00    +0.000 A 
ATOM     15  C   UNL     1       1.494   9.713  18.179  0.00  0.00    +0.000 A 
ATOM     16  C   UNL     1       1.068   9.671  19.515  0.00  0.00    +0.000 A 
BRANCH  11  18
ATOM     17  C   UNL     1      -0.259   8.423  21.980  0.00  0.00    +0.000 C 
ATOM     18  O   UNL     1       1.115   8.593  21.633  0.00  0.00    +0.000 OA
ENDBRANCH  11  18
BRANCH  16  19
ATOM     19  O   UNL     1       0.482  10.833  19.906  0.00  0.00    +0.000 OA
BRANCH  19  20
ATOM     20  C   UNL     1      -0.861  11.161  19.598  0.00  0.00    +0.000 C 
ATOM     21  F   UNL     1      -1.588  10.182  19.032  0.00  0.00    +0.000 F 
ATOM     22  F   UNL     1      -1.478  11.604  20.716  0.00  0.00    +0.000 F 
ATOM     23  F   UNL     1      -0.834  12.195  18.718  0.00  0.00    +0.000 F 
ENDBRANCH  19  20
ENDBRANCH  16  19
ENDBRANCH   1  13
BRANCH   9  24
ATOM     24  O   UNL     1       4.538   3.254  18.805  0.00  0.00    +0.000 OA
BRANCH  24  25
ATOM     25  C   UNL     1       3.446   2.323  18.554  0.00  0.00    +0.000 C 
ATOM     26  C   UNL     1       2.747   2.666  17.226  0.00  0.00    +0.000 C 
BRANCH  25  27
ATOM     27  C   UNL     1       2.372   2.290  19.675  0.00  0.00    +0.000 C 
ATOM     28  C   UNL     1       2.869   2.741  21.045  0.00  0.00    +0.000 C 
ATOM     29  N   UNL     1       2.048   3.851  21.409  0.00  0.00    +0.000 N 
ATOM     30  C   UNL     1       1.040   4.110  20.519  0.00  0.00    +0.000 C 
ATOM     31  O   UNL     1       0.207   4.990  20.644  0.00  0.00    +0.000 OA
ATOM     32  C   UNL     1       1.112   3.118  19.396  0.00  0.00    +0.000 C 
ATOM     33  H   UNL     1       2.127   4.387  22.264  0.00  0.00    +0.000 HD
ENDBRANCH  25  27
ENDBRANCH  24  25
ENDBRANCH   9  24
TORSDOF 7
ENDMDL
MODEL 4
REMARK VINA RESULT:      -8.4      2.092      4.549
REMARK  Name = 
REMARK  9 active torsions:
REMARK  status: ('A' for Active; 'I' for Inactive)
REMARK    1  A    between atoms: C_1  and  O_2
REMARK    2  A    between atoms: O_2  and  C_3
REMARK    3  A    between atoms: C_5  and  C_6
REMARK    4  A    between atoms: C_14  and  O_15
REMARK    5  A    between atoms: O_15  and  C_16
REMARK    6  A    between atoms: C_16  and  C_17
REMARK    7  A    between atoms: C_16  and  C_18
REMARK    8  A    between atoms: C_27  and  O_28
REMARK    9  A    between atoms: O_28  and  C_29
REMARK                            x       y       z     vdW  Elec       q    Type
REMARK                         _______ _______ _______ _____ _____    ______ ____
ROOT
ATOM      1  C   UNL     1       3.696   6.802  17.904  0.00  0.00    +0.000 A 
ATOM      2  C   UNL     1       4.287   6.918  16.650  0.00  0.00    +0.000 A 
ATOM      3  C   UNL     1       5.113   5.947  16.178  0.00  0.00    +0.000 A 
ATOM      4  N   UNL     1       5.605   6.163  14.945  0.00  0.00    +0.000 NA
ATOM      5  C   UNL     1       6.412   5.236  14.405  0.00  0.00    +0.000 A 
ATOM      6  C   UNL     1       6.758   4.074  15.060  0.00  0.00    +0.000 A 
ATOM      7  C   UNL     1       6.263   3.865  16.356  0.00  0.00    +0.000 A 
ATOM      8  C   UNL     1       5.410   4.819  16.969  0.00  0.00    +0.000 A 
ATOM      9  C   UNL     1       4.828   4.800  18.265  0.00  0.00    +0.000 A 
ATOM     10  N   UNL     1       3.958   5.746  18.696  0.00  0.00    +0.000 NA
ENDROOT
BRANCH   1  13
ATOM     11  C   UNL     1       1.366   8.701  20.249  0.00  0.00    +0.000 A 
ATOM     12  C   UNL     1       2.124   7.665  19.674  0.00  0.00    +0.000 A 
ATOM     13  C   UNL     1       2.689   7.767  18.386  0.00  0.00    +0.000 A 
ATOM     14  C   UNL     1       2.341   8.888  17.625  0.00  0.00    +0.000 A 
ATOM     15  C   UNL     1       1.519   9.884  18.155  0.00  0.00    +0.000 A 
ATOM     16  C   UNL     1       1.032   9.810  19.468  0.00  0.00    +0.000 A 
BRANCH  11  18
ATOM     17  C   UNL     1      -0.337   8.301  21.858  0.00  0.00    +0.000 C 
ATOM     18  O   UNL     1       1.003   8.697  21.568  0.00  0.00    +0.000 OA
ENDBRANCH  11  18
BRANCH  16  19
ATOM     19  O   UNL     1       0.401  10.952  19.849  0.00  0.00    +0.000 OA
BRANCH  19  20
ATOM     20  C   UNL     1      -0.992  11.153  19.691  0.00  0.00    +0.000 C 
ATOM     21  F   UNL     1      -1.686  11.369  20.823  0.00  0.00    +0.000 F 
ATOM     22  F   UNL     1      -1.199  12.171  18.825  0.00  0.00    +0.000 F 
ATOM     23  F   UNL     1      -1.501  10.032  19.121  0.00  0.00    +0.000 F 
ENDBRANCH  19  20
ENDBRANCH  16  19
ENDBRANCH   1  13
BRANCH   9  24
ATOM     24  O   UNL     1       5.141   3.788  19.182  0.00  0.00    +0.000 OA
BRANCH  24  25
ATOM     25  C   UNL     1       4.020   2.902  19.464  0.00  0.00    +0.000 C 
ATOM     26  C   UNL     1       3.529   2.236  18.165  0.00  0.00    +0.000 C 
BRANCH  25  27
ATOM     27  C   UNL     1       2.809   3.606  20.136  0.00  0.00    +0.000 C 
ATOM     28  C   UNL     1       1.461   3.305  19.490  0.00  0.00    +0.000 C 
ATOM     29  N   UNL     1       0.660   2.726  20.521  0.00  0.00    +0.000 N 
ATOM     30  C   UNL     1       1.266   2.705  21.749  0.00  0.00    +0.000 C 
ATOM     31  O   UNL     1       0.756   2.283  22.772  0.00  0.00    +0.000 OA
ATOM     32  C   UNL     1       2.632   3.314  21.630  0.00  0.00    +0.000 C 
ATOM     33  H   UNL     1      -0.294   2.404  20.415  0.00  0.00    +0.000 HD
ENDBRANCH  25  27
ENDBRANCH  24  25
ENDBRANCH   9  24
TORSDOF 7
ENDMDL
MODEL 5
REMARK VINA RESULT:      -8.3      1.990      4.261
REMARK  Name = 
REMARK  9 active torsions:
REMARK  status: ('A' for Active; 'I' for Inactive)
REMARK    1  A    between atoms: C_1  and  O_2
REMARK    2  A    between atoms: O_2  and  C_3
REMARK    3  A    between atoms: C_5  and  C_6
REMARK    4  A    between atoms: C_14  and  O_15
REMARK    5  A    between atoms: O_15  and  C_16
REMARK    6  A    between atoms: C_16  and  C_17
REMARK    7  A    between atoms: C_16  and  C_18
REMARK    8  A    between atoms: C_27  and  O_28
REMARK    9  A    between atoms: O_28  and  C_29
REMARK                            x       y       z     vdW  Elec       q    Type
REMARK                         _______ _______ _______ _____ _____    ______ ____
ROOT
ATOM      1  C   UNL     1       2.917   6.747  18.331  0.00  0.00    +0.000 A 
ATOM      2  C   UNL     1       4.234   6.937  17.923  0.00  0.00    +0.000 A 
ATOM      3  C   UNL     1       4.868   6.005  17.162  0.00  0.00    +0.000 A 
ATOM      4  N   UNL     1       6.129   6.311  16.813  0.00  0.00    +0.000 NA
ATOM      5  C   UNL     1       6.811   5.448  16.044  0.00  0.00    +0.000 A 
ATOM      6  C   UNL     1       6.272   4.260  15.597  0.00  0.00    +0.000 A 
ATOM      7  C   UNL     1       4.965   3.932  15.984  0.00  0.00    +0.000 A 
ATOM      8  C   UNL     1       4.208   4.813  16.801  0.00  0.00    +0.000 A 
ATOM      9  C   UNL     1       2.890   4.655  17.310  0.00  0.00    +0.000 A 
ATOM     10  N   UNL     1       2.252   5.620  18.015  0.00  0.00    +0.000 NA
ENDROOT
BRANCH   1  13
ATOM     11  C   UNL     1       0.638   9.739  18.948  0.00  0.00    +0.000 A 
ATOM     12  C   UNL     1       1.571   8.876  18.346  0.00  0.00    +0.000 A 
ATOM     13  C   UNL     1       2.158   7.797  19.037  0.00  0.00    +0.000 A 
ATOM     14  C   UNL     1       1.896   7.701  20.407  0.00  0.00    +0.000 A 
ATOM     15  C   UNL     1       1.037   8.603  21.036  0.00  0.00    +0.000 A 
ATOM     16  C   UNL     1       0.393   9.622  20.319  0.00  0.00    +0.000 A 
BRANCH  11  18
ATOM     17  C   UNL     1      -1.335  10.182  17.699  0.00  0.00    +0.000 C 
ATOM     18  O   UNL     1      -0.093  10.645  18.229  0.00  0.00    +0.000 OA
ENDBRANCH  11  18
BRANCH  16  19
ATOM     19  O   UNL     1      -0.529  10.279  21.071  0.00  0.00    +0.000 OA
BRANCH  19  20
ATOM     20  C   UNL     1      -0.340  11.603  21.538  0.00  0.00    +0.000 C 
ATOM     21  F   UNL     1      -0.621  11.813  22.836  0.00  0.00    +0.000 F 
ATOM     22  F   UNL     1       0.928  11.991  21.274  0.00  0.00    +0.000 F 
ATOM     23  F   UNL     1      -1.164  12.408  20.819  0.00  0.00    +0.000 F 
ENDBRANCH  19  20
ENDBRANCH  16  19
ENDBRANCH   1  13
BRANCH   9  24
ATOM     24  O   UNL     1       2.179   3.464  17.113  0.00  0.00    +0.000 OA
BRANCH  24  25
ATOM     25  C   UNL     1       2.221   2.573  18.264  0.00  0.00    +0.000 C 
ATOM     26  C   UNL     1       0.793   2.276  18.760  0.00  0.00    +0.000 C 
BRANCH  25  27
ATOM     27  C   UNL     1       3.046   3.122  19.460  0.00  0.00    +0.000 C 
ATOM     28  C   UNL     1       2.377   2.960  20.821  0.00  0.00    +0.000 C 
ATOM     29  N   UNL     1       3.279   2.180  21.605  0.00  0.00    +0.000 N 
ATOM     30  C   UNL     1       4.465   1.905  20.978  0.00  0.00    +0.000 C 
ATOM     31  O   UNL     1       5.387   1.280  21.470  0.00  0.00    +0.000 OA
ATOM     32  C   UNL     1       4.451   2.526  19.612  0.00  0.00    +0.000 C 
ATOM     33  H   UNL     1       3.126   1.887  22.562  0.00  0.00    +0.000 HD
ENDBRANCH  25  27
ENDBRANCH  24  25
ENDBRANCH   9  24
TORSDOF 7
ENDMDL
MODEL 6
REMARK VINA RESULT:      -8.3      1.821      3.962
REMARK  Name = 
REMARK  9 active torsions:
REMARK  status: ('A' for Active; 'I' for Inactive)
REMARK    1  A    between atoms: C_1  and  O_2
REMARK    2  A    between atoms: O_2  and  C_3
REMARK    3  A    between atoms: C_5  and  C_6
REMARK    4  A    between atoms: C_14  and  O_15
REMARK    5  A    between atoms: O_15  and  C_16
REMARK    6  A    between atoms: C_16  and  C_17
REMARK    7  A    between atoms: C_16  and  C_18
REMARK    8  A    between atoms: C_27  and  O_28
REMARK    9  A    between atoms: O_28  and  C_29
REMARK                            x       y       z     vdW  Elec       q    Type
REMARK                         _______ _______ _______ _____ _____    ______ ____
ROOT
ATOM      1  C   UNL     1       2.871   6.803  18.121  0.00  0.00    +0.000 A 
ATOM      2  C   UNL     1       4.219   6.962  17.817  0.00  0.00    +0.000 A 
ATOM      3  C   UNL     1       4.909   5.978  17.180  0.00  0.00    +0.000 A 
ATOM      4  N   UNL     1       6.198   6.258  16.921  0.00  0.00    +0.000 NA
ATOM      5  C   UNL     1       6.937   5.343  16.275  0.00  0.00    +0.000 A 
ATOM      6  C   UNL     1       6.430   4.128  15.865  0.00  0.00    +0.000 A 
ATOM      7  C   UNL     1       5.091   3.830  16.159  0.00  0.00    +0.000 A 
ATOM      8  C   UNL     1       4.273   4.766  16.845  0.00  0.00    +0.000 A 
ATOM      9  C   UNL     1       2.916   4.646  17.247  0.00  0.00    +0.000 A 
ATOM     10  N   UNL     1       2.226   5.658  17.827  0.00  0.00    +0.000 NA
ENDROOT
BRANCH   1  13
ATOM     11  C   UNL     1       1.156   9.071  20.661  0.00  0.00    +0.000 A 
ATOM     12  C   UNL     1       1.698   7.927  20.047  0.00  0.00    +0.000 A 
ATOM     13  C   UNL     1       2.062   7.901  18.686  0.00  0.00    +0.000 A 
ATOM     14  C   UNL     1       1.722   9.017  17.914  0.00  0.00    +0.000 A 
ATOM     15  C   UNL     1       1.106  10.127  18.495  0.00  0.00    +0.000 A 
ATOM     16  C   UNL     1       0.826  10.173  19.868  0.00  0.00    +0.000 A 
BRANCH  11  18
ATOM     17  C   UNL     1      -0.320   9.017  22.523  0.00  0.00    +0.000 C 
ATOM     18  O   UNL     1       1.005   9.173  22.017  0.00  0.00    +0.000 OA
ENDBRANCH  11  18
BRANCH  16  19
ATOM     19  O   UNL     1       0.389  11.398  20.264  0.00  0.00    +0.000 OA
BRANCH  19  20
ATOM     20  C   UNL     1      -0.956  11.819  20.126  0.00  0.00    +0.000 C 
ATOM     21  F   UNL     1      -1.760  10.994  19.433  0.00  0.00    +0.000 F 
ATOM     22  F   UNL     1      -1.479  12.046  21.352  0.00  0.00    +0.000 F 
ATOM     23  F   UNL     1      -0.944  13.006  19.469  0.00  0.00    +0.000 F 
ENDBRANCH  19  20
ENDBRANCH  16  19
ENDBRANCH   1  13
BRANCH   9  24
ATOM     24  O   UNL     1       2.214   3.446  17.071  0.00  0.00    +0.000 OA
BRANCH  24  25
ATOM     25  C   UNL     1       2.234   2.591  18.250  0.00  0.00    +0.000 C 
ATOM     26  C   UNL     1       0.801   2.356  18.762  0.00  0.00    +0.000 C 
BRANCH  25  27
ATOM     27  C   UNL     1       3.083   3.151  19.424  0.00  0.00    +0.000 C 
ATOM     28  C   UNL     1       2.408   3.072  20.790  0.00  0.00    +0.000 C 
ATOM     29  N   UNL     1       3.278   2.285  21.605  0.00  0.00    +0.000 N 
ATOM     30  C   UNL     1       4.450   1.935  20.990  0.00  0.00    +0.000 C 
ATOM     31  O   UNL     1       5.346   1.292  21.507  0.00  0.00    +0.000 OA
ATOM     32  C   UNL     1       4.461   2.502  19.601  0.00  0.00    +0.000 C 
ATOM     33  H   UNL     1       3.113   2.037  22.572  0.00  0.00    +0.000 HD
ENDBRANCH  25  27
ENDBRANCH  24  25
ENDBRANCH   9  24
TORSDOF 7
ENDMDL
MODEL 7
REMARK VINA RESULT:      -8.2      2.274      3.131
REMARK  Name = 
REMARK  9 active torsions:
REMARK  status: ('A' for Active; 'I' for Inactive)
REMARK    1  A    between atoms: C_1  and  O_2
REMARK    2  A    between atoms: O_2  and  C_3
REMARK    3  A    between atoms: C_5  and  C_6
REMARK    4  A    between atoms: C_14  and  O_15
REMARK    5  A    between atoms: O_15  and  C_16
REMARK    6  A    between atoms: C_16  and  C_17
REMARK    7  A    between atoms: C_16  and  C_18
REMARK    8  A    between atoms: C_27  and  O_28
REMARK    9  A    between atoms: O_28  and  C_29
REMARK                            x       y       z     vdW  Elec       q    Type
REMARK                         _______ _______ _______ _____ _____    ______ ____
ROOT
ATOM      1  C   UNL     1       1.765   7.072  20.015  0.00  0.00    +0.000 A 
ATOM      2  C   UNL     1       1.307   5.895  20.599  0.00  0.00    +0.000 A 
ATOM      3  C   UNL     1       1.737   4.684  20.154  0.00  0.00    +0.000 A 
ATOM      4  N   UNL     1       1.241   3.623  20.811  0.00  0.00    +0.000 NA
ATOM      5  C   UNL     1       1.637   2.395  20.441  0.00  0.00    +0.000 A 
ATOM      6  C   UNL     1       2.532   2.177  19.415  0.00  0.00    +0.000 A 
ATOM      7  C   UNL     1       3.028   3.286  18.715  0.00  0.00    +0.000 A 
ATOM      8  C   UNL     1       2.633   4.603  19.069  0.00  0.00    +0.000 A 
ATOM      9  C   UNL     1       3.005   5.840  18.477  0.00  0.00    +0.000 A 
ATOM     10  N   UNL     1       2.615   7.041  18.971  0.00  0.00    +0.000 NA
ENDROOT
BRANCH   1  13
ATOM     11  C   UNL     1       0.439  10.639  20.243  0.00  0.00    +0.000 A 
ATOM     12  C   UNL     1       1.007   9.458  19.732  0.00  0.00    +0.000 A 
ATOM     13  C   UNL     1       1.427   8.400  20.563  0.00  0.00    +0.000 A 
ATOM     14  C   UNL     1       1.400   8.626  21.943  0.00  0.00    +0.000 A 
ATOM     15  C   UNL     1       0.916   9.828  22.461  0.00  0.00    +0.000 A 
ATOM     16  C   UNL     1       0.424  10.840  21.626  0.00  0.00    +0.000 A 
BRANCH  11  18
ATOM     17  C   UNL     1      -1.206  11.092  18.589  0.00  0.00    +0.000 C 
ATOM     18  O   UNL     1      -0.165  11.568  19.440  0.00  0.00    +0.000 OA
ENDBRANCH  11  18
BRANCH  16  19
ATOM     19  O   UNL     1      -0.157  11.850  22.325  0.00  0.00    +0.000 OA
BRANCH  19  20
ATOM     20  C   UNL     1      -1.522  11.839  22.706  0.00  0.00    +0.000 C 
ATOM     21  F   UNL     1      -2.411  11.930  21.702  0.00  0.00    +0.000 F 
ATOM     22  F   UNL     1      -1.769  10.730  23.439  0.00  0.00    +0.000 F 
ATOM     23  F   UNL     1      -1.726  12.908  23.516  0.00  0.00    +0.000 F 
ENDBRANCH  19  20
ENDBRANCH  16  19
ENDBRANCH   1  13
BRANCH   9  24
ATOM     24  O   UNL     1       3.798   5.879  17.323  0.00  0.00    +0.000 OA
BRANCH  24  25
ATOM     25  C   UNL     1       5.224   5.779  17.604  0.00  0.00    +0.000 C 
ATOM     26  C   UNL     1       5.910   7.137  17.368  0.00  0.00    +0.000 C 
BRANCH  25  27
ATOM     27  C   UNL     1       5.963   4.708  16.755  0.00  0.00    +0.000 C 
ATOM     28  C   UNL     1       5.132   4.109  15.625  0.00  0.00    +0.000 C 
ATOM     29  N   UNL     1       5.854   4.387  14.425  0.00  0.00    +0.000 N 
ATOM     30  C   UNL     1       7.068   4.986  14.634  0.00  0.00    +0.000 C 
ATOM     31  O   UNL     1       7.860   5.286  13.758  0.00  0.00    +0.000 OA
ATOM     32  C   UNL     1       7.272   5.176  16.108  0.00  0.00    +0.000 C 
ATOM     33  H   UNL     1       5.565   4.128  13.490  0.00  0.00    +0.000 HD
ENDBRANCH  25  27
ENDBRANCH  24  25
ENDBRANCH   9  24
TORSDOF 7
ENDMDL
MODEL 8
REMARK VINA RESULT:      -8.2      1.605      2.390
REMARK  Name = 
REMARK  9 active torsions:
REMARK  status: ('A' for Active; 'I' for Inactive)
REMARK    1  A    between atoms: C_1  and  O_2
REMARK    2  A    between atoms: O_2  and  C_3
REMARK    3  A    between atoms: C_5  and  C_6
REMARK    4  A    between atoms: C_14  and  O_15
REMARK    5  A    between atoms: O_15  and  C_16
REMARK    6  A    between atoms: C_16  and  C_17
REMARK    7  A    between atoms: C_16  and  C_18
REMARK    8  A    between atoms: C_27  and  O_28
REMARK    9  A    between atoms: O_28  and  C_29
REMARK                            x       y       z     vdW  Elec       q    Type
REMARK                         _______ _______ _______ _____ _____    ______ ____
ROOT
ATOM      1  C   UNL     1       2.546   6.511  19.011  0.00  0.00    +0.000 A 
ATOM      2  C   UNL     1       1.791   5.358  18.820  0.00  0.00    +0.000 A 
ATOM      3  C   UNL     1       2.368   4.129  18.891  0.00  0.00    +0.000 A 
ATOM      4  N   UNL     1       1.531   3.092  18.711  0.00  0.00    +0.000 NA
ATOM      5  C   UNL     1       2.026   1.847  18.787  0.00  0.00    +0.000 A 
ATOM      6  C   UNL     1       3.356   1.586  19.043  0.00  0.00    +0.000 A 
ATOM      7  C   UNL     1       4.230   2.671  19.205  0.00  0.00    +0.000 A 
ATOM      8  C   UNL     1       3.751   4.006  19.128  0.00  0.00    +0.000 A 
ATOM      9  C   UNL     1       4.472   5.225  19.244  0.00  0.00    +0.000 A 
ATOM     10  N   UNL     1       3.872   6.440  19.232  0.00  0.00    +0.000 NA
ENDROOT
BRANCH   1  13
ATOM     11  C   UNL     1       1.061   9.721  20.434  0.00  0.00    +0.000 A 
ATOM     12  C   UNL     1       1.417   8.368  20.286  0.00  0.00    +0.000 A 
ATOM     13  C   UNL     1       1.927   7.849  19.078  0.00  0.00    +0.000 A 
ATOM     14  C   UNL     1       1.926   8.701  17.969  0.00  0.00    +0.000 A 
ATOM     15  C   UNL     1       1.495  10.024  18.084  0.00  0.00    +0.000 A 
ATOM     16  C   UNL     1       1.069  10.551  19.311  0.00  0.00    +0.000 A 
BRANCH  11  18
ATOM     17  C   UNL     1       0.733   9.377  22.764  0.00  0.00    +0.000 C 
ATOM     18  O   UNL     1       0.774  10.273  21.654  0.00  0.00    +0.000 OA
ENDBRANCH  11  18
BRANCH  16  19
ATOM     19  O   UNL     1       0.858  11.893  19.251  0.00  0.00    +0.000 OA
BRANCH  19  20
ATOM     20  C   UNL     1      -0.420  12.463  19.030  0.00  0.00    +0.000 C 
ATOM     21  F   UNL     1      -0.598  13.057  17.837  0.00  0.00    +0.000 F 
ATOM     22  F   UNL     1      -1.367  11.517  19.218  0.00  0.00    +0.000 F 
ATOM     23  F   UNL     1      -0.608  13.415  19.979  0.00  0.00    +0.000 F 
ENDBRANCH  19  20
ENDBRANCH  16  19
ENDBRANCH   1  13
BRANCH   9  24
ATOM     24  O   UNL     1       5.868   5.230  19.367  0.00  0.00    +0.000 OA
BRANCH  24  25
ATOM     25  C   UNL     1       6.557   5.195  18.084  0.00  0.00    +0.000 C 
ATOM     26  C   UNL     1       7.408   6.465  17.902  0.00  0.00    +0.000 C 
BRANCH  25  27
ATOM     27  C   UNL     1       5.610   5.065  16.860  0.00  0.00    +0.000 C 
ATOM     28  C   UNL     1       5.621   6.265  15.919  0.00  0.00    +0.000 C 
ATOM     29  N   UNL     1       6.013   5.754  14.644  0.00  0.00    +0.000 N 
ATOM     30  C   UNL     1       6.159   4.393  14.613  0.00  0.00    +0.000 C 
ATOM     31  O   UNL     1       6.459   3.744  13.627  0.00  0.00    +0.000 OA
ATOM     32  C   UNL     1       5.853   3.837  15.973  0.00  0.00    +0.000 C 
ATOM     33  H   UNL     1       6.126   6.301  13.800  0.00  0.00    +0.000 HD
ENDBRANCH  25  27
ENDBRANCH  24  25
ENDBRANCH   9  24
TORSDOF 7
ENDMDL
MODEL 9
REMARK VINA RESULT:      -8.2      2.117      4.574
REMARK  Name = 
REMARK  9 active torsions:
REMARK  status: ('A' for Active; 'I' for Inactive)
REMARK    1  A    between atoms: C_1  and  O_2
REMARK    2  A    between atoms: O_2  and  C_3
REMARK    3  A    between atoms: C_5  and  C_6
REMARK    4  A    between atoms: C_14  and  O_15
REMARK    5  A    between atoms: O_15  and  C_16
REMARK    6  A    between atoms: C_16  and  C_17
REMARK    7  A    between atoms: C_16  and  C_18
REMARK    8  A    between atoms: C_27  and  O_28
REMARK    9  A    between atoms: O_28  and  C_29
REMARK                            x       y       z     vdW  Elec       q    Type
REMARK                         _______ _______ _______ _____ _____    ______ ____
ROOT
ATOM      1  C   UNL     1       3.605   6.823  18.027  0.00  0.00    +0.000 A 
ATOM      2  C   UNL     1       4.233   7.003  16.798  0.00  0.00    +0.000 A 
ATOM      3  C   UNL     1       5.130   6.091  16.336  0.00  0.00    +0.000 A 
ATOM      4  N   UNL     1       5.653   6.364  15.129  0.00  0.00    +0.000 NA
ATOM      5  C   UNL     1       6.530   5.497  14.598  0.00  0.00    +0.000 A 
ATOM      6  C   UNL     1       6.916   4.339  15.239  0.00  0.00    +0.000 A 
ATOM      7  C   UNL     1       6.387   4.071  16.510  0.00  0.00    +0.000 A 
ATOM      8  C   UNL     1       5.460   4.962  17.112  0.00  0.00    +0.000 A 
ATOM      9  C   UNL     1       4.833   4.878  18.384  0.00  0.00    +0.000 A 
ATOM     10  N   UNL     1       3.896   5.764  18.804  0.00  0.00    +0.000 NA
ENDROOT
BRANCH   1  13
ATOM     11  C   UNL     1       1.241   8.700  20.356  0.00  0.00    +0.000 A 
ATOM     12  C   UNL     1       2.073   7.697  19.826  0.00  0.00    +0.000 A 
ATOM     13  C   UNL     1       2.528   7.719  18.492  0.00  0.00    +0.000 A 
ATOM     14  C   UNL     1       1.997   8.705  17.654  0.00  0.00    +0.000 A 
ATOM     15  C   UNL     1       1.104   9.658  18.148  0.00  0.00    +0.000 A 
ATOM     16  C   UNL     1       0.724   9.675  19.498  0.00  0.00    +0.000 A 
BRANCH  11  18
ATOM     17  C   UNL     1      -0.355   8.491  22.104  0.00  0.00    +0.000 C 
ATOM     18  O   UNL     1       0.977   8.801  21.695  0.00  0.00    +0.000 OA
ENDBRANCH  11  18
BRANCH  16  19
ATOM     19  O   UNL     1      -0.008  10.775  19.814  0.00  0.00    +0.000 OA
BRANCH  19  20
ATOM     20  C   UNL     1       0.559  11.938  20.393  0.00  0.00    +0.000 C 
ATOM     21  F   UNL     1       1.895  12.050  20.294  0.00  0.00    +0.000 F 
ATOM     22  F   UNL     1      -0.034  13.032  19.863  0.00  0.00    +0.000 F 
ATOM     23  F   UNL     1       0.258  11.920  21.716  0.00  0.00    +0.000 F 
ENDBRANCH  19  20
ENDBRANCH  16  19
ENDBRANCH   1  13
BRANCH   9  24
ATOM     24  O   UNL     1       5.168   3.863  19.289  0.00  0.00    +0.000 OA
BRANCH  24  25
ATOM     25  C   UNL     1       4.074   2.935  19.543  0.00  0.00    +0.000 C 
ATOM     26  C   UNL     1       3.659   2.232  18.237  0.00  0.00    +0.000 C 
BRANCH  25  27
ATOM     27  C   UNL     1       2.812   3.599  20.159  0.00  0.00    +0.000 C 
ATOM     28  C   UNL     1       1.497   3.200  19.496  0.00  0.00    +0.000 C 
ATOM     29  N   UNL     1       0.703   2.619  20.530  0.00  0.00    +0.000 N 
ATOM     30  C   UNL     1       1.279   2.679  21.771  0.00  0.00    +0.000 C 
ATOM     31  O   UNL     1       0.768   2.270  22.799  0.00  0.00    +0.000 OA
ATOM     32  C   UNL     1       2.613   3.355  21.660  0.00  0.00    +0.000 C 
ATOM     33  H   UNL     1      -0.230   2.243  20.416  0.00  0.00    +0.000 HD
ENDBRANCH  25  27
ENDBRANCH  24  25
ENDBRANCH   9  24
TORSDOF 7
ENDMDL
