MODEL 1
REMARK VINA RESULT:      -7.7      0.000      0.000
REMARK  Name = 
REMARK  3 active torsions:
REMARK  status: ('A' for Active; 'I' for Inactive)
REMARK    1  A    between atoms: C_4  and  C_5
REMARK    2  A    between atoms: C_5  and  O_6
REMARK    3  A    between atoms: O_6  and  C_7
REMARK                            x       y       z     vdW  Elec       q    Type
REMARK                         _______ _______ _______ _____ _____    ______ ____
ROOT
ATOM      1  O   UNL     1       7.919   5.240  20.066  0.00  0.00    +0.000 OA
ATOM      2  C   UNL     1       7.559   5.992  19.170  0.00  0.00    +0.000 A 
ATOM      3  O   UNL     1       8.170   7.181  18.948  0.00  0.00    +0.000 OA
ATOM      4  C   UNL     1       7.758   7.958  17.922  0.00  0.00    +0.000 A 
ATOM      5  N   UNL     1       6.783   7.709  17.111  0.00  0.00    +0.000 NA
ATOM      6  C   UNL     1       6.103   6.510  17.279  0.00  0.00    +0.000 A 
ATOM      7  C   UNL     1       5.074   6.179  16.396  0.00  0.00    +0.000 A 
ATOM      8  C   UNL     1       4.417   4.951  16.508  0.00  0.00    +0.000 A 
ATOM      9  C   UNL     1       4.786   4.058  17.514  0.00  0.00    +0.000 A 
ATOM     10 CL   UNL     1       3.991   2.539  17.637  0.00  0.00    +0.000 Cl
ATOM     11  C   UNL     1       5.803   4.384  18.408  0.00  0.00    +0.000 A 
ATOM     12  C   UNL     1       6.456   5.614  18.277  0.00  0.00    +0.000 A 
ENDROOT
BRANCH   4  13
ATOM     13  C   UNL     1       8.611   9.197  17.757  0.00  0.00    +0.000 C 
BRANCH  13  14
ATOM     14  O   UNL     1       8.985   9.737  19.016  0.00  0.00    +0.000 OA
BRANCH  14  15
ATOM     15  C   UNL     1       9.772  10.863  18.963  0.00  0.00    +0.000 A 
ATOM     16  C   UNL     1      10.507  11.239  17.830  0.00  0.00    +0.000 A 
ATOM     17  C   UNL     1      11.284  12.400  17.840  0.00  0.00    +0.000 A 
ATOM     18  C   UNL     1      11.322  13.201  18.978  0.00  0.00    +0.000 A 
ATOM     19 CL   UNL     1      12.292  14.621  18.984  0.00  0.00    +0.000 Cl
ATOM     20  C   UNL     1      10.578  12.861  20.104  0.00  0.00    +0.000 A 
ATOM     21  C   UNL     1       9.801  11.698  20.093  0.00  0.00    +0.000 A 
ATOM     22 CL   UNL     1       8.900  11.312  21.516  0.00  0.00    +0.000 Cl
ENDBRANCH  14  15
ENDBRANCH  13  14
ENDBRANCH   4  13
TORSDOF 3
ENDMDL
MODEL 2
REMARK VINA RESULT:      -7.7      1.265      1.387
REMARK  Name = 
REMARK  3 active torsions:
REMARK  status: ('A' for Active; 'I' for Inactive)
REMARK    1  A    between atoms: C_4  and  C_5
REMARK    2  A    between atoms: C_5  and  O_6
REMARK    3  A    between atoms: O_6  and  C_7
REMARK                            x       y       z     vdW  Elec       q    Type
REMARK                         _______ _______ _______ _____ _____    ______ ____
ROOT
ATOM      1  O   UNL     1       7.773   5.203  20.196  0.00  0.00    +0.000 OA
ATOM      2  C   UNL     1       7.447   5.892  19.237  0.00  0.00    +0.000 A 
ATOM      3  O   UNL     1       8.096   7.040  18.930  0.00  0.00    +0.000 OA
ATOM      4  C   UNL     1       7.720   7.745  17.839  0.00  0.00    +0.000 A 
ATOM      5  N   UNL     1       6.749   7.459  17.035  0.00  0.00    +0.000 NA
ATOM      6  C   UNL     1       6.032   6.298  17.289  0.00  0.00    +0.000 A 
ATOM      7  C   UNL     1       5.005   5.927  16.419  0.00  0.00    +0.000 A 
ATOM      8  C   UNL     1       4.311   4.731  16.618  0.00  0.00    +0.000 A 
ATOM      9  C   UNL     1       4.639   3.912  17.698  0.00  0.00    +0.000 A 
ATOM     10 CL   UNL     1       3.798   2.430  17.930  0.00  0.00    +0.000 Cl
ATOM     11  C   UNL     1       5.653   4.279  18.579  0.00  0.00    +0.000 A 
ATOM     12  C   UNL     1       6.345   5.475  18.360  0.00  0.00    +0.000 A 
ENDROOT
BRANCH   4  13
ATOM     13  C   UNL     1       8.612   8.941  17.588  0.00  0.00    +0.000 C 
BRANCH  13  14
ATOM     14  O   UNL     1       8.170  10.076  18.319  0.00  0.00    +0.000 OA
BRANCH  14  15
ATOM     15  C   UNL     1       9.132  11.027  18.568  0.00  0.00    +0.000 A 
ATOM     16  C   UNL     1      10.282  10.780  19.329  0.00  0.00    +0.000 A 
ATOM     17  C   UNL     1      11.224  11.791  19.540  0.00  0.00    +0.000 A 
ATOM     18  C   UNL     1      11.029  13.050  18.981  0.00  0.00    +0.000 A 
ATOM     19 CL   UNL     1      12.189  14.290  19.258  0.00  0.00    +0.000 Cl
ATOM     20  C   UNL     1       9.908  13.308  18.198  0.00  0.00    +0.000 A 
ATOM     21  C   UNL     1       8.965  12.296  17.988  0.00  0.00    +0.000 A 
ATOM     22 CL   UNL     1       7.585  12.665  17.016  0.00  0.00    +0.000 Cl
ENDBRANCH  14  15
ENDBRANCH  13  14
ENDBRANCH   4  13
TORSDOF 3
ENDMDL
MODEL 3
REMARK VINA RESULT:      -7.5      6.379      9.153
REMARK  Name = 
REMARK  3 active torsions:
REMARK  status: ('A' for Active; 'I' for Inactive)
REMARK    1  A    between atoms: C_4  and  C_5
REMARK    2  A    between atoms: C_5  and  O_6
REMARK    3  A    between atoms: O_6  and  C_7
REMARK                            x       y       z     vdW  Elec       q    Type
REMARK                         _______ _______ _______ _____ _____    ______ ____
ROOT
ATOM      1  O   UNL     1       0.642  10.708  18.433  0.00  0.00    +0.000 OA
ATOM      2  C   UNL     1       0.805   9.860  19.301  0.00  0.00    +0.000 A 
ATOM      3  O   UNL     1       1.545   8.747  19.081  0.00  0.00    +0.000 OA
ATOM      4  C   UNL     1       1.724   7.859  20.085  0.00  0.00    +0.000 A 
ATOM      5  N   UNL     1       1.224   7.931  21.274  0.00  0.00    +0.000 NA
ATOM      6  C   UNL     1       0.449   9.043  21.575  0.00  0.00    +0.000 A 
ATOM      7  C   UNL     1      -0.072   9.184  22.862  0.00  0.00    +0.000 A 
ATOM      8  C   UNL     1      -0.802  10.325  23.205  0.00  0.00    +0.000 A 
ATOM      9  C   UNL     1      -1.021  11.319  22.252  0.00  0.00    +0.000 A 
ATOM     10 CL   UNL     1      -1.903  12.731  22.682  0.00  0.00    +0.000 Cl
ATOM     11  C   UNL     1      -0.517  11.182  20.962  0.00  0.00    +0.000 A 
ATOM     12  C   UNL     1       0.221  10.038  20.637  0.00  0.00    +0.000 A 
ENDROOT
BRANCH   4  13
ATOM     13  C   UNL     1       2.654   6.730  19.698  0.00  0.00    +0.000 C 
BRANCH  13  14
ATOM     14  O   UNL     1       2.339   6.221  18.410  0.00  0.00    +0.000 OA
BRANCH  14  15
ATOM     15  C   UNL     1       3.420   5.867  17.637  0.00  0.00    +0.000 A 
ATOM     16  C   UNL     1       4.388   6.780  17.200  0.00  0.00    +0.000 A 
ATOM     17  C   UNL     1       5.467   6.354  16.419  0.00  0.00    +0.000 A 
ATOM     18  C   UNL     1       5.590   5.009  16.081  0.00  0.00    +0.000 A 
ATOM     19 CL   UNL     1       6.915   4.497  15.110  0.00  0.00    +0.000 Cl
ATOM     20  C   UNL     1       4.655   4.081  16.529  0.00  0.00    +0.000 A 
ATOM     21  C   UNL     1       3.576   4.509  17.309  0.00  0.00    +0.000 A 
ATOM     22 CL   UNL     1       2.435   3.322  17.835  0.00  0.00    +0.000 Cl
ENDBRANCH  14  15
ENDBRANCH  13  14
ENDBRANCH   4  13
TORSDOF 3
ENDMDL
MODEL 4
REMARK VINA RESULT:      -7.5      6.307      7.917
REMARK  Name = 
REMARK  3 active torsions:
REMARK  status: ('A' for Active; 'I' for Inactive)
REMARK    1  A    between atoms: C_4  and  C_5
REMARK    2  A    between atoms: C_5  and  O_6
REMARK    3  A    between atoms: O_6  and  C_7
REMARK                            x       y       z     vdW  Elec       q    Type
REMARK                         _______ _______ _______ _____ _____    ______ ____
ROOT
ATOM      1  O   UNL     1       2.537   2.810  18.551  0.00  0.00    +0.000 OA
ATOM      2  C   UNL     1       2.681   4.026  18.582  0.00  0.00    +0.000 A 
ATOM      3  O   UNL     1       2.022   4.799  19.478  0.00  0.00    +0.000 OA
ATOM      4  C   UNL     1       2.244   6.133  19.494  0.00  0.00    +0.000 A 
ATOM      5  N   UNL     1       3.020   6.794  18.700  0.00  0.00    +0.000 NA
ATOM      6  C   UNL     1       3.726   6.069  17.749  0.00  0.00    +0.000 A 
ATOM      7  C   UNL     1       4.611   6.737  16.901  0.00  0.00    +0.000 A 
ATOM      8  C   UNL     1       5.379   6.022  15.979  0.00  0.00    +0.000 A 
ATOM      9  C   UNL     1       5.250   4.635  15.900  0.00  0.00    +0.000 A 
ATOM     10 CL   UNL     1       6.211   3.754  14.779  0.00  0.00    +0.000 Cl
ATOM     11  C   UNL     1       4.362   3.960  16.732  0.00  0.00    +0.000 A 
ATOM     12  C   UNL     1       3.606   4.691  17.656  0.00  0.00    +0.000 A 
ENDROOT
BRANCH   4  13
ATOM     13  C   UNL     1       1.506   6.827  20.618  0.00  0.00    +0.000 C 
BRANCH  13  14
ATOM     14  O   UNL     1       1.968   8.159  20.792  0.00  0.00    +0.000 OA
BRANCH  14  15
ATOM     15  C   UNL     1       1.011   9.068  21.177  0.00  0.00    +0.000 A 
ATOM     16  C   UNL     1       0.591   9.232  22.504  0.00  0.00    +0.000 A 
ATOM     17  C   UNL     1      -0.384  10.179  22.829  0.00  0.00    +0.000 A 
ATOM     18  C   UNL     1      -0.936  10.978  21.832  0.00  0.00    +0.000 A 
ATOM     19 CL   UNL     1      -2.144  12.132  22.241  0.00  0.00    +0.000 Cl
ATOM     20  C   UNL     1      -0.513  10.852  20.512  0.00  0.00    +0.000 A 
ATOM     21  C   UNL     1       0.462   9.903  20.188  0.00  0.00    +0.000 A 
ATOM     22 CL   UNL     1       0.951   9.776  18.535  0.00  0.00    +0.000 Cl
ENDBRANCH  14  15
ENDBRANCH  13  14
ENDBRANCH   4  13
TORSDOF 3
ENDMDL
MODEL 5
REMARK VINA RESULT:      -7.4      5.477      8.121
REMARK  Name = 
REMARK  3 active torsions:
REMARK  status: ('A' for Active; 'I' for Inactive)
REMARK    1  A    between atoms: C_4  and  C_5
REMARK    2  A    between atoms: C_5  and  O_6
REMARK    3  A    between atoms: O_6  and  C_7
REMARK                            x       y       z     vdW  Elec       q    Type
REMARK                         _______ _______ _______ _____ _____    ______ ____
ROOT
ATOM      1  O   UNL     1       2.208   9.193  17.273  0.00  0.00    +0.000 OA
ATOM      2  C   UNL     1       2.094   8.526  18.292  0.00  0.00    +0.000 A 
ATOM      3  O   UNL     1       2.717   7.331  18.435  0.00  0.00    +0.000 OA
ATOM      4  C   UNL     1       2.588   6.650  19.597  0.00  0.00    +0.000 A 
ATOM      5  N   UNL     1       1.884   7.001  20.621  0.00  0.00    +0.000 NA
ATOM      6  C   UNL     1       1.211   8.214  20.548  0.00  0.00    +0.000 A 
ATOM      7  C   UNL     1       0.476   8.655  21.650  0.00  0.00    +0.000 A 
ATOM      8  C   UNL     1      -0.157   9.899  21.622  0.00  0.00    +0.000 A 
ATOM      9  C   UNL     1      -0.063  10.698  20.482  0.00  0.00    +0.000 A 
ATOM     10 CL   UNL     1      -0.826  12.239  20.457  0.00  0.00    +0.000 Cl
ATOM     11  C   UNL     1       0.657  10.262  19.373  0.00  0.00    +0.000 A 
ATOM     12  C   UNL     1       1.293   9.017  19.421  0.00  0.00    +0.000 A 
ENDROOT
BRANCH   4  13
ATOM     13  C   UNL     1       3.426   5.390  19.623  0.00  0.00    +0.000 C 
BRANCH  13  14
ATOM     14  O   UNL     1       4.780   5.664  19.292  0.00  0.00    +0.000 OA
BRANCH  14  15
ATOM     15  C   UNL     1       5.180   5.237  18.048  0.00  0.00    +0.000 A 
ATOM     16  C   UNL     1       4.321   4.613  17.133  0.00  0.00    +0.000 A 
ATOM     17  C   UNL     1       4.790   4.207  15.880  0.00  0.00    +0.000 A 
ATOM     18  C   UNL     1       6.118   4.433  15.530  0.00  0.00    +0.000 A 
ATOM     19 CL   UNL     1       6.689   3.918  13.991  0.00  0.00    +0.000 Cl
ATOM     20  C   UNL     1       6.981   5.076  16.412  0.00  0.00    +0.000 A 
ATOM     21  C   UNL     1       6.510   5.481  17.666  0.00  0.00    +0.000 A 
ATOM     22 CL   UNL     1       7.619   6.269  18.732  0.00  0.00    +0.000 Cl
ENDBRANCH  14  15
ENDBRANCH  13  14
ENDBRANCH   4  13
TORSDOF 3
ENDMDL
MODEL 6
REMARK VINA RESULT:      -7.3      6.604      9.370
REMARK  Name = 
REMARK  3 active torsions:
REMARK  status: ('A' for Active; 'I' for Inactive)
REMARK    1  A    between atoms: C_4  and  C_5
REMARK    2  A    between atoms: C_5  and  O_6
REMARK    3  A    between atoms: O_6  and  C_7
REMARK                            x       y       z     vdW  Elec       q    Type
REMARK                         _______ _______ _______ _____ _____    ______ ____
ROOT
ATOM      1  O   UNL     1      -1.067  11.255  18.326  0.00  0.00    +0.000 OA
ATOM      2  C   UNL     1      -0.326  10.494  18.934  0.00  0.00    +0.000 A 
ATOM      3  O   UNL     1       0.616   9.756  18.298  0.00  0.00    +0.000 OA
ATOM      4  C   UNL     1       1.434   8.958  19.020  0.00  0.00    +0.000 A 
ATOM      5  N   UNL     1       1.404   8.781  20.300  0.00  0.00    +0.000 NA
ATOM      6  C   UNL     1       0.460   9.500  21.021  0.00  0.00    +0.000 A 
ATOM      7  C   UNL     1       0.423   9.375  22.411  0.00  0.00    +0.000 A 
ATOM      8  C   UNL     1      -0.476  10.135  23.164  0.00  0.00    +0.000 A 
ATOM      9  C   UNL     1      -1.346  11.014  22.520  0.00  0.00    +0.000 A 
ATOM     10 CL   UNL     1      -2.437  11.965  23.449  0.00  0.00    +0.000 Cl
ATOM     11  C   UNL     1      -1.326  11.138  21.133  0.00  0.00    +0.000 A 
ATOM     12  C   UNL     1      -0.414  10.376  20.395  0.00  0.00    +0.000 A 
ENDROOT
BRANCH   4  13
ATOM     13  C   UNL     1       2.487   8.286  18.166  0.00  0.00    +0.000 C 
BRANCH  13  14
ATOM     14  O   UNL     1       2.738   6.959  18.606  0.00  0.00    +0.000 OA
BRANCH  14  15
ATOM     15  C   UNL     1       3.553   6.212  17.789  0.00  0.00    +0.000 A 
ATOM     16  C   UNL     1       4.662   6.740  17.115  0.00  0.00    +0.000 A 
ATOM     17  C   UNL     1       5.454   5.924  16.302  0.00  0.00    +0.000 A 
ATOM     18  C   UNL     1       5.150   4.572  16.168  0.00  0.00    +0.000 A 
ATOM     19 CL   UNL     1       6.124   3.580  15.156  0.00  0.00    +0.000 Cl
ATOM     20  C   UNL     1       4.070   4.021  16.852  0.00  0.00    +0.000 A 
ATOM     21  C   UNL     1       3.278   4.839  17.665  0.00  0.00    +0.000 A 
ATOM     22 CL   UNL     1       1.943   4.114  18.487  0.00  0.00    +0.000 Cl
ENDBRANCH  14  15
ENDBRANCH  13  14
ENDBRANCH   4  13
TORSDOF 3
ENDMDL
MODEL 7
REMARK VINA RESULT:      -7.3      6.199      8.608
REMARK  Name = 
REMARK  3 active torsions:
REMARK  status: ('A' for Active; 'I' for Inactive)
REMARK    1  A    between atoms: C_4  and  C_5
REMARK    2  A    between atoms: C_5  and  O_6
REMARK    3  A    between atoms: O_6  and  C_7
REMARK                            x       y       z     vdW  Elec       q    Type
REMARK                         _______ _______ _______ _____ _____    ______ ____
ROOT
ATOM      1  O   UNL     1       1.827   9.610  17.515  0.00  0.00    +0.000 OA
ATOM      2  C   UNL     1       1.732   8.928  18.527  0.00  0.00    +0.000 A 
ATOM      3  O   UNL     1       2.255   7.680  18.599  0.00  0.00    +0.000 OA
ATOM      4  C   UNL     1       2.155   6.983  19.753  0.00  0.00    +0.000 A 
ATOM      5  N   UNL     1       1.563   7.368  20.835  0.00  0.00    +0.000 NA
ATOM      6  C   UNL     1       0.997   8.636  20.837  0.00  0.00    +0.000 A 
ATOM      7  C   UNL     1       0.389   9.110  22.001  0.00  0.00    +0.000 A 
ATOM      8  C   UNL     1      -0.133  10.405  22.046  0.00  0.00    +0.000 A 
ATOM      9  C   UNL     1      -0.054  11.222  20.918  0.00  0.00    +0.000 A 
ATOM     10 CL   UNL     1      -0.677  12.824  20.982  0.00  0.00    +0.000 Cl
ATOM     11  C   UNL     1       0.539  10.755  19.748  0.00  0.00    +0.000 A 
ATOM     12  C   UNL     1       1.064   9.458  19.723  0.00  0.00    +0.000 A 
ENDROOT
BRANCH   4  13
ATOM     13  C   UNL     1       2.877   5.655  19.690  0.00  0.00    +0.000 C 
BRANCH  13  14
ATOM     14  O   UNL     1       4.255   5.831  19.395  0.00  0.00    +0.000 OA
BRANCH  14  15
ATOM     15  C   UNL     1       4.633   5.484  18.120  0.00  0.00    +0.000 A 
ATOM     16  C   UNL     1       4.922   6.421  17.119  0.00  0.00    +0.000 A 
ATOM     17  C   UNL     1       5.307   6.002  15.842  0.00  0.00    +0.000 A 
ATOM     18  C   UNL     1       5.417   4.643  15.562  0.00  0.00    +0.000 A 
ATOM     19 CL   UNL     1       5.879   4.137  13.984  0.00  0.00    +0.000 Cl
ATOM     20  C   UNL     1       5.162   3.696  16.549  0.00  0.00    +0.000 A 
ATOM     21  C   UNL     1       4.777   4.118  17.826  0.00  0.00    +0.000 A 
ATOM     22 CL   UNL     1       4.464   2.906  19.018  0.00  0.00    +0.000 Cl
ENDBRANCH  14  15
ENDBRANCH  13  14
ENDBRANCH   4  13
TORSDOF 3
ENDMDL
MODEL 8
REMARK VINA RESULT:      -7.2      6.364      7.758
REMARK  Name = 
REMARK  3 active torsions:
REMARK  status: ('A' for Active; 'I' for Inactive)
REMARK    1  A    between atoms: C_4  and  C_5
REMARK    2  A    between atoms: C_5  and  O_6
REMARK    3  A    between atoms: O_6  and  C_7
REMARK                            x       y       z     vdW  Elec       q    Type
REMARK                         _______ _______ _______ _____ _____    ______ ____
ROOT
ATOM      1  O   UNL     1       2.218   2.902  18.364  0.00  0.00    +0.000 OA
ATOM      2  C   UNL     1       2.475   4.093  18.482  0.00  0.00    +0.000 A 
ATOM      3  O   UNL     1       1.854   4.869  19.404  0.00  0.00    +0.000 OA
ATOM      4  C   UNL     1       2.201   6.171  19.518  0.00  0.00    +0.000 A 
ATOM      5  N   UNL     1       3.068   6.802  18.798  0.00  0.00    +0.000 NA
ATOM      6  C   UNL     1       3.743   6.074  17.827  0.00  0.00    +0.000 A 
ATOM      7  C   UNL     1       4.722   6.706  17.058  0.00  0.00    +0.000 A 
ATOM      8  C   UNL     1       5.457   5.979  16.118  0.00  0.00    +0.000 A 
ATOM      9  C   UNL     1       5.201   4.619  15.941  0.00  0.00    +0.000 A 
ATOM     10 CL   UNL     1       6.121   3.722  14.798  0.00  0.00    +0.000 Cl
ATOM     11  C   UNL     1       4.218   3.983  16.693  0.00  0.00    +0.000 A 
ATOM     12  C   UNL     1       3.497   4.723  17.637  0.00  0.00    +0.000 A 
ENDROOT
BRANCH   4  13
ATOM     13  C   UNL     1       1.485   6.861  20.658  0.00  0.00    +0.000 C 
BRANCH  13  14
ATOM     14  O   UNL     1       1.907   8.211  20.791  0.00  0.00    +0.000 OA
BRANCH  14  15
ATOM     15  C   UNL     1       0.998   9.155  20.376  0.00  0.00    +0.000 A 
ATOM     16  C   UNL     1       0.798   9.497  19.032  0.00  0.00    +0.000 A 
ATOM     17  C   UNL     1      -0.147  10.464  18.677  0.00  0.00    +0.000 A 
ATOM     18  C   UNL     1      -0.909  11.085  19.663  0.00  0.00    +0.000 A 
ATOM     19 CL   UNL     1      -2.061  12.281  19.216  0.00  0.00    +0.000 Cl
ATOM     20  C   UNL     1      -0.747  10.739  21.001  0.00  0.00    +0.000 A 
ATOM     21  C   UNL     1       0.200   9.772  21.355  0.00  0.00    +0.000 A 
ATOM     22 CL   UNL     1       0.372   9.381  23.030  0.00  0.00    +0.000 Cl
ENDBRANCH  14  15
ENDBRANCH  13  14
ENDBRANCH   4  13
TORSDOF 3
ENDMDL
MODEL 9
REMARK VINA RESULT:      -7.2      4.828      6.980
REMARK  Name = 
REMARK  3 active torsions:
REMARK  status: ('A' for Active; 'I' for Inactive)
REMARK    1  A    between atoms: C_4  and  C_5
REMARK    2  A    between atoms: C_5  and  O_6
REMARK    3  A    between atoms: O_6  and  C_7
REMARK                            x       y       z     vdW  Elec       q    Type
REMARK                         _______ _______ _______ _____ _____    ______ ____
ROOT
ATOM      1  O   UNL     1       2.102   4.510  21.487  0.00  0.00    +0.000 OA
ATOM      2  C   UNL     1       2.325   4.941  20.363  0.00  0.00    +0.000 A 
ATOM      3  O   UNL     1       2.782   4.140  19.370  0.00  0.00    +0.000 OA
ATOM      4  C   UNL     1       2.977   4.658  18.136  0.00  0.00    +0.000 A 
ATOM      5  N   UNL     1       2.805   5.888  17.781  0.00  0.00    +0.000 NA
ATOM      6  C   UNL     1       2.342   6.771  18.747  0.00  0.00    +0.000 A 
ATOM      7  C   UNL     1       2.097   8.100  18.396  0.00  0.00    +0.000 A 
ATOM      8  C   UNL     1       1.572   8.992  19.334  0.00  0.00    +0.000 A 
ATOM      9  C   UNL     1       1.304   8.554  20.631  0.00  0.00    +0.000 A 
ATOM     10 CL   UNL     1       0.639   9.648  21.779  0.00  0.00    +0.000 Cl
ATOM     11  C   UNL     1       1.557   7.234  20.995  0.00  0.00    +0.000 A 
ATOM     12  C   UNL     1       2.074   6.351  20.041  0.00  0.00    +0.000 A 
ENDROOT
BRANCH   4  13
ATOM     13  C   UNL     1       3.392   3.608  17.129  0.00  0.00    +0.000 C 
BRANCH  13  14
ATOM     14  O   UNL     1       4.775   3.302  17.242  0.00  0.00    +0.000 OA
BRANCH  14  15
ATOM     15  C   UNL     1       5.593   4.371  17.522  0.00  0.00    +0.000 A 
ATOM     16  C   UNL     1       6.041   4.682  18.813  0.00  0.00    +0.000 A 
ATOM     17  C   UNL     1       6.877   5.781  19.029  0.00  0.00    +0.000 A 
ATOM     18  C   UNL     1       7.280   6.569  17.955  0.00  0.00    +0.000 A 
ATOM     19 CL   UNL     1       8.298   7.927  18.235  0.00  0.00    +0.000 Cl
ATOM     20  C   UNL     1       6.869   6.261  16.662  0.00  0.00    +0.000 A 
ATOM     21  C   UNL     1       6.033   5.161  16.447  0.00  0.00    +0.000 A 
ATOM     22 CL   UNL     1       5.542   4.822  14.825  0.00  0.00    +0.000 Cl
ENDBRANCH  14  15
ENDBRANCH  13  14
ENDBRANCH   4  13
TORSDOF 3
ENDMDL
