MODEL 1
REMARK VINA RESULT:      -7.5      0.000      0.000
REMARK  Name = 
REMARK  5 active torsions:
REMARK  status: ('A' for Active; 'I' for Inactive)
REMARK    1  A    between atoms: C_1  and  N_2
REMARK    2  A    between atoms: C_4  and  C_5
REMARK    3  A    between atoms: N_10  and  C_11
REMARK    4  A    between atoms: C_11  and  C_12
REMARK    5  A    between atoms: C_11  and  C_18
REMARK                            x       y       z     vdW  Elec       q    Type
REMARK                         _______ _______ _______ _____ _____    ______ ____
ROOT
ATOM      1  C   UNL     1       1.702  10.097  17.948  0.00  0.00    +0.000 C 
ATOM      2  O   UNL     1       2.210  10.917  17.190  0.00  0.00    +0.000 OA
ATOM      3  N   UNL     1       2.195   8.810  18.144  0.00  0.00    +0.000 N 
ATOM      4  C   UNL     1       3.406   8.384  17.439  0.00  0.00    +0.000 C 
ATOM      5  C   UNL     1       4.321   7.540  18.358  0.00  0.00    +0.000 C 
ATOM      6  N   UNL     1       3.651   6.394  19.043  0.00  0.00    +0.000 NA
ATOM      7  C   UNL     1       2.472   6.943  19.745  0.00  0.00    +0.000 C 
ATOM      8  C   UNL     1       1.502   7.732  18.861  0.00  0.00    +0.000 C 
ENDROOT
BRANCH   1  12
ATOM      9  C   UNL     1       0.078  12.251  21.894  0.00  0.00    +0.000 C 
ATOM     10  N   UNL     1      -0.294  11.585  20.662  0.00  0.00    +0.000 N 
ATOM     11  N   UNL     1       0.721  11.006  19.953  0.00  0.00    +0.000 NA
ATOM     12  C   UNL     1       0.484  10.535  18.767  0.00  0.00    +0.000 A 
ATOM     13  C   UNL     1      -0.879  10.445  18.194  0.00  0.00    +0.000 A 
ATOM     14  C   UNL     1      -1.188   9.769  17.006  0.00  0.00    +0.000 A 
ATOM     15  C   UNL     1      -2.516   9.696  16.565  0.00  0.00    +0.000 A 
ATOM     16  C   UNL     1      -3.533  10.317  17.286  0.00  0.00    +0.000 A 
ATOM     17  C   UNL     1      -3.228  11.002  18.459  0.00  0.00    +0.000 A 
ATOM     18  C   UNL     1      -1.904  11.048  18.918  0.00  0.00    +0.000 A 
ATOM     19  C   UNL     1      -1.600  11.717  20.196  0.00  0.00    +0.000 A 
ATOM     20  O   UNL     1      -2.480  12.337  20.786  0.00  0.00    +0.000 OA
ENDBRANCH   1  12
BRANCH   6  21
ATOM     21  C   UNL     1       3.333   5.282  18.093  0.00  0.00    +0.000 C 
BRANCH  21  22
ATOM     22  C   UNL     1       4.598   4.841  17.346  0.00  0.00    +0.000 A 
ATOM     23  C   UNL     1       5.836   4.780  18.002  0.00  0.00    +0.000 A 
ATOM     24  C   UNL     1       7.007   4.505  17.295  0.00  0.00    +0.000 A 
ATOM     25  C   UNL     1       6.952   4.287  15.919  0.00  0.00    +0.000 A 
ATOM     26  C   UNL     1       5.729   4.329  15.253  0.00  0.00    +0.000 A 
ATOM     27  C   UNL     1       4.555   4.597  15.963  0.00  0.00    +0.000 A 
ENDBRANCH  21  22
BRANCH  21  28
ATOM     28  C   UNL     1       2.603   4.077  18.712  0.00  0.00    +0.000 A 
ATOM     29  C   UNL     1       1.429   3.595  18.102  0.00  0.00    +0.000 A 
ATOM     30  C   UNL     1       0.685   2.568  18.690  0.00  0.00    +0.000 A 
ATOM     31  C   UNL     1       1.102   2.004  19.892  0.00  0.00    +0.000 A 
ATOM     32  C   UNL     1       2.288   2.432  20.483  0.00  0.00    +0.000 A 
ATOM     33  C   UNL     1       3.045   3.442  19.885  0.00  0.00    +0.000 A 
ENDBRANCH  21  28
ENDBRANCH   6  21
TORSDOF 4
ENDMDL
MODEL 2
REMARK VINA RESULT:      -7.2      1.254      1.483
REMARK  Name = 
REMARK  5 active torsions:
REMARK  status: ('A' for Active; 'I' for Inactive)
REMARK    1  A    between atoms: C_1  and  N_2
REMARK    2  A    between atoms: C_4  and  C_5
REMARK    3  A    between atoms: N_10  and  C_11
REMARK    4  A    between atoms: C_11  and  C_12
REMARK    5  A    between atoms: C_11  and  C_18
REMARK                            x       y       z     vdW  Elec       q    Type
REMARK                         _______ _______ _______ _____ _____    ______ ____
ROOT
ATOM      1  C   UNL     1       1.918   9.696  18.362  0.00  0.00    +0.000 C 
ATOM      2  O   UNL     1       2.205  10.648  17.642  0.00  0.00    +0.000 OA
ATOM      3  N   UNL     1       2.493   8.433  18.248  0.00  0.00    +0.000 N 
ATOM      4  C   UNL     1       3.524   8.197  17.235  0.00  0.00    +0.000 C 
ATOM      5  C   UNL     1       4.659   7.304  17.790  0.00  0.00    +0.000 C 
ATOM      6  N   UNL     1       4.210   6.029  18.426  0.00  0.00    +0.000 NA
ATOM      7  C   UNL     1       3.204   6.388  19.447  0.00  0.00    +0.000 C 
ATOM      8  C   UNL     1       2.026   7.219  18.929  0.00  0.00    +0.000 C 
ENDROOT
BRANCH   1  12
ATOM      9  C   UNL     1       0.971   9.403  23.039  0.00  0.00    +0.000 C 
ATOM     10  N   UNL     1       0.458   9.798  21.742  0.00  0.00    +0.000 N 
ATOM     11  N   UNL     1       1.223   9.467  20.659  0.00  0.00    +0.000 NA
ATOM     12  C   UNL     1       0.905   9.928  19.487  0.00  0.00    +0.000 A 
ATOM     13  C   UNL     1      -0.349  10.672  19.229  0.00  0.00    +0.000 A 
ATOM     14  C   UNL     1      -0.811  11.011  17.950  0.00  0.00    +0.000 A 
ATOM     15  C   UNL     1      -2.035  11.675  17.799  0.00  0.00    +0.000 A 
ATOM     16  C   UNL     1      -2.787  12.031  18.917  0.00  0.00    +0.000 A 
ATOM     17  C   UNL     1      -2.324  11.709  20.190  0.00  0.00    +0.000 A 
ATOM     18  C   UNL     1      -1.115  11.014  20.340  0.00  0.00    +0.000 A 
ATOM     19  C   UNL     1      -0.666  10.618  21.686  0.00  0.00    +0.000 A 
ATOM     20  O   UNL     1      -1.283  11.004  22.675  0.00  0.00    +0.000 OA
ENDBRANCH   1  12
BRANCH   6  21
ATOM     21  C   UNL     1       3.726   5.038  17.413  0.00  0.00    +0.000 C 
BRANCH  21  22
ATOM     22  C   UNL     1       4.862   4.651  16.460  0.00  0.00    +0.000 A 
ATOM     23  C   UNL     1       6.187   4.576  16.913  0.00  0.00    +0.000 A 
ATOM     24  C   UNL     1       7.236   4.351  16.022  0.00  0.00    +0.000 A 
ATOM     25  C   UNL     1       6.972   4.199  14.661  0.00  0.00    +0.000 A 
ATOM     26  C   UNL     1       5.659   4.256  14.194  0.00  0.00    +0.000 A 
ATOM     27  C   UNL     1       4.607   4.473  15.089  0.00  0.00    +0.000 A 
ENDBRANCH  21  22
BRANCH  21  28
ATOM     28  C   UNL     1       3.035   3.791  17.992  0.00  0.00    +0.000 A 
ATOM     29  C   UNL     1       1.630   3.707  17.967  0.00  0.00    +0.000 A 
ATOM     30  C   UNL     1       0.964   2.637  18.573  0.00  0.00    +0.000 A 
ATOM     31  C   UNL     1       1.689   1.633  19.208  0.00  0.00    +0.000 A 
ATOM     32  C   UNL     1       3.081   1.672  19.197  0.00  0.00    +0.000 A 
ATOM     33  C   UNL     1       3.748   2.729  18.572  0.00  0.00    +0.000 A 
ENDBRANCH  21  28
ENDBRANCH   6  21
TORSDOF 4
ENDMDL
MODEL 3
REMARK VINA RESULT:      -7.1      4.377      8.251
REMARK  Name = 
REMARK  5 active torsions:
REMARK  status: ('A' for Active; 'I' for Inactive)
REMARK    1  A    between atoms: C_1  and  N_2
REMARK    2  A    between atoms: C_4  and  C_5
REMARK    3  A    between atoms: N_10  and  C_11
REMARK    4  A    between atoms: C_11  and  C_12
REMARK    5  A    between atoms: C_11  and  C_18
REMARK                            x       y       z     vdW  Elec       q    Type
REMARK                         _______ _______ _______ _____ _____    ______ ____
ROOT
ATOM      1  C   UNL     1       2.094  14.994  21.688  0.00  0.00    +0.000 C 
ATOM      2  O   UNL     1       1.440  15.865  22.253  0.00  0.00    +0.000 OA
ATOM      3  N   UNL     1       1.541  14.021  20.859  0.00  0.00    +0.000 N 
ATOM      4  C   UNL     1       0.099  14.023  20.604  0.00  0.00    +0.000 C 
ATOM      5  C   UNL     1      -0.208  13.693  19.124  0.00  0.00    +0.000 C 
ATOM      6  N   UNL     1       0.441  12.453  18.602  0.00  0.00    +0.000 NA
ATOM      7  C   UNL     1       1.887  12.575  18.881  0.00  0.00    +0.000 C 
ATOM      8  C   UNL     1       2.244  12.838  20.347  0.00  0.00    +0.000 C 
ENDROOT
BRANCH   1  12
ATOM      9  C   UNL     1       5.854  13.597  24.288  0.00  0.00    +0.000 C 
ATOM     10  N   UNL     1       5.425  14.325  23.111  0.00  0.00    +0.000 N 
ATOM     11  N   UNL     1       4.078  14.511  22.969  0.00  0.00    +0.000 NA
ATOM     12  C   UNL     1       3.615  15.011  21.863  0.00  0.00    +0.000 A 
ATOM     13  C   UNL     1       4.490  15.547  20.795  0.00  0.00    +0.000 A 
ATOM     14  C   UNL     1       4.023  16.264  19.684  0.00  0.00    +0.000 A 
ATOM     15  C   UNL     1       4.930  16.775  18.747  0.00  0.00    +0.000 A 
ATOM     16  C   UNL     1       6.297  16.550  18.893  0.00  0.00    +0.000 A 
ATOM     17  C   UNL     1       6.764  15.825  19.987  0.00  0.00    +0.000 A 
ATOM     18  C   UNL     1       5.859  15.342  20.943  0.00  0.00    +0.000 A 
ATOM     19  C   UNL     1       6.366  14.635  22.133  0.00  0.00    +0.000 A 
ATOM     20  O   UNL     1       7.560  14.362  22.219  0.00  0.00    +0.000 OA
ENDBRANCH   1  12
BRANCH   6  21
ATOM     21  C   UNL     1      -0.186  11.215  19.162  0.00  0.00    +0.000 C 
BRANCH  21  22
ATOM     22  C   UNL     1      -1.517  10.926  18.458  0.00  0.00    +0.000 A 
ATOM     23  C   UNL     1      -1.575  10.067  17.352  0.00  0.00    +0.000 A 
ATOM     24  C   UNL     1      -2.759   9.905  16.632  0.00  0.00    +0.000 A 
ATOM     25  C   UNL     1      -3.904  10.605  17.012  0.00  0.00    +0.000 A 
ATOM     26  C   UNL     1      -3.869  11.453  18.118  0.00  0.00    +0.000 A 
ATOM     27  C   UNL     1      -2.684  11.608  18.844  0.00  0.00    +0.000 A 
ENDBRANCH  21  22
BRANCH  21  28
ATOM     28  C   UNL     1       0.717   9.969  19.176  0.00  0.00    +0.000 A 
ATOM     29  C   UNL     1       1.350   9.563  17.986  0.00  0.00    +0.000 A 
ATOM     30  C   UNL     1       2.097   8.382  17.936  0.00  0.00    +0.000 A 
ATOM     31  C   UNL     1       2.228   7.591  19.074  0.00  0.00    +0.000 A 
ATOM     32  C   UNL     1       1.652   8.003  20.273  0.00  0.00    +0.000 A 
ATOM     33  C   UNL     1       0.925   9.194  20.330  0.00  0.00    +0.000 A 
ENDBRANCH  21  28
ENDBRANCH   6  21
TORSDOF 4
ENDMDL
MODEL 4
REMARK VINA RESULT:      -7.1      5.500      8.638
REMARK  Name = 
REMARK  5 active torsions:
REMARK  status: ('A' for Active; 'I' for Inactive)
REMARK    1  A    between atoms: C_1  and  N_2
REMARK    2  A    between atoms: C_4  and  C_5
REMARK    3  A    between atoms: N_10  and  C_11
REMARK    4  A    between atoms: C_11  and  C_12
REMARK    5  A    between atoms: C_11  and  C_18
REMARK                            x       y       z     vdW  Elec       q    Type
REMARK                         _______ _______ _______ _____ _____    ______ ____
ROOT
ATOM      1  C   UNL     1       2.006  15.955  19.734  0.00  0.00    +0.000 C 
ATOM      2  O   UNL     1       1.641  17.015  19.235  0.00  0.00    +0.000 OA
ATOM      3  N   UNL     1       1.295  14.762  19.631  0.00  0.00    +0.000 N 
ATOM      4  C   UNL     1       0.047  14.728  18.866  0.00  0.00    +0.000 C 
ATOM      5  C   UNL     1      -0.066  13.428  18.036  0.00  0.00    +0.000 C 
ATOM      6  N   UNL     1       0.144  12.164  18.804  0.00  0.00    +0.000 NA
ATOM      7  C   UNL     1       1.440  12.295  19.503  0.00  0.00    +0.000 C 
ATOM      8  C   UNL     1       1.573  13.536  20.390  0.00  0.00    +0.000 C 
ENDROOT
BRANCH   1  12
ATOM      9  C   UNL     1       4.315  16.394  23.896  0.00  0.00    +0.000 C 
ATOM     10  N   UNL     1       4.456  16.131  22.478  0.00  0.00    +0.000 N 
ATOM     11  N   UNL     1       3.337  16.303  21.714  0.00  0.00    +0.000 NA
ATOM     12  C   UNL     1       3.349  15.933  20.469  0.00  0.00    +0.000 A 
ATOM     13  C   UNL     1       4.577  15.475  19.779  0.00  0.00    +0.000 A 
ATOM     14  C   UNL     1       4.666  15.256  18.397  0.00  0.00    +0.000 A 
ATOM     15  C   UNL     1       5.884  14.869  17.824  0.00  0.00    +0.000 A 
ATOM     16  C   UNL     1       7.007  14.671  18.624  0.00  0.00    +0.000 A 
ATOM     17  C   UNL     1       6.920  14.873  19.999  0.00  0.00    +0.000 A 
ATOM     18  C   UNL     1       5.709  15.293  20.568  0.00  0.00    +0.000 A 
ATOM     19  C   UNL     1       5.643  15.570  22.014  0.00  0.00    +0.000 A 
ATOM     20  O   UNL     1       6.607  15.314  22.731  0.00  0.00    +0.000 OA
ENDBRANCH   1  12
BRANCH   6  21
ATOM     21  C   UNL     1      -1.010  11.860  19.708  0.00  0.00    +0.000 C 
BRANCH  21  22
ATOM     22  C   UNL     1      -2.227  11.416  18.889  0.00  0.00    +0.000 A 
ATOM     23  C   UNL     1      -2.103  10.443  17.887  0.00  0.00    +0.000 A 
ATOM     24  C   UNL     1      -3.179  10.131  17.056  0.00  0.00    +0.000 A 
ATOM     25  C   UNL     1      -4.396  10.793  17.217  0.00  0.00    +0.000 A 
ATOM     26  C   UNL     1      -4.542  11.752  18.218  0.00  0.00    +0.000 A 
ATOM     27  C   UNL     1      -3.466  12.058  19.056  0.00  0.00    +0.000 A 
ENDBRANCH  21  22
BRANCH  21  28
ATOM     28  C   UNL     1      -0.710  10.867  20.845  0.00  0.00    +0.000 A 
ATOM     29  C   UNL     1      -1.035  11.215  22.169  0.00  0.00    +0.000 A 
ATOM     30  C   UNL     1      -0.687  10.383  23.237  0.00  0.00    +0.000 A 
ATOM     31  C   UNL     1      -0.015   9.187  23.000  0.00  0.00    +0.000 A 
ATOM     32  C   UNL     1       0.269   8.800  21.692  0.00  0.00    +0.000 A 
ATOM     33  C   UNL     1      -0.099   9.621  20.623  0.00  0.00    +0.000 A 
ENDBRANCH  21  28
ENDBRANCH   6  21
TORSDOF 4
ENDMDL
MODEL 5
REMARK VINA RESULT:      -7.0      5.545      8.734
REMARK  Name = 
REMARK  5 active torsions:
REMARK  status: ('A' for Active; 'I' for Inactive)
REMARK    1  A    between atoms: C_1  and  N_2
REMARK    2  A    between atoms: C_4  and  C_5
REMARK    3  A    between atoms: N_10  and  C_11
REMARK    4  A    between atoms: C_11  and  C_12
REMARK    5  A    between atoms: C_11  and  C_18
REMARK                            x       y       z     vdW  Elec       q    Type
REMARK                         _______ _______ _______ _____ _____    ______ ____
ROOT
ATOM      1  C   UNL     1       2.444  15.912  19.906  0.00  0.00    +0.000 C 
ATOM      2  O   UNL     1       2.153  17.012  19.447  0.00  0.00    +0.000 OA
ATOM      3  N   UNL     1       1.648  14.778  19.771  0.00  0.00    +0.000 N 
ATOM      4  C   UNL     1       0.394  14.860  19.019  0.00  0.00    +0.000 C 
ATOM      5  C   UNL     1       0.181  13.600  18.147  0.00  0.00    +0.000 C 
ATOM      6  N   UNL     1       0.305  12.298  18.870  0.00  0.00    +0.000 NA
ATOM      7  C   UNL     1       1.612  12.312  19.559  0.00  0.00    +0.000 C 
ATOM      8  C   UNL     1       1.843  13.509  20.485  0.00  0.00    +0.000 C 
ENDROOT
BRANCH   1  12
ATOM      9  C   UNL     1       4.776  15.802  24.078  0.00  0.00    +0.000 C 
ATOM     10  N   UNL     1       4.906  15.702  22.638  0.00  0.00    +0.000 N 
ATOM     11  N   UNL     1       3.790  15.991  21.905  0.00  0.00    +0.000 NA
ATOM     12  C   UNL     1       3.788  15.767  20.626  0.00  0.00    +0.000 A 
ATOM     13  C   UNL     1       5.001  15.359  19.880  0.00  0.00    +0.000 A 
ATOM     14  C   UNL     1       5.080  15.298  18.482  0.00  0.00    +0.000 A 
ATOM     15  C   UNL     1       6.285  14.947  17.861  0.00  0.00    +0.000 A 
ATOM     16  C   UNL     1       7.405  14.627  18.626  0.00  0.00    +0.000 A 
ATOM     17  C   UNL     1       7.327  14.671  20.015  0.00  0.00    +0.000 A 
ATOM     18  C   UNL     1       6.130  15.055  20.636  0.00  0.00    +0.000 A 
ATOM     19  C   UNL     1       6.075  15.165  22.105  0.00  0.00    +0.000 A 
ATOM     20  O   UNL     1       7.033  14.801  22.782  0.00  0.00    +0.000 OA
ENDBRANCH   1  12
BRANCH   6  21
ATOM     21  C   UNL     1      -0.860  12.049  19.776  0.00  0.00    +0.000 C 
BRANCH  21  22
ATOM     22  C   UNL     1      -2.105  11.689  18.956  0.00  0.00    +0.000 A 
ATOM     23  C   UNL     1      -3.365  12.198  19.302  0.00  0.00    +0.000 A 
ATOM     24  C   UNL     1      -4.516  11.770  18.638  0.00  0.00    +0.000 A 
ATOM     25  C   UNL     1      -4.418  10.825  17.618  0.00  0.00    +0.000 A 
ATOM     26  C   UNL     1      -3.172  10.319  17.251  0.00  0.00    +0.000 A 
ATOM     27  C   UNL     1      -2.019  10.754  17.910  0.00  0.00    +0.000 A 
ENDBRANCH  21  22
BRANCH  21  28
ATOM     28  C   UNL     1      -0.614  11.020  20.894  0.00  0.00    +0.000 A 
ATOM     29  C   UNL     1      -0.196   9.720  20.555  0.00  0.00    +0.000 A 
ATOM     30  C   UNL     1      -0.059   8.731  21.535  0.00  0.00    +0.000 A 
ATOM     31  C   UNL     1      -0.332   9.027  22.867  0.00  0.00    +0.000 A 
ATOM     32  C   UNL     1      -0.696  10.321  23.228  0.00  0.00    +0.000 A 
ATOM     33  C   UNL     1      -0.811  11.315  22.254  0.00  0.00    +0.000 A 
ENDBRANCH  21  28
ENDBRANCH   6  21
TORSDOF 4
ENDMDL
MODEL 6
REMARK VINA RESULT:      -7.0      2.309      8.777
REMARK  Name = 
REMARK  5 active torsions:
REMARK  status: ('A' for Active; 'I' for Inactive)
REMARK    1  A    between atoms: C_1  and  N_2
REMARK    2  A    between atoms: C_4  and  C_5
REMARK    3  A    between atoms: N_10  and  C_11
REMARK    4  A    between atoms: C_11  and  C_12
REMARK    5  A    between atoms: C_11  and  C_18
REMARK                            x       y       z     vdW  Elec       q    Type
REMARK                         _______ _______ _______ _____ _____    ______ ____
ROOT
ATOM      1  C   UNL     1       1.967   7.293  20.393  0.00  0.00    +0.000 C 
ATOM      2  O   UNL     1       2.267   6.958  21.535  0.00  0.00    +0.000 OA
ATOM      3  N   UNL     1       1.240   8.440  20.084  0.00  0.00    +0.000 N 
ATOM      4  C   UNL     1       0.814   9.337  21.160  0.00  0.00    +0.000 C 
ATOM      5  C   UNL     1       0.967  10.820  20.746  0.00  0.00    +0.000 C 
ATOM      6  N   UNL     1       0.334  11.183  19.442  0.00  0.00    +0.000 NA
ATOM      7  C   UNL     1       0.859  10.242  18.431  0.00  0.00    +0.000 C 
ATOM      8  C   UNL     1       0.671   8.760  18.768  0.00  0.00    +0.000 C 
ENDROOT
BRANCH   1  12
ATOM      9  C   UNL     1       4.905   6.902  16.642  0.00  0.00    +0.000 C 
ATOM     10  N   UNL     1       3.895   6.234  17.438  0.00  0.00    +0.000 N 
ATOM     11  N   UNL     1       3.266   6.994  18.384  0.00  0.00    +0.000 NA
ATOM     12  C   UNL     1       2.469   6.424  19.236  0.00  0.00    +0.000 A 
ATOM     13  C   UNL     1       2.074   5.000  19.139  0.00  0.00    +0.000 A 
ATOM     14  C   UNL     1       1.073   4.407  19.920  0.00  0.00    +0.000 A 
ATOM     15  C   UNL     1       0.733   3.063  19.725  0.00  0.00    +0.000 A 
ATOM     16  C   UNL     1       1.407   2.296  18.777  0.00  0.00    +0.000 A 
ATOM     17  C   UNL     1       2.412   2.876  18.008  0.00  0.00    +0.000 A 
ATOM     18  C   UNL     1       2.729   4.231  18.180  0.00  0.00    +0.000 A 
ATOM     19  C   UNL     1       3.748   4.855  17.316  0.00  0.00    +0.000 A 
ATOM     20  O   UNL     1       4.400   4.161  16.541  0.00  0.00    +0.000 OA
ENDBRANCH   1  12
BRANCH   6  21
ATOM     21  C   UNL     1      -1.160  11.210  19.534  0.00  0.00    +0.000 C 
BRANCH  21  22
ATOM     22  C   UNL     1      -1.637  12.555  20.093  0.00  0.00    +0.000 A 
ATOM     23  C   UNL     1      -2.920  12.694  20.640  0.00  0.00    +0.000 A 
ATOM     24  C   UNL     1      -3.401  13.944  21.029  0.00  0.00    +0.000 A 
ATOM     25  C   UNL     1      -2.600  15.075  20.876  0.00  0.00    +0.000 A 
ATOM     26  C   UNL     1      -1.315  14.954  20.349  0.00  0.00    +0.000 A 
ATOM     27  C   UNL     1      -0.831  13.700  19.966  0.00  0.00    +0.000 A 
ENDBRANCH  21  22
BRANCH  21  28
ATOM     28  C   UNL     1      -1.905  10.852  18.235  0.00  0.00    +0.000 A 
ATOM     29  C   UNL     1      -1.867  11.748  17.150  0.00  0.00    +0.000 A 
ATOM     30  C   UNL     1      -2.612  11.505  15.992  0.00  0.00    +0.000 A 
ATOM     31  C   UNL     1      -3.401  10.362  15.897  0.00  0.00    +0.000 A 
ATOM     32  C   UNL     1      -3.410   9.438  16.939  0.00  0.00    +0.000 A 
ATOM     33  C   UNL     1      -2.649   9.669  18.087  0.00  0.00    +0.000 A 
ENDBRANCH  21  28
ENDBRANCH   6  21
TORSDOF 4
ENDMDL
MODEL 7
REMARK VINA RESULT:      -7.0      2.307      8.769
REMARK  Name = 
REMARK  5 active torsions:
REMARK  status: ('A' for Active; 'I' for Inactive)
REMARK    1  A    between atoms: C_1  and  N_2
REMARK    2  A    between atoms: C_4  and  C_5
REMARK    3  A    between atoms: N_10  and  C_11
REMARK    4  A    between atoms: C_11  and  C_12
REMARK    5  A    between atoms: C_11  and  C_18
REMARK                            x       y       z     vdW  Elec       q    Type
REMARK                         _______ _______ _______ _____ _____    ______ ____
ROOT
ATOM      1  C   UNL     1       1.884   7.488  20.413  0.00  0.00    +0.000 C 
ATOM      2  O   UNL     1       2.202   7.223  21.569  0.00  0.00    +0.000 OA
ATOM      3  N   UNL     1       1.139   8.606  20.048  0.00  0.00    +0.000 N 
ATOM      4  C   UNL     1       0.715   9.559  21.076  0.00  0.00    +0.000 C 
ATOM      5  C   UNL     1       0.843  11.017  20.575  0.00  0.00    +0.000 C 
ATOM      6  N   UNL     1       0.190  11.297  19.261  0.00  0.00    +0.000 NA
ATOM      7  C   UNL     1       0.715  10.305  18.299  0.00  0.00    +0.000 C 
ATOM      8  C   UNL     1       0.550   8.842  18.724  0.00  0.00    +0.000 C 
ENDROOT
BRANCH   1  12
ATOM      9  C   UNL     1       4.782   6.916  16.655  0.00  0.00    +0.000 C 
ATOM     10  N   UNL     1       3.790   6.283  17.500  0.00  0.00    +0.000 N 
ATOM     11  N   UNL     1       3.162   7.089  18.408  0.00  0.00    +0.000 NA
ATOM     12  C   UNL     1       2.383   6.560  19.302  0.00  0.00    +0.000 A 
ATOM     13  C   UNL     1       2.005   5.127  19.292  0.00  0.00    +0.000 A 
ATOM     14  C   UNL     1       1.021   4.569  20.119  0.00  0.00    +0.000 A 
ATOM     15  C   UNL     1       0.696   3.212  20.006  0.00  0.00    +0.000 A 
ATOM     16  C   UNL     1       1.367   2.399  19.095  0.00  0.00    +0.000 A 
ATOM     17  C   UNL     1       2.356   2.946  18.281  0.00  0.00    +0.000 A 
ATOM     18  C   UNL     1       2.658   4.313  18.371  0.00  0.00    +0.000 A 
ATOM     19  C   UNL     1       3.658   4.898  17.460  0.00  0.00    +0.000 A 
ATOM     20  O   UNL     1       4.310   4.168  16.717  0.00  0.00    +0.000 OA
ENDBRANCH   1  12
BRANCH   6  21
ATOM     21  C   UNL     1      -1.303  11.310  19.370  0.00  0.00    +0.000 C 
BRANCH  21  22
ATOM     22  C   UNL     1      -1.786  12.661  19.912  0.00  0.00    +0.000 A 
ATOM     23  C   UNL     1      -0.992  13.810  19.791  0.00  0.00    +0.000 A 
ATOM     24  C   UNL     1      -1.370  15.008  20.396  0.00  0.00    +0.000 A 
ATOM     25  C   UNL     1      -2.554  15.072  21.132  0.00  0.00    +0.000 A 
ATOM     26  C   UNL     1      -3.364  13.943  21.250  0.00  0.00    +0.000 A 
ATOM     27  C   UNL     1      -2.987  12.745  20.637  0.00  0.00    +0.000 A 
ENDBRANCH  21  22
BRANCH  21  28
ATOM     28  C   UNL     1      -2.060  10.922  18.087  0.00  0.00    +0.000 A 
ATOM     29  C   UNL     1      -2.796   9.723  18.056  0.00  0.00    +0.000 A 
ATOM     30  C   UNL     1      -3.412   9.288  16.879  0.00  0.00    +0.000 A 
ATOM     31  C   UNL     1      -3.308  10.046  15.716  0.00  0.00    +0.000 A 
ATOM     32  C   UNL     1      -2.628  11.261  15.740  0.00  0.00    +0.000 A 
ATOM     33  C   UNL     1      -2.031  11.707  16.922  0.00  0.00    +0.000 A 
ENDBRANCH  21  28
ENDBRANCH   6  21
TORSDOF 4
ENDMDL
MODEL 8
REMARK VINA RESULT:      -6.9      6.101      9.313
REMARK  Name = 
REMARK  5 active torsions:
REMARK  status: ('A' for Active; 'I' for Inactive)
REMARK    1  A    between atoms: C_1  and  N_2
REMARK    2  A    between atoms: C_4  and  C_5
REMARK    3  A    between atoms: N_10  and  C_11
REMARK    4  A    between atoms: C_11  and  C_12
REMARK    5  A    between atoms: C_11  and  C_18
REMARK                            x       y       z     vdW  Elec       q    Type
REMARK                         _______ _______ _______ _____ _____    ______ ____
ROOT
ATOM      1  C   UNL     1      -1.977  12.460  20.893  0.00  0.00    +0.000 C 
ATOM      2  O   UNL     1      -2.104  11.969  22.011  0.00  0.00    +0.000 OA
ATOM      3  N   UNL     1      -0.853  13.170  20.479  0.00  0.00    +0.000 N 
ATOM      4  C   UNL     1       0.274  13.339  21.398  0.00  0.00    +0.000 C 
ATOM      5  C   UNL     1       1.625  13.189  20.660  0.00  0.00    +0.000 C 
ATOM      6  N   UNL     1       1.779  14.035  19.438  0.00  0.00    +0.000 NA
ATOM      7  C   UNL     1       0.613  13.759  18.574  0.00  0.00    +0.000 C 
ATOM      8  C   UNL     1      -0.751  13.958  19.244  0.00  0.00    +0.000 C 
ENDROOT
BRANCH   1  12
ATOM      9  C   UNL     1      -6.389  13.607  19.455  0.00  0.00    +0.000 C 
ATOM     10  N   UNL     1      -5.220  12.796  19.180  0.00  0.00    +0.000 N 
ATOM     11  N   UNL     1      -4.237  12.804  20.130  0.00  0.00    +0.000 NA
ATOM     12  C   UNL     1      -3.099  12.231  19.878  0.00  0.00    +0.000 A 
ATOM     13  C   UNL     1      -2.860  11.419  18.662  0.00  0.00    +0.000 A 
ATOM     14  C   UNL     1      -1.718  10.633  18.454  0.00  0.00    +0.000 A 
ATOM     15  C   UNL     1      -1.599   9.860  17.293  0.00  0.00    +0.000 A 
ATOM     16  C   UNL     1      -2.598   9.888  16.322  0.00  0.00    +0.000 A 
ATOM     17  C   UNL     1      -3.728  10.678  16.517  0.00  0.00    +0.000 A 
ATOM     18  C   UNL     1      -3.862  11.427  17.695  0.00  0.00    +0.000 A 
ATOM     19  C   UNL     1      -5.091  12.208  17.924  0.00  0.00    +0.000 A 
ATOM     20  O   UNL     1      -5.932  12.301  17.034  0.00  0.00    +0.000 OA
ENDBRANCH   1  12
BRANCH   6  21
ATOM     21  C   UNL     1       1.958  15.482  19.778  0.00  0.00    +0.000 C 
BRANCH  21  22
ATOM     22  C   UNL     1       3.361  15.727  20.345  0.00  0.00    +0.000 A 
ATOM     23  C   UNL     1       3.607  16.792  21.224  0.00  0.00    +0.000 A 
ATOM     24  C   UNL     1       4.904  17.094  21.637  0.00  0.00    +0.000 A 
ATOM     25  C   UNL     1       5.976  16.331  21.174  0.00  0.00    +0.000 A 
ATOM     26  C   UNL     1       5.750  15.259  20.311  0.00  0.00    +0.000 A 
ATOM     27  C   UNL     1       4.448  14.952  19.904  0.00  0.00    +0.000 A 
ENDBRANCH  21  22
BRANCH  21  28
ATOM     28  C   UNL     1       1.636  16.469  18.642  0.00  0.00    +0.000 A 
ATOM     29  C   UNL     1       2.550  16.621  17.581  0.00  0.00    +0.000 A 
ATOM     30  C   UNL     1       2.340  17.579  16.585  0.00  0.00    +0.000 A 
ATOM     31  C   UNL     1       1.214  18.395  16.628  0.00  0.00    +0.000 A 
ATOM     32  C   UNL     1       0.273  18.225  17.640  0.00  0.00    +0.000 A 
ATOM     33  C   UNL     1       0.470  17.252  18.624  0.00  0.00    +0.000 A 
ENDBRANCH  21  28
ENDBRANCH   6  21
TORSDOF 4
ENDMDL
MODEL 9
REMARK VINA RESULT:      -6.8      5.985      9.460
REMARK  Name = 
REMARK  5 active torsions:
REMARK  status: ('A' for Active; 'I' for Inactive)
REMARK    1  A    between atoms: C_1  and  N_2
REMARK    2  A    between atoms: C_4  and  C_5
REMARK    3  A    between atoms: N_10  and  C_11
REMARK    4  A    between atoms: C_11  and  C_12
REMARK    5  A    between atoms: C_11  and  C_18
REMARK                            x       y       z     vdW  Elec       q    Type
REMARK                         _______ _______ _______ _____ _____    ______ ____
ROOT
ATOM      1  C   UNL     1      -1.363  12.509  20.960  0.00  0.00    +0.000 C 
ATOM      2  O   UNL     1      -1.291  11.957  22.054  0.00  0.00    +0.000 OA
ATOM      3  N   UNL     1      -0.370  13.335  20.439  0.00  0.00    +0.000 N 
ATOM      4  C   UNL     1       0.857  13.561  21.205  0.00  0.00    +0.000 C 
ATOM      5  C   UNL     1       2.099  13.567  20.282  0.00  0.00    +0.000 C 
ATOM      6  N   UNL     1       2.010  14.480  19.103  0.00  0.00    +0.000 NA
ATOM      7  C   UNL     1       0.760  14.141  18.390  0.00  0.00    +0.000 C 
ATOM      8  C   UNL     1      -0.507  14.186  19.250  0.00  0.00    +0.000 C 
ENDROOT
BRANCH   1  12
ATOM      9  C   UNL     1      -5.952  13.499  20.061  0.00  0.00    +0.000 C 
ATOM     10  N   UNL     1      -4.801  12.717  19.656  0.00  0.00    +0.000 N 
ATOM     11  N   UNL     1      -3.710  12.772  20.476  0.00  0.00    +0.000 NA
ATOM     12  C   UNL     1      -2.594  12.228  20.094  0.00  0.00    +0.000 A 
ATOM     13  C   UNL     1      -2.481  11.401  18.870  0.00  0.00    +0.000 A 
ATOM     14  C   UNL     1      -1.349  10.645  18.535  0.00  0.00    +0.000 A 
ATOM     15  C   UNL     1      -1.350   9.854  17.380  0.00  0.00    +0.000 A 
ATOM     16  C   UNL     1      -2.461   9.834  16.539  0.00  0.00    +0.000 A 
ATOM     17  C   UNL     1      -3.583  10.595  16.861  0.00  0.00    +0.000 A 
ATOM     18  C   UNL     1      -3.594  11.361  18.035  0.00  0.00    +0.000 A 
ATOM     19  C   UNL     1      -4.810  12.110  18.403  0.00  0.00    +0.000 A 
ATOM     20  O   UNL     1      -5.756  12.162  17.622  0.00  0.00    +0.000 OA
ENDBRANCH   1  12
BRANCH   6  21
ATOM     21  C   UNL     1       2.115  15.919  19.500  0.00  0.00    +0.000 C 
BRANCH  21  22
ATOM     22  C   UNL     1       3.558  16.260  19.892  0.00  0.00    +0.000 A 
ATOM     23  C   UNL     1       4.633  15.502  19.408  0.00  0.00    +0.000 A 
ATOM     24  C   UNL     1       5.931  15.728  19.865  0.00  0.00    +0.000 A 
ATOM     25  C   UNL     1       6.170  16.720  20.816  0.00  0.00    +0.000 A 
ATOM     26  C   UNL     1       5.115  17.494  21.297  0.00  0.00    +0.000 A 
ATOM     27  C   UNL     1       3.815  17.272  20.833  0.00  0.00    +0.000 A 
ENDBRANCH  21  22
BRANCH  21  28
ATOM     28  C   UNL     1       1.564  16.926  18.474  0.00  0.00    +0.000 A 
ATOM     29  C   UNL     1       0.321  17.541  18.710  0.00  0.00    +0.000 A 
ATOM     30  C   UNL     1      -0.258  18.383  17.755  0.00  0.00    +0.000 A 
ATOM     31  C   UNL     1       0.399  18.628  16.552  0.00  0.00    +0.000 A 
ATOM     32  C   UNL     1       1.653  18.070  16.322  0.00  0.00    +0.000 A 
ATOM     33  C   UNL     1       2.242  17.247  17.286  0.00  0.00    +0.000 A 
ENDBRANCH  21  28
ENDBRANCH   6  21
TORSDOF 4
ENDMDL
