MODEL 1
REMARK VINA RESULT:      -7.8      0.000      0.000
REMARK  Name = 
REMARK  8 active torsions:
REMARK  status: ('A' for Active; 'I' for Inactive)
REMARK    1  A    between atoms: C_1  and  S_2
REMARK    2  A    between atoms: S_2  and  N_3
REMARK    3  A    between atoms: C_7  and  N_8
REMARK    4  A    between atoms: N_8  and  O_9
REMARK    5  A    between atoms: O_9  and  C_10
REMARK    6  A    between atoms: C_10  and  C_11
REMARK    7  A    between atoms: C_17  and  C_19
REMARK    8  A    between atoms: C_22  and  N_23
REMARK                            x       y       z     vdW  Elec       q    Type
REMARK                         _______ _______ _______ _____ _____    ______ ____
ROOT
ATOM      1  N   UNL     1       4.704   4.716  16.966  0.00  0.00    +0.000 N 
ATOM      2  C   UNL     1       4.720   6.084  17.236  0.00  0.00    +0.000 C 
ATOM      3  O   UNL     1       5.647   6.833  16.927  0.00  0.00    +0.000 OA
ENDROOT
BRANCH   2   4
ATOM      4  C   UNL     1       3.625   6.687  18.030  0.00  0.00    +0.000 A 
ATOM      5  C   UNL     1       3.323   6.201  19.307  0.00  0.00    +0.000 A 
ATOM      6  C   UNL     1       2.375   6.856  20.099  0.00  0.00    +0.000 A 
ATOM      7  C   UNL     1       1.735   8.004  19.608  0.00  0.00    +0.000 A 
ATOM      8  C   UNL     1       2.050   8.510  18.339  0.00  0.00    +0.000 A 
ATOM      9  C   UNL     1       3.004   7.853  17.555  0.00  0.00    +0.000 A 
BRANCH   7  10
ATOM     10  N   UNL     1       0.738   8.689  20.438  0.00  0.00    +0.000 N 
ATOM     11  O   UNL     1       0.168   8.028  21.321  0.00  0.00    +0.000 OA
ATOM     12  O   UNL     1       0.521   9.888  20.211  0.00  0.00    +0.000 OA
ENDBRANCH   7  10
ENDBRANCH   2   4
BRANCH   1  17
ATOM     13  N   UNL     1       6.003   4.456  14.853  0.00  0.00    +0.000 N 
ATOM     14  C   UNL     1       7.275   4.896  15.007  0.00  0.00    +0.000 C 
ATOM     15  O   UNL     1       8.108   5.315  14.239  0.00  0.00    +0.000 OA
ATOM     16  C   UNL     1       7.223   4.603  16.516  0.00  0.00    +0.000 C 
ATOM     17  C   UNL     1       5.806   4.040  16.229  0.00  0.00    +0.000 C 
BRANCH  13  19
ATOM     18  C   UNL     1       6.172   3.363  12.429  0.00  0.00    +0.000 C 
ATOM     19  S   UNL     1       5.031   4.224  13.541  0.00  0.00    +0.000 S 
ENDBRANCH  13  19
ENDBRANCH   1  17
BRANCH   1  20
ATOM     20  O   UNL     1       3.403   4.104  16.988  0.00  0.00    +0.000 OA
BRANCH  20  21
ATOM     21  C   UNL     1       3.380   2.849  17.674  0.00  0.00    +0.000 C 
BRANCH  21  22
ATOM     22  C   UNL     1       2.717   2.835  19.030  0.00  0.00    +0.000 A 
ATOM     23  C   UNL     1       3.402   2.664  20.235  0.00  0.00    +0.000 A 
ATOM     24  C   UNL     1       2.703   2.706  21.445  0.00  0.00    +0.000 A 
ATOM     25  C   UNL     1       1.327   2.924  21.464  0.00  0.00    +0.000 A 
ATOM     26  C   UNL     1       0.643   3.121  20.276  0.00  0.00    +0.000 A 
ATOM     27  C   UNL     1       1.331   3.083  19.067  0.00  0.00    +0.000 A 
ENDBRANCH  21  22
ENDBRANCH  20  21
ENDBRANCH   1  20
TORSDOF 7
ENDMDL
MODEL 2
REMARK VINA RESULT:      -7.8      0.265      1.115
REMARK  Name = 
REMARK  8 active torsions:
REMARK  status: ('A' for Active; 'I' for Inactive)
REMARK    1  A    between atoms: C_1  and  S_2
REMARK    2  A    between atoms: S_2  and  N_3
REMARK    3  A    between atoms: C_7  and  N_8
REMARK    4  A    between atoms: N_8  and  O_9
REMARK    5  A    between atoms: O_9  and  C_10
REMARK    6  A    between atoms: C_10  and  C_11
REMARK    7  A    between atoms: C_17  and  C_19
REMARK    8  A    between atoms: C_22  and  N_23
REMARK                            x       y       z     vdW  Elec       q    Type
REMARK                         _______ _______ _______ _____ _____    ______ ____
ROOT
ATOM      1  N   UNL     1       4.635   4.846  17.026  0.00  0.00    +0.000 N 
ATOM      2  C   UNL     1       4.714   6.185  17.410  0.00  0.00    +0.000 C 
ATOM      3  O   UNL     1       5.719   6.881  17.265  0.00  0.00    +0.000 OA
ENDROOT
BRANCH   2   4
ATOM      4  C   UNL     1       3.581   6.808  18.130  0.00  0.00    +0.000 A 
ATOM      5  C   UNL     1       3.210   6.352  19.400  0.00  0.00    +0.000 A 
ATOM      6  C   UNL     1       2.224   7.027  20.126  0.00  0.00    +0.000 A 
ATOM      7  C   UNL     1       1.616   8.166  19.577  0.00  0.00    +0.000 A 
ATOM      8  C   UNL     1       2.001   8.643  18.316  0.00  0.00    +0.000 A 
ATOM      9  C   UNL     1       2.993   7.967  17.598  0.00  0.00    +0.000 A 
BRANCH   7  10
ATOM     10  N   UNL     1       0.580   8.874  20.337  0.00  0.00    +0.000 N 
ATOM     11  O   UNL     1       0.052   9.866  19.808  0.00  0.00    +0.000 OA
ATOM     12  O   UNL     1       0.291   8.442  21.462  0.00  0.00    +0.000 OA
ENDBRANCH   7  10
ENDBRANCH   2   4
BRANCH   1  17
ATOM     13  N   UNL     1       5.975   4.468  14.957  0.00  0.00    +0.000 N 
ATOM     14  C   UNL     1       7.236   4.945  15.100  0.00  0.00    +0.000 C 
ATOM     15  O   UNL     1       8.073   5.328  14.318  0.00  0.00    +0.000 OA
ATOM     16  C   UNL     1       7.163   4.757  16.625  0.00  0.00    +0.000 C 
ATOM     17  C   UNL     1       5.764   4.145  16.356  0.00  0.00    +0.000 C 
BRANCH  13  19
ATOM     18  C   UNL     1       6.262   3.406  12.530  0.00  0.00    +0.000 C 
ATOM     19  S   UNL     1       5.032   4.122  13.650  0.00  0.00    +0.000 S 
ENDBRANCH  13  19
ENDBRANCH   1  17
BRANCH   1  20
ATOM     20  O   UNL     1       3.300   4.337  16.858  0.00  0.00    +0.000 OA
BRANCH  20  21
ATOM     21  C   UNL     1       3.105   3.054  17.461  0.00  0.00    +0.000 C 
BRANCH  21  22
ATOM     22  C   UNL     1       2.507   3.046  18.847  0.00  0.00    +0.000 A 
ATOM     23  C   UNL     1       1.152   3.253  19.116  0.00  0.00    +0.000 A 
ATOM     24  C   UNL     1       0.685   3.187  20.432  0.00  0.00    +0.000 A 
ATOM     25  C   UNL     1       1.558   2.909  21.482  0.00  0.00    +0.000 A 
ATOM     26  C   UNL     1       2.898   2.676  21.223  0.00  0.00    +0.000 A 
ATOM     27  C   UNL     1       3.371   2.738  19.915  0.00  0.00    +0.000 A 
ENDBRANCH  21  22
ENDBRANCH  20  21
ENDBRANCH   1  20
TORSDOF 7
ENDMDL
MODEL 3
REMARK VINA RESULT:      -7.7      3.091      6.021
REMARK  Name = 
REMARK  8 active torsions:
REMARK  status: ('A' for Active; 'I' for Inactive)
REMARK    1  A    between atoms: C_1  and  S_2
REMARK    2  A    between atoms: S_2  and  N_3
REMARK    3  A    between atoms: C_7  and  N_8
REMARK    4  A    between atoms: N_8  and  O_9
REMARK    5  A    between atoms: O_9  and  C_10
REMARK    6  A    between atoms: C_10  and  C_11
REMARK    7  A    between atoms: C_17  and  C_19
REMARK    8  A    between atoms: C_22  and  N_23
REMARK                            x       y       z     vdW  Elec       q    Type
REMARK                         _______ _______ _______ _____ _____    ______ ____
ROOT
ATOM      1  N   UNL     1       4.806   4.411  18.185  0.00  0.00    +0.000 N 
ATOM      2  C   UNL     1       5.897   4.687  17.360  0.00  0.00    +0.000 C 
ATOM      3  O   UNL     1       6.318   3.914  16.500  0.00  0.00    +0.000 OA
ENDROOT
BRANCH   2   4
ATOM      4  C   UNL     1       6.681   5.925  17.572  0.00  0.00    +0.000 A 
ATOM      5  C   UNL     1       6.356   7.098  16.881  0.00  0.00    +0.000 A 
ATOM      6  C   UNL     1       7.017   8.292  17.181  0.00  0.00    +0.000 A 
ATOM      7  C   UNL     1       8.002   8.309  18.180  0.00  0.00    +0.000 A 
ATOM      8  C   UNL     1       8.315   7.143  18.893  0.00  0.00    +0.000 A 
ATOM      9  C   UNL     1       7.645   5.953  18.593  0.00  0.00    +0.000 A 
BRANCH   7  10
ATOM     10  N   UNL     1       8.698   9.562  18.492  0.00  0.00    +0.000 N 
ATOM     11  O   UNL     1       8.594  10.498  17.682  0.00  0.00    +0.000 OA
ATOM     12  O   UNL     1       9.352   9.615  19.544  0.00  0.00    +0.000 OA
ENDBRANCH   7  10
ENDBRANCH   2   4
BRANCH   1  17
ATOM     13  N   UNL     1       3.002   2.939  19.077  0.00  0.00    +0.000 N 
ATOM     14  C   UNL     1       1.947   2.894  18.228  0.00  0.00    +0.000 C 
ATOM     15  O   UNL     1       0.771   2.662  18.376  0.00  0.00    +0.000 OA
ATOM     16  C   UNL     1       2.861   3.209  17.032  0.00  0.00    +0.000 C 
ATOM     17  C   UNL     1       4.018   3.155  18.064  0.00  0.00    +0.000 C 
BRANCH  13  19
ATOM     18  C   UNL     1       2.129   3.924  21.394  0.00  0.00    +0.000 C 
ATOM     19  S   UNL     1       3.180   2.629  20.687  0.00  0.00    +0.000 S 
ENDBRANCH  13  19
ENDBRANCH   1  17
BRANCH   1  20
ATOM     20  O   UNL     1       4.195   5.562  18.795  0.00  0.00    +0.000 OA
BRANCH  20  21
ATOM     21  C   UNL     1       3.277   6.238  17.930  0.00  0.00    +0.000 C 
BRANCH  21  22
ATOM     22  C   UNL     1       2.507   7.387  18.533  0.00  0.00    +0.000 A 
ATOM     23  C   UNL     1       2.055   8.493  17.809  0.00  0.00    +0.000 A 
ATOM     24  C   UNL     1       1.314   9.489  18.450  0.00  0.00    +0.000 A 
ATOM     25  C   UNL     1       1.012   9.388  19.807  0.00  0.00    +0.000 A 
ATOM     26  C   UNL     1       1.432   8.283  20.528  0.00  0.00    +0.000 A 
ATOM     27  C   UNL     1       2.170   7.285  19.896  0.00  0.00    +0.000 A 
ENDBRANCH  21  22
ENDBRANCH  20  21
ENDBRANCH   1  20
TORSDOF 7
ENDMDL
MODEL 4
REMARK VINA RESULT:      -7.7      3.110      5.953
REMARK  Name = 
REMARK  8 active torsions:
REMARK  status: ('A' for Active; 'I' for Inactive)
REMARK    1  A    between atoms: C_1  and  S_2
REMARK    2  A    between atoms: S_2  and  N_3
REMARK    3  A    between atoms: C_7  and  N_8
REMARK    4  A    between atoms: N_8  and  O_9
REMARK    5  A    between atoms: O_9  and  C_10
REMARK    6  A    between atoms: C_10  and  C_11
REMARK    7  A    between atoms: C_17  and  C_19
REMARK    8  A    between atoms: C_22  and  N_23
REMARK                            x       y       z     vdW  Elec       q    Type
REMARK                         _______ _______ _______ _____ _____    ______ ____
ROOT
ATOM      1  N   UNL     1       4.760   4.317  18.221  0.00  0.00    +0.000 N 
ATOM      2  C   UNL     1       5.811   4.612  17.353  0.00  0.00    +0.000 C 
ATOM      3  O   UNL     1       6.211   3.846  16.476  0.00  0.00    +0.000 OA
ENDROOT
BRANCH   2   4
ATOM      4  C   UNL     1       6.581   5.863  17.534  0.00  0.00    +0.000 A 
ATOM      5  C   UNL     1       6.198   7.035  16.872  0.00  0.00    +0.000 A 
ATOM      6  C   UNL     1       6.851   8.240  17.147  0.00  0.00    +0.000 A 
ATOM      7  C   UNL     1       7.887   8.268  18.093  0.00  0.00    +0.000 A 
ATOM      8  C   UNL     1       8.260   7.102  18.777  0.00  0.00    +0.000 A 
ATOM      9  C   UNL     1       7.597   5.902  18.502  0.00  0.00    +0.000 A 
BRANCH   7  10
ATOM     10  N   UNL     1       8.575   9.531  18.379  0.00  0.00    +0.000 N 
ATOM     11  O   UNL     1       9.372   9.552  19.331  0.00  0.00    +0.000 OA
ATOM     12  O   UNL     1       8.322  10.505  17.655  0.00  0.00    +0.000 OA
ENDBRANCH   7  10
ENDBRANCH   2   4
BRANCH   1  17
ATOM     13  N   UNL     1       2.977   2.841  19.150  0.00  0.00    +0.000 N 
ATOM     14  C   UNL     1       1.922   2.761  18.303  0.00  0.00    +0.000 C 
ATOM     15  O   UNL     1       0.749   2.516  18.458  0.00  0.00    +0.000 OA
ATOM     16  C   UNL     1       2.830   3.061  17.099  0.00  0.00    +0.000 C 
ATOM     17  C   UNL     1       3.989   3.048  18.130  0.00  0.00    +0.000 C 
BRANCH  13  19
ATOM     18  C   UNL     1       2.100   3.875  21.444  0.00  0.00    +0.000 C 
ATOM     19  S   UNL     1       3.160   2.572  20.766  0.00  0.00    +0.000 S 
ENDBRANCH  13  19
ENDBRANCH   1  17
BRANCH   1  20
ATOM     20  O   UNL     1       4.154   5.457  18.855  0.00  0.00    +0.000 OA
BRANCH  20  21
ATOM     21  C   UNL     1       3.243   6.159  18.004  0.00  0.00    +0.000 C 
BRANCH  21  22
ATOM     22  C   UNL     1       2.440   7.265  18.644  0.00  0.00    +0.000 A 
ATOM     23  C   UNL     1       2.114   7.310  20.002  0.00  0.00    +0.000 A 
ATOM     24  C   UNL     1       1.398   8.398  20.510  0.00  0.00    +0.000 A 
ATOM     25  C   UNL     1       1.012   9.446  19.677  0.00  0.00    +0.000 A 
ATOM     26  C   UNL     1       1.353   9.424  18.335  0.00  0.00    +0.000 A 
ATOM     27  C   UNL     1       2.067   8.344  17.821  0.00  0.00    +0.000 A 
ENDBRANCH  21  22
ENDBRANCH  20  21
ENDBRANCH   1  20
TORSDOF 7
ENDMDL
MODEL 5
REMARK VINA RESULT:      -7.6      3.205      5.995
REMARK  Name = 
REMARK  8 active torsions:
REMARK  status: ('A' for Active; 'I' for Inactive)
REMARK    1  A    between atoms: C_1  and  S_2
REMARK    2  A    between atoms: S_2  and  N_3
REMARK    3  A    between atoms: C_7  and  N_8
REMARK    4  A    between atoms: N_8  and  O_9
REMARK    5  A    between atoms: O_9  and  C_10
REMARK    6  A    between atoms: C_10  and  C_11
REMARK    7  A    between atoms: C_17  and  C_19
REMARK    8  A    between atoms: C_22  and  N_23
REMARK                            x       y       z     vdW  Elec       q    Type
REMARK                         _______ _______ _______ _____ _____    ______ ____
ROOT
ATOM      1  N   UNL     1       4.911   4.516  18.373  0.00  0.00    +0.000 N 
ATOM      2  C   UNL     1       6.053   4.872  17.655  0.00  0.00    +0.000 C 
ATOM      3  O   UNL     1       6.583   4.150  16.811  0.00  0.00    +0.000 OA
ENDROOT
BRANCH   2   4
ATOM      4  C   UNL     1       6.754   6.136  17.974  0.00  0.00    +0.000 A 
ATOM      5  C   UNL     1       7.765   6.163  18.942  0.00  0.00    +0.000 A 
ATOM      6  C   UNL     1       8.508   7.329  19.145  0.00  0.00    +0.000 A 
ATOM      7  C   UNL     1       8.239   8.467  18.370  0.00  0.00    +0.000 A 
ATOM      8  C   UNL     1       7.245   8.440  17.382  0.00  0.00    +0.000 A 
ATOM      9  C   UNL     1       6.510   7.267  17.179  0.00  0.00    +0.000 A 
BRANCH   7  10
ATOM     10  N   UNL     1       9.017   9.692  18.586  0.00  0.00    +0.000 N 
ATOM     11  O   UNL     1       9.338   9.974  19.752  0.00  0.00    +0.000 OA
ATOM     12  O   UNL     1       9.309  10.375  17.594  0.00  0.00    +0.000 OA
ENDBRANCH   7  10
ENDBRANCH   2   4
BRANCH   1  17
ATOM     13  N   UNL     1       3.122   2.923  19.068  0.00  0.00    +0.000 N 
ATOM     14  C   UNL     1       2.136   2.865  18.141  0.00  0.00    +0.000 C 
ATOM     15  O   UNL     1       0.965   2.571  18.190  0.00  0.00    +0.000 OA
ATOM     16  C   UNL     1       3.118   3.274  17.031  0.00  0.00    +0.000 C 
ATOM     17  C   UNL     1       4.197   3.231  18.144  0.00  0.00    +0.000 C 
BRANCH  13  19
ATOM     18  C   UNL     1       2.007   3.744  21.345  0.00  0.00    +0.000 C 
ATOM     19  S   UNL     1       3.197   2.554  20.674  0.00  0.00    +0.000 S 
ENDBRANCH  13  19
ENDBRANCH   1  17
BRANCH   1  20
ATOM     20  O   UNL     1       4.194   5.615  18.963  0.00  0.00    +0.000 OA
BRANCH  20  21
ATOM     21  C   UNL     1       3.329   6.286  18.041  0.00  0.00    +0.000 C 
BRANCH  21  22
ATOM     22  C   UNL     1       2.528   7.441  18.590  0.00  0.00    +0.000 A 
ATOM     23  C   UNL     1       2.129   8.546  17.834  0.00  0.00    +0.000 A 
ATOM     24  C   UNL     1       1.354   9.549  18.422  0.00  0.00    +0.000 A 
ATOM     25  C   UNL     1       0.965   9.455  19.757  0.00  0.00    +0.000 A 
ATOM     26  C   UNL     1       1.332   8.351  20.508  0.00  0.00    +0.000 A 
ATOM     27  C   UNL     1       2.104   7.347  19.929  0.00  0.00    +0.000 A 
ENDBRANCH  21  22
ENDBRANCH  20  21
ENDBRANCH   1  20
TORSDOF 7
ENDMDL
MODEL 6
REMARK VINA RESULT:      -7.6      1.203      1.373
REMARK  Name = 
REMARK  8 active torsions:
REMARK  status: ('A' for Active; 'I' for Inactive)
REMARK    1  A    between atoms: C_1  and  S_2
REMARK    2  A    between atoms: S_2  and  N_3
REMARK    3  A    between atoms: C_7  and  N_8
REMARK    4  A    between atoms: N_8  and  O_9
REMARK    5  A    between atoms: O_9  and  C_10
REMARK    6  A    between atoms: C_10  and  C_11
REMARK    7  A    between atoms: C_17  and  C_19
REMARK    8  A    between atoms: C_22  and  N_23
REMARK                            x       y       z     vdW  Elec       q    Type
REMARK                         _______ _______ _______ _____ _____    ______ ____
ROOT
ATOM      1  N   UNL     1       3.693   5.092  17.495  0.00  0.00    +0.000 N 
ATOM      2  C   UNL     1       3.965   6.438  17.741  0.00  0.00    +0.000 C 
ATOM      3  O   UNL     1       5.076   6.949  17.601  0.00  0.00    +0.000 OA
ENDROOT
BRANCH   2   4
ATOM      4  C   UNL     1       2.907   7.309  18.301  0.00  0.00    +0.000 A 
ATOM      5  C   UNL     1       2.450   7.117  19.610  0.00  0.00    +0.000 A 
ATOM      6  C   UNL     1       1.545   8.021  20.174  0.00  0.00    +0.000 A 
ATOM      7  C   UNL     1       1.105   9.122  19.424  0.00  0.00    +0.000 A 
ATOM      8  C   UNL     1       1.577   9.333  18.121  0.00  0.00    +0.000 A 
ATOM      9  C   UNL     1       2.488   8.428  17.565  0.00  0.00    +0.000 A 
BRANCH   7  10
ATOM     10  N   UNL     1       0.153  10.069  20.015  0.00  0.00    +0.000 N 
ATOM     11  O   UNL     1      -0.317   9.795  21.132  0.00  0.00    +0.000 OA
ATOM     12  O   UNL     1      -0.130  11.087  19.367  0.00  0.00    +0.000 OA
ENDBRANCH   7  10
ENDBRANCH   2   4
BRANCH   1  17
ATOM     13  N   UNL     1       5.705   4.709  16.073  0.00  0.00    +0.000 N 
ATOM     14  C   UNL     1       6.796   4.451  16.834  0.00  0.00    +0.000 C 
ATOM     15  O   UNL     1       7.984   4.581  16.654  0.00  0.00    +0.000 OA
ATOM     16  C   UNL     1       5.912   3.903  17.966  0.00  0.00    +0.000 C 
ATOM     17  C   UNL     1       4.730   4.152  16.992  0.00  0.00    +0.000 C 
BRANCH  13  19
ATOM     18  C   UNL     1       6.314   3.927  13.600  0.00  0.00    +0.000 C 
ATOM     19  S   UNL     1       5.497   5.250  14.529  0.00  0.00    +0.000 S 
ENDBRANCH  13  19
ENDBRANCH   1  17
BRANCH   1  20
ATOM     20  O   UNL     1       2.305   4.779  17.280  0.00  0.00    +0.000 OA
BRANCH  20  21
ATOM     21  C   UNL     1       1.957   3.451  17.682  0.00  0.00    +0.000 C 
BRANCH  21  22
ATOM     22  C   UNL     1       2.093   3.135  19.151  0.00  0.00    +0.000 A 
ATOM     23  C   UNL     1       3.171   2.441  19.707  0.00  0.00    +0.000 A 
ATOM     24  C   UNL     1       3.226   2.232  21.087  0.00  0.00    +0.000 A 
ATOM     25  C   UNL     1       2.220   2.716  21.921  0.00  0.00    +0.000 A 
ATOM     26  C   UNL     1       1.161   3.427  21.384  0.00  0.00    +0.000 A 
ATOM     27  C   UNL     1       1.098   3.642  20.009  0.00  0.00    +0.000 A 
ENDBRANCH  21  22
ENDBRANCH  20  21
ENDBRANCH   1  20
TORSDOF 7
ENDMDL
MODEL 7
REMARK VINA RESULT:      -7.3      1.226      1.876
REMARK  Name = 
REMARK  8 active torsions:
REMARK  status: ('A' for Active; 'I' for Inactive)
REMARK    1  A    between atoms: C_1  and  S_2
REMARK    2  A    between atoms: S_2  and  N_3
REMARK    3  A    between atoms: C_7  and  N_8
REMARK    4  A    between atoms: N_8  and  O_9
REMARK    5  A    between atoms: O_9  and  C_10
REMARK    6  A    between atoms: C_10  and  C_11
REMARK    7  A    between atoms: C_17  and  C_19
REMARK    8  A    between atoms: C_22  and  N_23
REMARK                            x       y       z     vdW  Elec       q    Type
REMARK                         _______ _______ _______ _____ _____    ______ ____
ROOT
ATOM      1  N   UNL     1       3.759   5.230  17.558  0.00  0.00    +0.000 N 
ATOM      2  C   UNL     1       4.086   6.568  17.780  0.00  0.00    +0.000 C 
ATOM      3  O   UNL     1       5.215   7.033  17.619  0.00  0.00    +0.000 OA
ENDROOT
BRANCH   2   4
ATOM      4  C   UNL     1       3.070   7.487  18.341  0.00  0.00    +0.000 A 
ATOM      5  C   UNL     1       2.504   8.490  17.545  0.00  0.00    +0.000 A 
ATOM      6  C   UNL     1       1.456   9.269  18.043  0.00  0.00    +0.000 A 
ATOM      7  C   UNL     1       0.973   9.037  19.340  0.00  0.00    +0.000 A 
ATOM      8  C   UNL     1       1.520   8.018  20.133  0.00  0.00    +0.000 A 
ATOM      9  C   UNL     1       2.564   7.237  19.626  0.00  0.00    +0.000 A 
BRANCH   7  10
ATOM     10  N   UNL     1      -0.125   9.857  19.864  0.00  0.00    +0.000 N 
ATOM     11  O   UNL     1      -0.149  10.076  21.086  0.00  0.00    +0.000 OA
ATOM     12  O   UNL     1      -0.965  10.283  19.058  0.00  0.00    +0.000 OA
ENDBRANCH   7  10
ENDBRANCH   2   4
BRANCH   1  17
ATOM     13  N   UNL     1       5.728   4.746  16.107  0.00  0.00    +0.000 N 
ATOM     14  C   UNL     1       6.825   4.466  16.852  0.00  0.00    +0.000 C 
ATOM     15  O   UNL     1       8.012   4.550  16.647  0.00  0.00    +0.000 OA
ATOM     16  C   UNL     1       5.944   3.974  18.012  0.00  0.00    +0.000 C 
ATOM     17  C   UNL     1       4.753   4.243  17.056  0.00  0.00    +0.000 C 
BRANCH  13  19
ATOM     18  C   UNL     1       6.232   3.876  13.639  0.00  0.00    +0.000 C 
ATOM     19  S   UNL     1       5.509   5.260  14.555  0.00  0.00    +0.000 S 
ENDBRANCH  13  19
ENDBRANCH   1  17
BRANCH   1  20
ATOM     20  O   UNL     1       2.358   4.969  17.364  0.00  0.00    +0.000 OA
BRANCH  20  21
ATOM     21  C   UNL     1       1.972   3.645  17.746  0.00  0.00    +0.000 C 
BRANCH  21  22
ATOM     22  C   UNL     1       2.025   3.328  19.221  0.00  0.00    +0.000 A 
ATOM     23  C   UNL     1       1.013   3.652  20.128  0.00  0.00    +0.000 A 
ATOM     24  C   UNL     1       1.137   3.280  21.470  0.00  0.00    +0.000 A 
ATOM     25  C   UNL     1       2.257   2.581  21.914  0.00  0.00    +0.000 A 
ATOM     26  C   UNL     1       3.254   2.233  21.018  0.00  0.00    +0.000 A 
ATOM     27  C   UNL     1       3.138   2.597  19.679  0.00  0.00    +0.000 A 
ENDBRANCH  21  22
ENDBRANCH  20  21
ENDBRANCH   1  20
TORSDOF 7
ENDMDL
MODEL 8
REMARK VINA RESULT:      -7.3      3.191      5.938
REMARK  Name = 
REMARK  8 active torsions:
REMARK  status: ('A' for Active; 'I' for Inactive)
REMARK    1  A    between atoms: C_1  and  S_2
REMARK    2  A    between atoms: S_2  and  N_3
REMARK    3  A    between atoms: C_7  and  N_8
REMARK    4  A    between atoms: N_8  and  O_9
REMARK    5  A    between atoms: O_9  and  C_10
REMARK    6  A    between atoms: C_10  and  C_11
REMARK    7  A    between atoms: C_17  and  C_19
REMARK    8  A    between atoms: C_22  and  N_23
REMARK                            x       y       z     vdW  Elec       q    Type
REMARK                         _______ _______ _______ _____ _____    ______ ____
ROOT
ATOM      1  N   UNL     1       4.796   4.532  18.324  0.00  0.00    +0.000 N 
ATOM      2  C   UNL     1       5.931   4.880  17.591  0.00  0.00    +0.000 C 
ATOM      3  O   UNL     1       6.438   4.160  16.730  0.00  0.00    +0.000 OA
ENDROOT
BRANCH   2   4
ATOM      4  C   UNL     1       6.655   6.130  17.911  0.00  0.00    +0.000 A 
ATOM      5  C   UNL     1       7.673   6.136  18.871  0.00  0.00    +0.000 A 
ATOM      6  C   UNL     1       8.437   7.289  19.076  0.00  0.00    +0.000 A 
ATOM      7  C   UNL     1       8.180   8.435  18.309  0.00  0.00    +0.000 A 
ATOM      8  C   UNL     1       7.178   8.429  17.328  0.00  0.00    +0.000 A 
ATOM      9  C   UNL     1       6.423   7.270  17.125  0.00  0.00    +0.000 A 
BRANCH   7  10
ATOM     10  N   UNL     1       8.979   9.647  18.526  0.00  0.00    +0.000 N 
ATOM     11  O   UNL     1       9.146  10.409  17.559  0.00  0.00    +0.000 OA
ATOM     12  O   UNL     1       9.443   9.840  19.659  0.00  0.00    +0.000 OA
ENDBRANCH   7  10
ENDBRANCH   2   4
BRANCH   1  17
ATOM     13  N   UNL     1       3.001   2.954  19.035  0.00  0.00    +0.000 N 
ATOM     14  C   UNL     1       1.996   2.920  18.125  0.00  0.00    +0.000 C 
ATOM     15  O   UNL     1       0.823   2.641  18.194  0.00  0.00    +0.000 OA
ATOM     16  C   UNL     1       2.962   3.329  17.002  0.00  0.00    +0.000 C 
ATOM     17  C   UNL     1       4.062   3.259  18.093  0.00  0.00    +0.000 C 
BRANCH  13  19
ATOM     18  C   UNL     1       4.736   1.787  20.686  0.00  0.00    +0.000 C 
ATOM     19  S   UNL     1       3.101   2.564  20.634  0.00  0.00    +0.000 S 
ENDBRANCH  13  19
ENDBRANCH   1  17
BRANCH   1  20
ATOM     20  O   UNL     1       4.105   5.634  18.937  0.00  0.00    +0.000 OA
BRANCH  20  21
ATOM     21  C   UNL     1       3.240   6.331  18.035  0.00  0.00    +0.000 C 
BRANCH  21  22
ATOM     22  C   UNL     1       2.434   7.466  18.618  0.00  0.00    +0.000 A 
ATOM     23  C   UNL     1       2.009   7.522  19.947  0.00  0.00    +0.000 A 
ATOM     24  C   UNL     1       1.299   8.636  20.404  0.00  0.00    +0.000 A 
ATOM     25  C   UNL     1       1.016   9.699  19.548  0.00  0.00    +0.000 A 
ATOM     26  C   UNL     1       1.456   9.665  18.235  0.00  0.00    +0.000 A 
ATOM     27  C   UNL     1       2.166   8.559  17.773  0.00  0.00    +0.000 A 
ENDBRANCH  21  22
ENDBRANCH  20  21
ENDBRANCH   1  20
TORSDOF 7
ENDMDL
MODEL 9
REMARK VINA RESULT:      -7.2      2.870      6.736
REMARK  Name = 
REMARK  8 active torsions:
REMARK  status: ('A' for Active; 'I' for Inactive)
REMARK    1  A    between atoms: C_1  and  S_2
REMARK    2  A    between atoms: S_2  and  N_3
REMARK    3  A    between atoms: C_7  and  N_8
REMARK    4  A    between atoms: N_8  and  O_9
REMARK    5  A    between atoms: O_9  and  C_10
REMARK    6  A    between atoms: C_10  and  C_11
REMARK    7  A    between atoms: C_17  and  C_19
REMARK    8  A    between atoms: C_22  and  N_23
REMARK                            x       y       z     vdW  Elec       q    Type
REMARK                         _______ _______ _______ _____ _____    ______ ____
ROOT
ATOM      1  N   UNL     1       2.094   7.647  19.044  0.00  0.00    +0.000 N 
ATOM      2  C   UNL     1       2.904   7.950  17.949  0.00  0.00    +0.000 C 
ATOM      3  O   UNL     1       2.688   8.882  17.174  0.00  0.00    +0.000 OA
ENDROOT
BRANCH   2   4
ATOM      4  C   UNL     1       4.038   7.061  17.608  0.00  0.00    +0.000 A 
ATOM      5  C   UNL     1       3.807   5.799  17.050  0.00  0.00    +0.000 A 
ATOM      6  C   UNL     1       4.882   5.019  16.614  0.00  0.00    +0.000 A 
ATOM      7  C   UNL     1       6.190   5.512  16.732  0.00  0.00    +0.000 A 
ATOM      8  C   UNL     1       6.427   6.786  17.268  0.00  0.00    +0.000 A 
ATOM      9  C   UNL     1       5.346   7.564  17.696  0.00  0.00    +0.000 A 
BRANCH   7  10
ATOM     10  N   UNL     1       7.318   4.693  16.277  0.00  0.00    +0.000 N 
ATOM     11  O   UNL     1       8.048   4.183  17.144  0.00  0.00    +0.000 OA
ATOM     12  O   UNL     1       7.480   4.557  15.056  0.00  0.00    +0.000 OA
ENDBRANCH   7  10
ENDBRANCH   2   4
BRANCH   1  17
ATOM     13  N   UNL     1       1.071   9.386  20.509  0.00  0.00    +0.000 N 
ATOM     14  C   UNL     1       0.805  10.516  19.810  0.00  0.00    +0.000 C 
ATOM     15  O   UNL     1       0.688  11.678  20.121  0.00  0.00    +0.000 OA
ATOM     16  C   UNL     1       0.678   9.712  18.506  0.00  0.00    +0.000 C 
ATOM     17  C   UNL     1       0.904   8.465  19.400  0.00  0.00    +0.000 C 
BRANCH  13  19
ATOM     18  C   UNL     1      -0.313   9.598  22.776  0.00  0.00    +0.000 C 
ATOM     19  S   UNL     1       1.286   9.065  22.112  0.00  0.00    +0.000 S 
ENDBRANCH  13  19
ENDBRANCH   1  17
BRANCH   1  20
ATOM     20  O   UNL     1       2.718   6.844  20.061  0.00  0.00    +0.000 OA
BRANCH  20  21
ATOM     21  C   UNL     1       1.924   5.725  20.463  0.00  0.00    +0.000 C 
BRANCH  21  22
ATOM     22  C   UNL     1       2.205   4.415  19.768  0.00  0.00    +0.000 A 
ATOM     23  C   UNL     1       1.350   3.824  18.835  0.00  0.00    +0.000 A 
ATOM     24  C   UNL     1       1.717   2.627  18.214  0.00  0.00    +0.000 A 
ATOM     25  C   UNL     1       2.935   2.018  18.509  0.00  0.00    +0.000 A 
ATOM     26  C   UNL     1       3.802   2.609  19.413  0.00  0.00    +0.000 A 
ATOM     27  C   UNL     1       3.445   3.803  20.035  0.00  0.00    +0.000 A 
ENDBRANCH  21  22
ENDBRANCH  20  21
ENDBRANCH   1  20
TORSDOF 7
ENDMDL
