MODEL 1
REMARK VINA RESULT:      -7.8      0.000      0.000
REMARK  Name = 
REMARK  8 active torsions:
REMARK  status: ('A' for Active; 'I' for Inactive)
REMARK    1  A    between atoms: C_1  and  O_2
REMARK    2  A    between atoms: O_2  and  C_3
REMARK    3  A    between atoms: C_5  and  C_6
REMARK    4  A    between atoms: C_6  and  N_7
REMARK    5  A    between atoms: N_7  and  C_8
REMARK    6  A    between atoms: C_16  and  O_17
REMARK    7  A    between atoms: O_17  and  C_18
REMARK    8  A    between atoms: C_18  and  C_19
REMARK                            x       y       z     vdW  Elec       q    Type
REMARK                         _______ _______ _______ _____ _____    ______ ____
ROOT
ATOM      1  C   UNL     1       5.121   4.681  18.411  0.00  0.00    +0.000 A 
ATOM      2  C   UNL     1       5.822   4.451  17.223  0.00  0.00    +0.000 A 
ATOM      3  C   UNL     1       5.735   5.332  16.141  0.00  0.00    +0.000 A 
ATOM      4  C   UNL     1       4.916   6.460  16.259  0.00  0.00    +0.000 A 
ATOM      5  C   UNL     1       4.229   6.715  17.454  0.00  0.00    +0.000 A 
ATOM      6 CL   UNL     1       3.262   8.149  17.535  0.00  0.00    +0.000 Cl
ATOM      7  C   UNL     1       4.347   5.847  18.556  0.00  0.00    +0.000 A 
ENDROOT
BRANCH   1   9
ATOM      8  C   UNL     1       4.604   2.569  19.383  0.00  0.00    +0.000 C 
ATOM      9  O   UNL     1       5.268   3.824  19.471  0.00  0.00    +0.000 OA
ENDBRANCH   1   9
BRANCH   3  10
ATOM     10  C   UNL     1       6.530   5.045  14.892  0.00  0.00    +0.000 C 
BRANCH  10  11
ATOM     11  N   UNL     1       5.652   4.736  13.770  0.00  0.00    +0.000 NA
ATOM     12  H   UNL     1       5.666   5.511  13.108  0.00  0.00    +0.000 HD
BRANCH  11  13
ATOM     13  C   UNL     1       6.029   3.497  13.097  0.00  0.00    +0.000 C 
ATOM     14  C   UNL     1       4.922   3.037  12.151  0.00  0.00    +0.000 C 
ATOM     15  C   UNL     1       5.607   1.992  11.278  0.00  0.00    +0.000 C 
ATOM     16  C   UNL     1       7.075   2.411  11.203  0.00  0.00    +0.000 C 
ATOM     17  C   UNL     1       7.234   3.593  12.158  0.00  0.00    +0.000 C 
ENDBRANCH  11  13
ENDBRANCH  10  11
ENDBRANCH   3  10
BRANCH   7  18
ATOM     18  O   UNL     1       3.673   6.221  19.701  0.00  0.00    +0.000 OA
BRANCH  18  19
ATOM     19  C   UNL     1       2.247   6.140  19.639  0.00  0.00    +0.000 C 
BRANCH  19  20
ATOM     20  C   UNL     1       1.734   4.734  19.774  0.00  0.00    +0.000 A 
ATOM     21  C   UNL     1       1.692   4.061  20.997  0.00  0.00    +0.000 A 
ATOM     22  C   UNL     1       1.282   2.727  21.041  0.00  0.00    +0.000 A 
ATOM     23  C   UNL     1       0.929   2.055  19.873  0.00  0.00    +0.000 A 
ATOM     24  C   UNL     1       0.986   2.713  18.648  0.00  0.00    +0.000 A 
ATOM     25  C   UNL     1       1.389   4.042  18.606  0.00  0.00    +0.000 A 
ATOM     26  F   UNL     1       1.468   4.656  17.418  0.00  0.00    +0.000 F 
ENDBRANCH  19  20
ENDBRANCH  18  19
ENDBRANCH   7  18
TORSDOF 7
ENDMDL
MODEL 2
REMARK VINA RESULT:      -7.7      3.755      5.746
REMARK  Name = 
REMARK  8 active torsions:
REMARK  status: ('A' for Active; 'I' for Inactive)
REMARK    1  A    between atoms: C_1  and  O_2
REMARK    2  A    between atoms: O_2  and  C_3
REMARK    3  A    between atoms: C_5  and  C_6
REMARK    4  A    between atoms: C_6  and  N_7
REMARK    5  A    between atoms: N_7  and  C_8
REMARK    6  A    between atoms: C_16  and  O_17
REMARK    7  A    between atoms: O_17  and  C_18
REMARK    8  A    between atoms: C_18  and  C_19
REMARK                            x       y       z     vdW  Elec       q    Type
REMARK                         _______ _______ _______ _____ _____    ______ ____
ROOT
ATOM      1  C   UNL     1       5.876   4.732  16.171  0.00  0.00    +0.000 A 
ATOM      2  C   UNL     1       6.928   5.640  16.322  0.00  0.00    +0.000 A 
ATOM      3  C   UNL     1       6.813   6.762  17.147  0.00  0.00    +0.000 A 
ATOM      4  C   UNL     1       5.606   6.976  17.823  0.00  0.00    +0.000 A 
ATOM      5  C   UNL     1       4.553   6.059  17.700  0.00  0.00    +0.000 A 
ATOM      6 CL   UNL     1       3.105   6.375  18.595  0.00  0.00    +0.000 Cl
ATOM      7  C   UNL     1       4.685   4.909  16.899  0.00  0.00    +0.000 A 
ENDROOT
BRANCH   1   9
ATOM      8  C   UNL     1       6.208   3.820  13.996  0.00  0.00    +0.000 C 
ATOM      9  O   UNL     1       6.040   3.615  15.394  0.00  0.00    +0.000 OA
ENDBRANCH   1   9
BRANCH   3  10
ATOM     10  C   UNL     1       7.988   7.697  17.288  0.00  0.00    +0.000 C 
BRANCH  10  11
ATOM     11  N   UNL     1       7.597   8.938  17.945  0.00  0.00    +0.000 NA
ATOM     12  H   UNL     1       7.179   8.723  18.850  0.00  0.00    +0.000 HD
BRANCH  11  13
ATOM     13  C   UNL     1       8.723   9.850  18.120  0.00  0.00    +0.000 C 
ATOM     14  C   UNL     1       8.338  11.270  17.708  0.00  0.00    +0.000 C 
ATOM     15  C   UNL     1       9.452  12.128  18.294  0.00  0.00    +0.000 C 
ATOM     16  C   UNL     1       9.932  11.390  19.544  0.00  0.00    +0.000 C 
ATOM     17  C   UNL     1       9.196  10.052  19.561  0.00  0.00    +0.000 C 
ENDBRANCH  11  13
ENDBRANCH  10  11
ENDBRANCH   3  10
BRANCH   7  18
ATOM     18  O   UNL     1       3.609   4.045  16.893  0.00  0.00    +0.000 OA
BRANCH  18  19
ATOM     19  C   UNL     1       3.752   2.868  17.691  0.00  0.00    +0.000 C 
BRANCH  19  20
ATOM     20  C   UNL     1       2.861   2.869  18.902  0.00  0.00    +0.000 A 
ATOM     21  C   UNL     1       1.501   3.178  18.837  0.00  0.00    +0.000 A 
ATOM     22  C   UNL     1       0.747   3.243  20.009  0.00  0.00    +0.000 A 
ATOM     23  C   UNL     1       1.343   3.018  21.249  0.00  0.00    +0.000 A 
ATOM     24  C   UNL     1       2.703   2.728  21.324  0.00  0.00    +0.000 A 
ATOM     25  C   UNL     1       3.450   2.659  20.155  0.00  0.00    +0.000 A 
ATOM     26  F   UNL     1       4.764   2.408  20.242  0.00  0.00    +0.000 F 
ENDBRANCH  19  20
ENDBRANCH  18  19
ENDBRANCH   7  18
TORSDOF 7
ENDMDL
MODEL 3
REMARK VINA RESULT:      -7.4      0.845      1.233
REMARK  Name = 
REMARK  8 active torsions:
REMARK  status: ('A' for Active; 'I' for Inactive)
REMARK    1  A    between atoms: C_1  and  O_2
REMARK    2  A    between atoms: O_2  and  C_3
REMARK    3  A    between atoms: C_5  and  C_6
REMARK    4  A    between atoms: C_6  and  N_7
REMARK    5  A    between atoms: N_7  and  C_8
REMARK    6  A    between atoms: C_16  and  O_17
REMARK    7  A    between atoms: O_17  and  C_18
REMARK    8  A    between atoms: C_18  and  C_19
REMARK                            x       y       z     vdW  Elec       q    Type
REMARK                         _______ _______ _______ _____ _____    ______ ____
ROOT
ATOM      1  C   UNL     1       5.073   4.505  19.012  0.00  0.00    +0.000 A 
ATOM      2  C   UNL     1       6.004   4.141  18.034  0.00  0.00    +0.000 A 
ATOM      3  C   UNL     1       6.207   4.920  16.892  0.00  0.00    +0.000 A 
ATOM      4  C   UNL     1       5.447   6.083  16.729  0.00  0.00    +0.000 A 
ATOM      5  C   UNL     1       4.529   6.472  17.715  0.00  0.00    +0.000 A 
ATOM      6 CL   UNL     1       3.650   7.942  17.458  0.00  0.00    +0.000 Cl
ATOM      7  C   UNL     1       4.352   5.707  18.883  0.00  0.00    +0.000 A 
ENDROOT
BRANCH   1   9
ATOM      8  C   UNL     1       4.602   2.374  19.965  0.00  0.00    +0.000 C 
ATOM      9  O   UNL     1       4.935   3.746  20.145  0.00  0.00    +0.000 OA
ENDBRANCH   1   9
BRANCH   3  10
ATOM     10  C   UNL     1       7.240   4.489  15.881  0.00  0.00    +0.000 C 
BRANCH  10  11
ATOM     11  N   UNL     1       7.370   5.471  14.811  0.00  0.00    +0.000 NA
ATOM     12  H   UNL     1       8.358   5.657  14.642  0.00  0.00    +0.000 HD
BRANCH  11  13
ATOM     13  C   UNL     1       6.727   5.030  13.577  0.00  0.00    +0.000 C 
ATOM     14  C   UNL     1       7.766   4.781  12.485  0.00  0.00    +0.000 C 
ATOM     15  C   UNL     1       6.999   3.989  11.433  0.00  0.00    +0.000 C 
ATOM     16  C   UNL     1       5.934   3.204  12.199  0.00  0.00    +0.000 C 
ATOM     17  C   UNL     1       6.008   3.681  13.648  0.00  0.00    +0.000 C 
ENDBRANCH  11  13
ENDBRANCH  10  11
ENDBRANCH   3  10
BRANCH   7  18
ATOM     18  O   UNL     1       3.466   6.210  19.813  0.00  0.00    +0.000 OA
BRANCH  18  19
ATOM     19  C   UNL     1       2.079   6.047  19.504  0.00  0.00    +0.000 C 
BRANCH  19  20
ATOM     20  C   UNL     1       1.609   4.628  19.656  0.00  0.00    +0.000 A 
ATOM     21  C   UNL     1       1.475   4.007  20.900  0.00  0.00    +0.000 A 
ATOM     22  C   UNL     1       1.113   2.661  20.969  0.00  0.00    +0.000 A 
ATOM     23  C   UNL     1       0.898   1.925  19.806  0.00  0.00    +0.000 A 
ATOM     24  C   UNL     1       1.047   2.530  18.561  0.00  0.00    +0.000 A 
ATOM     25  C   UNL     1       1.402   3.872  18.495  0.00  0.00    +0.000 A 
ATOM     26  F   UNL     1       1.571   4.437  17.292  0.00  0.00    +0.000 F 
ENDBRANCH  19  20
ENDBRANCH  18  19
ENDBRANCH   7  18
TORSDOF 7
ENDMDL
MODEL 4
REMARK VINA RESULT:      -7.4      0.972      1.186
REMARK  Name = 
REMARK  8 active torsions:
REMARK  status: ('A' for Active; 'I' for Inactive)
REMARK    1  A    between atoms: C_1  and  O_2
REMARK    2  A    between atoms: O_2  and  C_3
REMARK    3  A    between atoms: C_5  and  C_6
REMARK    4  A    between atoms: C_6  and  N_7
REMARK    5  A    between atoms: N_7  and  C_8
REMARK    6  A    between atoms: C_16  and  O_17
REMARK    7  A    between atoms: O_17  and  C_18
REMARK    8  A    between atoms: C_18  and  C_19
REMARK                            x       y       z     vdW  Elec       q    Type
REMARK                         _______ _______ _______ _____ _____    ______ ____
ROOT
ATOM      1  C   UNL     1       4.682   5.366  18.644  0.00  0.00    +0.000 A 
ATOM      2  C   UNL     1       5.370   5.386  17.428  0.00  0.00    +0.000 A 
ATOM      3  C   UNL     1       5.080   6.332  16.440  0.00  0.00    +0.000 A 
ATOM      4  C   UNL     1       4.068   7.267  16.683  0.00  0.00    +0.000 A 
ATOM      5  C   UNL     1       3.389   7.272  17.910  0.00  0.00    +0.000 A 
ATOM      6 CL   UNL     1       2.174   8.482  18.149  0.00  0.00    +0.000 Cl
ATOM      7  C   UNL     1       3.708   6.344  18.918  0.00  0.00    +0.000 A 
ENDROOT
BRANCH   1   9
ATOM      8  C   UNL     1       4.802   3.084  19.315  0.00  0.00    +0.000 C 
ATOM      9  O   UNL     1       5.026   4.457  19.611  0.00  0.00    +0.000 OA
ENDBRANCH   1   9
BRANCH   3  10
ATOM     10  C   UNL     1       5.870   6.320  15.154  0.00  0.00    +0.000 C 
BRANCH  10  11
ATOM     11  N   UNL     1       7.048   5.469  15.270  0.00  0.00    +0.000 NA
ATOM     12  H   UNL     1       7.031   4.990  16.170  0.00  0.00    +0.000 HD
BRANCH  11  13
ATOM     13  C   UNL     1       7.134   4.495  14.187  0.00  0.00    +0.000 C 
ATOM     14  C   UNL     1       5.744   3.995  13.797  0.00  0.00    +0.000 C 
ATOM     15  C   UNL     1       5.971   3.312  12.454  0.00  0.00    +0.000 C 
ATOM     16  C   UNL     1       7.145   4.048  11.807  0.00  0.00    +0.000 C 
ATOM     17  C   UNL     1       7.667   5.029  12.855  0.00  0.00    +0.000 C 
ENDBRANCH  11  13
ENDBRANCH  10  11
ENDBRANCH   3  10
BRANCH   7  18
ATOM     18  O   UNL     1       3.019   6.474  20.106  0.00  0.00    +0.000 OA
BRANCH  18  19
ATOM     19  C   UNL     1       1.648   6.068  20.078  0.00  0.00    +0.000 C 
BRANCH  19  20
ATOM     20  C   UNL     1       1.480   4.576  20.006  0.00  0.00    +0.000 A 
ATOM     21  C   UNL     1       1.627   3.746  21.120  0.00  0.00    +0.000 A 
ATOM     22  C   UNL     1       1.540   2.362  20.970  0.00  0.00    +0.000 A 
ATOM     23  C   UNL     1       1.324   1.797  19.715  0.00  0.00    +0.000 A 
ATOM     24  C   UNL     1       1.194   2.616  18.597  0.00  0.00    +0.000 A 
ATOM     25  C   UNL     1       1.276   3.994  18.749  0.00  0.00    +0.000 A 
ATOM     26  F   UNL     1       1.180   4.771  17.662  0.00  0.00    +0.000 F 
ENDBRANCH  19  20
ENDBRANCH  18  19
ENDBRANCH   7  18
TORSDOF 7
ENDMDL
MODEL 5
REMARK VINA RESULT:      -7.4      4.077      6.038
REMARK  Name = 
REMARK  8 active torsions:
REMARK  status: ('A' for Active; 'I' for Inactive)
REMARK    1  A    between atoms: C_1  and  O_2
REMARK    2  A    between atoms: O_2  and  C_3
REMARK    3  A    between atoms: C_5  and  C_6
REMARK    4  A    between atoms: C_6  and  N_7
REMARK    5  A    between atoms: N_7  and  C_8
REMARK    6  A    between atoms: C_16  and  O_17
REMARK    7  A    between atoms: O_17  and  C_18
REMARK    8  A    between atoms: C_18  and  C_19
REMARK                            x       y       z     vdW  Elec       q    Type
REMARK                         _______ _______ _______ _____ _____    ______ ____
ROOT
ATOM      1  C   UNL     1       6.210   5.735  16.315  0.00  0.00    +0.000 A 
ATOM      2  C   UNL     1       7.093   6.720  16.766  0.00  0.00    +0.000 A 
ATOM      3  C   UNL     1       7.445   6.823  18.115  0.00  0.00    +0.000 A 
ATOM      4  C   UNL     1       6.884   5.922  19.026  0.00  0.00    +0.000 A 
ATOM      5  C   UNL     1       6.017   4.913  18.581  0.00  0.00    +0.000 A 
ATOM      6 CL   UNL     1       5.391   3.814  19.764  0.00  0.00    +0.000 Cl
ATOM      7  C   UNL     1       5.693   4.786  17.218  0.00  0.00    +0.000 A 
ENDROOT
BRANCH   1   9
ATOM      8  C   UNL     1       6.728   4.734  14.217  0.00  0.00    +0.000 C 
ATOM      9  O   UNL     1       5.925   5.629  14.978  0.00  0.00    +0.000 OA
ENDBRANCH   1   9
BRANCH   3  10
ATOM     10  C   UNL     1       8.419   7.893  18.542  0.00  0.00    +0.000 C 
BRANCH  10  11
ATOM     11  N   UNL     1       8.310   9.073  17.691  0.00  0.00    +0.000 NA
ATOM     12  H   UNL     1       7.347   9.167  17.369  0.00  0.00    +0.000 HD
BRANCH  11  13
ATOM     13  C   UNL     1       8.729  10.290  18.378  0.00  0.00    +0.000 C 
ATOM     14  C   UNL     1       9.181   9.978  19.803  0.00  0.00    +0.000 C 
ATOM     15  C   UNL     1       9.921  11.240  20.230  0.00  0.00    +0.000 C 
ATOM     16  C   UNL     1      10.506  11.832  18.948  0.00  0.00    +0.000 C 
ATOM     17  C   UNL     1       9.961  10.989  17.797  0.00  0.00    +0.000 C 
ENDBRANCH  11  13
ENDBRANCH  10  11
ENDBRANCH   3  10
BRANCH   7  18
ATOM     18  O   UNL     1       4.877   3.726  16.882  0.00  0.00    +0.000 OA
BRANCH  18  19
ATOM     19  C   UNL     1       3.507   4.049  16.633  0.00  0.00    +0.000 C 
BRANCH  19  20
ATOM     20  C   UNL     1       2.633   3.872  17.842  0.00  0.00    +0.000 A 
ATOM     21  C   UNL     1       2.235   4.942  18.647  0.00  0.00    +0.000 A 
ATOM     22  C   UNL     1       1.492   4.701  19.804  0.00  0.00    +0.000 A 
ATOM     23  C   UNL     1       1.157   3.400  20.173  0.00  0.00    +0.000 A 
ATOM     24  C   UNL     1       1.565   2.327  19.386  0.00  0.00    +0.000 A 
ATOM     25  C   UNL     1       2.300   2.569  18.232  0.00  0.00    +0.000 A 
ATOM     26  F   UNL     1       2.713   1.527  17.498  0.00  0.00    +0.000 F 
ENDBRANCH  19  20
ENDBRANCH  18  19
ENDBRANCH   7  18
TORSDOF 7
ENDMDL
MODEL 6
REMARK VINA RESULT:      -7.3      0.996      1.389
REMARK  Name = 
REMARK  8 active torsions:
REMARK  status: ('A' for Active; 'I' for Inactive)
REMARK    1  A    between atoms: C_1  and  O_2
REMARK    2  A    between atoms: O_2  and  C_3
REMARK    3  A    between atoms: C_5  and  C_6
REMARK    4  A    between atoms: C_6  and  N_7
REMARK    5  A    between atoms: N_7  and  C_8
REMARK    6  A    between atoms: C_16  and  O_17
REMARK    7  A    between atoms: O_17  and  C_18
REMARK    8  A    between atoms: C_18  and  C_19
REMARK                            x       y       z     vdW  Elec       q    Type
REMARK                         _______ _______ _______ _____ _____    ______ ____
ROOT
ATOM      1  C   UNL     1       5.296   4.676  18.518  0.00  0.00    +0.000 A 
ATOM      2  C   UNL     1       6.172   4.427  17.458  0.00  0.00    +0.000 A 
ATOM      3  C   UNL     1       6.240   5.278  16.351  0.00  0.00    +0.000 A 
ATOM      4  C   UNL     1       5.397   6.393  16.309  0.00  0.00    +0.000 A 
ATOM      5  C   UNL     1       4.532   6.667  17.378  0.00  0.00    +0.000 A 
ATOM      6 CL   UNL     1       3.545   8.086  17.268  0.00  0.00    +0.000 Cl
ATOM      7  C   UNL     1       4.492   5.831  18.510  0.00  0.00    +0.000 A 
ENDROOT
BRANCH   1   9
ATOM      8  C   UNL     1       4.749   2.547  19.434  0.00  0.00    +0.000 C 
ATOM      9  O   UNL     1       5.291   3.850  19.612  0.00  0.00    +0.000 OA
ENDBRANCH   1   9
BRANCH   3  10
ATOM     10  C   UNL     1       7.220   4.971  15.246  0.00  0.00    +0.000 C 
BRANCH  10  11
ATOM     11  N   UNL     1       6.597   5.117  13.935  0.00  0.00    +0.000 NA
ATOM     12  H   UNL     1       7.183   5.710  13.348  0.00  0.00    +0.000 HD
BRANCH  11  13
ATOM     13  C   UNL     1       6.376   3.830  13.283  0.00  0.00    +0.000 C 
ATOM     14  C   UNL     1       4.989   3.778  12.647  0.00  0.00    +0.000 C 
ATOM     15  C   UNL     1       5.065   2.573  11.717  0.00  0.00    +0.000 C 
ATOM     16  C   UNL     1       6.528   2.477  11.281  0.00  0.00    +0.000 C 
ATOM     17  C   UNL     1       7.287   3.526  12.091  0.00  0.00    +0.000 C 
ENDBRANCH  11  13
ENDBRANCH  10  11
ENDBRANCH   3  10
BRANCH   7  18
ATOM     18  O   UNL     1       3.647   6.224  19.527  0.00  0.00    +0.000 OA
BRANCH  18  19
ATOM     19  C   UNL     1       2.251   6.024  19.289  0.00  0.00    +0.000 C 
BRANCH  19  20
ATOM     20  C   UNL     1       1.828   4.592  19.456  0.00  0.00    +0.000 A 
ATOM     21  C   UNL     1       1.326   3.827  18.401  0.00  0.00    +0.000 A 
ATOM     22  C   UNL     1       0.872   2.529  18.640  0.00  0.00    +0.000 A 
ATOM     23  C   UNL     1       0.901   1.993  19.926  0.00  0.00    +0.000 A 
ATOM     24  C   UNL     1       1.383   2.755  20.986  0.00  0.00    +0.000 A 
ATOM     25  C   UNL     1       1.839   4.045  20.745  0.00  0.00    +0.000 A 
ATOM     26  F   UNL     1       2.273   4.780  21.778  0.00  0.00    +0.000 F 
ENDBRANCH  19  20
ENDBRANCH  18  19
ENDBRANCH   7  18
TORSDOF 7
ENDMDL
MODEL 7
REMARK VINA RESULT:      -7.3      5.143      8.248
REMARK  Name = 
REMARK  8 active torsions:
REMARK  status: ('A' for Active; 'I' for Inactive)
REMARK    1  A    between atoms: C_1  and  O_2
REMARK    2  A    between atoms: O_2  and  C_3
REMARK    3  A    between atoms: C_5  and  C_6
REMARK    4  A    between atoms: C_6  and  N_7
REMARK    5  A    between atoms: N_7  and  C_8
REMARK    6  A    between atoms: C_16  and  O_17
REMARK    7  A    between atoms: O_17  and  C_18
REMARK    8  A    between atoms: C_18  and  C_19
REMARK                            x       y       z     vdW  Elec       q    Type
REMARK                         _______ _______ _______ _____ _____    ______ ____
ROOT
ATOM      1  C   UNL     1       0.859   8.919  20.765  0.00  0.00    +0.000 A 
ATOM      2  C   UNL     1       0.124  10.011  20.296  0.00  0.00    +0.000 A 
ATOM      3  C   UNL     1       0.228  10.449  18.973  0.00  0.00    +0.000 A 
ATOM      4  C   UNL     1       1.102   9.777  18.111  0.00  0.00    +0.000 A 
ATOM      5  C   UNL     1       1.826   8.664  18.563  0.00  0.00    +0.000 A 
ATOM      6 CL   UNL     1       2.860   7.865  17.428  0.00  0.00    +0.000 Cl
ATOM      7  C   UNL     1       1.691   8.201  19.885  0.00  0.00    +0.000 A 
ENDROOT
BRANCH   1   9
ATOM      8  C   UNL     1      -0.014   9.343  22.940  0.00  0.00    +0.000 C 
ATOM      9  O   UNL     1       0.695   8.484  22.055  0.00  0.00    +0.000 OA
ENDBRANCH   1   9
BRANCH   3  10
ATOM     10  C   UNL     1      -0.607  11.620  18.517  0.00  0.00    +0.000 C 
BRANCH  10  11
ATOM     11  N   UNL     1      -1.403  11.273  17.345  0.00  0.00    +0.000 NA
ATOM     12  H   UNL     1      -0.983  10.469  16.879  0.00  0.00    +0.000 HD
BRANCH  11  13
ATOM     13  C   UNL     1      -2.791  10.982  17.688  0.00  0.00    +0.000 C 
ATOM     14  C   UNL     1      -3.274  11.897  18.812  0.00  0.00    +0.000 C 
ATOM     15  C   UNL     1      -4.789  11.736  18.781  0.00  0.00    +0.000 C 
ATOM     16  C   UNL     1      -5.144  11.426  17.326  0.00  0.00    +0.000 C 
ATOM     17  C   UNL     1      -3.818  11.259  16.587  0.00  0.00    +0.000 C 
ENDBRANCH  11  13
ENDBRANCH  10  11
ENDBRANCH   3  10
BRANCH   7  18
ATOM     18  O   UNL     1       2.405   7.066  20.209  0.00  0.00    +0.000 OA
BRANCH  18  19
ATOM     19  C   UNL     1       1.630   5.940  20.625  0.00  0.00    +0.000 C 
BRANCH  19  20
ATOM     20  C   UNL     1       1.808   4.744  19.733  0.00  0.00    +0.000 A 
ATOM     21  C   UNL     1       2.143   4.855  18.381  0.00  0.00    +0.000 A 
ATOM     22  C   UNL     1       2.213   3.709  17.587  0.00  0.00    +0.000 A 
ATOM     23  C   UNL     1       1.935   2.454  18.127  0.00  0.00    +0.000 A 
ATOM     24  C   UNL     1       1.583   2.337  19.469  0.00  0.00    +0.000 A 
ATOM     25  C   UNL     1       1.520   3.478  20.258  0.00  0.00    +0.000 A 
ATOM     26  F   UNL     1       1.151   3.357  21.541  0.00  0.00    +0.000 F 
ENDBRANCH  19  20
ENDBRANCH  18  19
ENDBRANCH   7  18
TORSDOF 7
ENDMDL
MODEL 8
REMARK VINA RESULT:      -7.3      3.660      5.629
REMARK  Name = 
REMARK  8 active torsions:
REMARK  status: ('A' for Active; 'I' for Inactive)
REMARK    1  A    between atoms: C_1  and  O_2
REMARK    2  A    between atoms: O_2  and  C_3
REMARK    3  A    between atoms: C_5  and  C_6
REMARK    4  A    between atoms: C_6  and  N_7
REMARK    5  A    between atoms: N_7  and  C_8
REMARK    6  A    between atoms: C_16  and  O_17
REMARK    7  A    between atoms: O_17  and  C_18
REMARK    8  A    between atoms: C_18  and  C_19
REMARK                            x       y       z     vdW  Elec       q    Type
REMARK                         _______ _______ _______ _____ _____    ______ ____
ROOT
ATOM      1  C   UNL     1       5.899   4.813  16.242  0.00  0.00    +0.000 A 
ATOM      2  C   UNL     1       6.957   5.718  16.366  0.00  0.00    +0.000 A 
ATOM      3  C   UNL     1       6.833   6.887  17.122  0.00  0.00    +0.000 A 
ATOM      4  C   UNL     1       5.612   7.152  17.753  0.00  0.00    +0.000 A 
ATOM      5  C   UNL     1       4.553   6.239  17.656  0.00  0.00    +0.000 A 
ATOM      6 CL   UNL     1       3.086   6.620  18.493  0.00  0.00    +0.000 Cl
ATOM      7  C   UNL     1       4.691   5.044  16.926  0.00  0.00    +0.000 A 
ENDROOT
BRANCH   1   9
ATOM      8  C   UNL     1       6.165   3.764  14.120  0.00  0.00    +0.000 C 
ATOM      9  O   UNL     1       6.070   3.651  15.535  0.00  0.00    +0.000 OA
ENDBRANCH   1   9
BRANCH   3  10
ATOM     10  C   UNL     1       8.015   7.817  17.239  0.00  0.00    +0.000 C 
BRANCH  10  11
ATOM     11  N   UNL     1       7.833   8.762  18.335  0.00  0.00    +0.000 NA
ATOM     12  H   UNL     1       7.848   8.258  19.221  0.00  0.00    +0.000 HD
BRANCH  11  13
ATOM     13  C   UNL     1       8.852   9.807  18.337  0.00  0.00    +0.000 C 
ATOM     14  C   UNL     1       8.309  11.094  17.718  0.00  0.00    +0.000 C 
ATOM     15  C   UNL     1       9.325  12.150  18.136  0.00  0.00    +0.000 C 
ATOM     16  C   UNL     1       9.892  11.675  19.474  0.00  0.00    +0.000 C 
ATOM     17  C   UNL     1       9.309  10.285  19.718  0.00  0.00    +0.000 C 
ENDBRANCH  11  13
ENDBRANCH  10  11
ENDBRANCH   3  10
BRANCH   7  18
ATOM     18  O   UNL     1       3.607   4.191  16.943  0.00  0.00    +0.000 OA
BRANCH  18  19
ATOM     19  C   UNL     1       3.756   3.008  17.732  0.00  0.00    +0.000 C 
BRANCH  19  20
ATOM     20  C   UNL     1       3.000   3.070  19.029  0.00  0.00    +0.000 A 
ATOM     21  C   UNL     1       3.537   2.620  20.237  0.00  0.00    +0.000 A 
ATOM     22  C   UNL     1       2.753   2.628  21.391  0.00  0.00    +0.000 A 
ATOM     23  C   UNL     1       1.431   3.066  21.347  0.00  0.00    +0.000 A 
ATOM     24  C   UNL     1       0.882   3.499  20.143  0.00  0.00    +0.000 A 
ATOM     25  C   UNL     1       1.666   3.495  18.997  0.00  0.00    +0.000 A 
ATOM     26  F   UNL     1       1.118   3.886  17.838  0.00  0.00    +0.000 F 
ENDBRANCH  19  20
ENDBRANCH  18  19
ENDBRANCH   7  18
TORSDOF 7
ENDMDL
MODEL 9
REMARK VINA RESULT:      -7.2      4.050      8.375
REMARK  Name = 
REMARK  8 active torsions:
REMARK  status: ('A' for Active; 'I' for Inactive)
REMARK    1  A    between atoms: C_1  and  O_2
REMARK    2  A    between atoms: O_2  and  C_3
REMARK    3  A    between atoms: C_5  and  C_6
REMARK    4  A    between atoms: C_6  and  N_7
REMARK    5  A    between atoms: N_7  and  C_8
REMARK    6  A    between atoms: C_16  and  O_17
REMARK    7  A    between atoms: O_17  and  C_18
REMARK    8  A    between atoms: C_18  and  C_19
REMARK                            x       y       z     vdW  Elec       q    Type
REMARK                         _______ _______ _______ _____ _____    ______ ____
ROOT
ATOM      1  C   UNL     1       1.641   5.173  20.214  0.00  0.00    +0.000 A 
ATOM      2  C   UNL     1       1.293   6.254  21.028  0.00  0.00    +0.000 A 
ATOM      3  C   UNL     1       1.645   7.565  20.692  0.00  0.00    +0.000 A 
ATOM      4  C   UNL     1       2.373   7.784  19.517  0.00  0.00    +0.000 A 
ATOM      5  C   UNL     1       2.705   6.709  18.680  0.00  0.00    +0.000 A 
ATOM      6 CL   UNL     1       3.576   7.065  17.226  0.00  0.00    +0.000 Cl
ATOM      7  C   UNL     1       2.317   5.395  19.000  0.00  0.00    +0.000 A 
ENDROOT
BRANCH   1   9
ATOM      8  C   UNL     1       1.975   3.238  21.563  0.00  0.00    +0.000 C 
ATOM      9  O   UNL     1       1.236   3.906  20.546  0.00  0.00    +0.000 OA
ENDBRANCH   1   9
BRANCH   3  10
ATOM     10  C   UNL     1       1.224   8.695  21.598  0.00  0.00    +0.000 C 
BRANCH  10  11
ATOM     11  N   UNL     1      -0.229   8.775  21.699  0.00  0.00    +0.000 NA
ATOM     12  H   UNL     1      -0.532   8.320  22.559  0.00  0.00    +0.000 HD
BRANCH  11  13
ATOM     13  C   UNL     1      -0.710  10.152  21.665  0.00  0.00    +0.000 C 
ATOM     14  C   UNL     1      -1.078  10.630  23.069  0.00  0.00    +0.000 C 
ATOM     15  C   UNL     1      -1.185  12.143  22.916  0.00  0.00    +0.000 C 
ATOM     16  C   UNL     1      -0.212  12.518  21.798  0.00  0.00    +0.000 C 
ATOM     17  C   UNL     1       0.314  11.202  21.227  0.00  0.00    +0.000 C 
ENDBRANCH  11  13
ENDBRANCH  10  11
ENDBRANCH   3  10
BRANCH   7  18
ATOM     18  O   UNL     1       2.646   4.422  18.079  0.00  0.00    +0.000 OA
BRANCH  18  19
ATOM     19  C   UNL     1       3.829   3.670  18.363  0.00  0.00    +0.000 C 
BRANCH  19  20
ATOM     20  C   UNL     1       4.997   4.070  17.507  0.00  0.00    +0.000 A 
ATOM     21  C   UNL     1       5.054   3.804  16.137  0.00  0.00    +0.000 A 
ATOM     22  C   UNL     1       6.203   4.127  15.414  0.00  0.00    +0.000 A 
ATOM     23  C   UNL     1       7.303   4.701  16.050  0.00  0.00    +0.000 A 
ATOM     24  C   UNL     1       7.261   4.953  17.418  0.00  0.00    +0.000 A 
ATOM     25  C   UNL     1       6.114   4.635  18.135  0.00  0.00    +0.000 A 
ATOM     26  F   UNL     1       6.096   4.855  19.457  0.00  0.00    +0.000 F 
ENDBRANCH  19  20
ENDBRANCH  18  19
ENDBRANCH   7  18
TORSDOF 7
ENDMDL
