MODEL 1
REMARK VINA RESULT:      -8.7      0.000      0.000
REMARK  Name = 
REMARK  4 active torsions:
REMARK  status: ('A' for Active; 'I' for Inactive)
REMARK    1  A    between atoms: C_5  and  N_6
REMARK    2  A    between atoms: C_10  and  C_11
REMARK    3  A    between atoms: N_14  and  C_15
REMARK    4  A    between atoms: C_15  and  C_16
REMARK                            x       y       z     vdW  Elec       q    Type
REMARK                         _______ _______ _______ _____ _____    ______ ____
ROOT
ATOM      1  N   UNL     1       0.438   9.754  19.188  0.00  0.00    +0.000 N 
ATOM      2  C   UNL     1       1.290   9.703  18.005  0.00  0.00    +0.000 C 
ATOM      3  C   UNL     1       2.195   8.547  18.307  0.00  0.00    +0.000 A 
ATOM      4  C   UNL     1       3.236   7.977  17.589  0.00  0.00    +0.000 A 
ATOM      5  C   UNL     1       3.925   6.864  18.135  0.00  0.00    +0.000 A 
ATOM      6  C   UNL     1       3.517   6.363  19.398  0.00  0.00    +0.000 A 
ATOM      7  C   UNL     1       2.478   6.934  20.116  0.00  0.00    +0.000 A 
ATOM      8  C   UNL     1       1.838   7.999  19.531  0.00  0.00    +0.000 A 
ATOM      9  C   UNL     1       0.679   8.702  20.047  0.00  0.00    +0.000 C 
ATOM     10  O   UNL     1       0.070   8.351  21.041  0.00  0.00    +0.000 OA
ENDROOT
BRANCH   1  15
ATOM     11  O   UNL     1      -2.663  11.298  15.791  0.00  0.00    +0.000 OA
ATOM     12  C   UNL     1      -2.124  11.130  16.885  0.00  0.00    +0.000 C 
ATOM     13  C   UNL     1      -2.464   9.949  17.768  0.00  0.00    +0.000 C 
ATOM     14  C   UNL     1      -2.041  10.152  19.213  0.00  0.00    +0.000 C 
ATOM     15  C   UNL     1      -0.629  10.725  19.376  0.00  0.00    +0.000 C 
ATOM     16  C   UNL     1      -0.396  11.931  18.465  0.00  0.00    +0.000 C 
ATOM     17  O   UNL     1       0.516  12.733  18.664  0.00  0.00    +0.000 OA
ATOM     18  N   UNL     1      -1.182  12.018  17.342  0.00  0.00    +0.000 N 
ATOM     19  H   UNL     1      -0.945  12.760  16.699  0.00  0.00    +0.000 HD
ENDBRANCH   1  15
BRANCH   5  20
ATOM     20  C   UNL     1       5.026   6.167  17.326  0.00  0.00    +0.000 C 
ATOM     21  C   UNL     1       4.557   5.351  16.109  0.00  0.00    +0.000 C 
ATOM     22  C   UNL     1       3.839   4.055  16.508  0.00  0.00    +0.000 C 
ATOM     23  N   UNL     1       4.593   3.205  17.440  0.00  0.00    +0.000 NA
ATOM     24  C   UNL     1       5.191   3.953  18.560  0.00  0.00    +0.000 C 
ATOM     25  C   UNL     1       5.920   5.234  18.153  0.00  0.00    +0.000 C 
BRANCH  23  26
ATOM     26  C   UNL     1       3.702   2.161  18.007  0.00  0.00    +0.000 C 
BRANCH  26  27
ATOM     27  C   UNL     1       2.822   2.624  19.147  0.00  0.00    +0.000 A 
ATOM     28  C   UNL     1       3.248   2.485  20.476  0.00  0.00    +0.000 A 
ATOM     29  C   UNL     1       2.454   2.937  21.528  0.00  0.00    +0.000 A 
ATOM     30  C   UNL     1       1.221   3.532  21.266  0.00  0.00    +0.000 A 
ATOM     31  C   UNL     1       0.783   3.675  19.951  0.00  0.00    +0.000 A 
ATOM     32  C   UNL     1       1.578   3.220  18.899  0.00  0.00    +0.000 A 
ENDBRANCH  26  27
ENDBRANCH  23  26
ENDBRANCH   5  20
TORSDOF 4
ENDMDL
MODEL 2
REMARK VINA RESULT:      -8.5      3.715      8.821
REMARK  Name = 
REMARK  4 active torsions:
REMARK  status: ('A' for Active; 'I' for Inactive)
REMARK    1  A    between atoms: C_5  and  N_6
REMARK    2  A    between atoms: C_10  and  C_11
REMARK    3  A    between atoms: N_14  and  C_15
REMARK    4  A    between atoms: C_15  and  C_16
REMARK                            x       y       z     vdW  Elec       q    Type
REMARK                         _______ _______ _______ _____ _____    ______ ____
ROOT
ATOM      1  N   UNL     1       4.067   5.638  18.354  0.00  0.00    +0.000 N 
ATOM      2  C   UNL     1       3.938   6.792  17.470  0.00  0.00    +0.000 C 
ATOM      3  C   UNL     1       2.931   7.640  18.187  0.00  0.00    +0.000 A 
ATOM      4  C   UNL     1       2.368   8.868  17.875  0.00  0.00    +0.000 A 
ATOM      5  C   UNL     1       1.425   9.442  18.765  0.00  0.00    +0.000 A 
ATOM      6  C   UNL     1       1.096   8.742  19.955  0.00  0.00    +0.000 A 
ATOM      7  C   UNL     1       1.657   7.514  20.265  0.00  0.00    +0.000 A 
ATOM      8  C   UNL     1       2.575   7.014  19.374  0.00  0.00    +0.000 A 
ATOM      9  C   UNL     1       3.352   5.798  19.522  0.00  0.00    +0.000 C 
ATOM     10  O   UNL     1       3.342   5.116  20.531  0.00  0.00    +0.000 OA
ENDROOT
BRANCH   1  15
ATOM     11  O   UNL     1       7.528   5.440  14.960  0.00  0.00    +0.000 OA
ATOM     12  C   UNL     1       6.820   5.135  15.919  0.00  0.00    +0.000 C 
ATOM     13  C   UNL     1       7.135   5.603  17.323  0.00  0.00    +0.000 C 
ATOM     14  C   UNL     1       6.428   4.785  18.391  0.00  0.00    +0.000 C 
ATOM     15  C   UNL     1       4.950   4.513  18.092  0.00  0.00    +0.000 C 
ATOM     16  C   UNL     1       4.741   4.015  16.660  0.00  0.00    +0.000 C 
ATOM     17  O   UNL     1       3.715   3.430  16.315  0.00  0.00    +0.000 OA
ATOM     18  N   UNL     1       5.706   4.353  15.743  0.00  0.00    +0.000 N 
ATOM     19  H   UNL     1       5.502   4.108  14.784  0.00  0.00    +0.000 HD
ENDBRANCH   1  15
BRANCH   5  20
ATOM     20  C   UNL     1       0.848  10.835  18.483  0.00  0.00    +0.000 C 
ATOM     21  C   UNL     1       1.410  11.985  19.336  0.00  0.00    +0.000 C 
ATOM     22  C   UNL     1       0.928  11.931  20.791  0.00  0.00    +0.000 C 
ATOM     23  N   UNL     1      -0.530  11.838  20.946  0.00  0.00    +0.000 NA
ATOM     24  C   UNL     1      -1.151  10.847  20.050  0.00  0.00    +0.000 C 
ATOM     25  C   UNL     1      -0.680  10.919  18.597  0.00  0.00    +0.000 C 
BRANCH  23  26
ATOM     26  C   UNL     1      -0.870  11.470  22.344  0.00  0.00    +0.000 C 
BRANCH  26  27
ATOM     27  C   UNL     1      -1.727  12.476  23.078  0.00  0.00    +0.000 A 
ATOM     28  C   UNL     1      -3.025  12.140  23.489  0.00  0.00    +0.000 A 
ATOM     29  C   UNL     1      -3.808  13.054  24.191  0.00  0.00    +0.000 A 
ATOM     30  C   UNL     1      -3.306  14.318  24.490  0.00  0.00    +0.000 A 
ATOM     31  C   UNL     1      -2.019  14.669  24.086  0.00  0.00    +0.000 A 
ATOM     32  C   UNL     1      -1.237  13.753  23.382  0.00  0.00    +0.000 A 
ENDBRANCH  26  27
ENDBRANCH  23  26
ENDBRANCH   5  20
TORSDOF 4
ENDMDL
MODEL 3
REMARK VINA RESULT:      -8.3      3.535      8.808
REMARK  Name = 
REMARK  4 active torsions:
REMARK  status: ('A' for Active; 'I' for Inactive)
REMARK    1  A    between atoms: C_5  and  N_6
REMARK    2  A    between atoms: C_10  and  C_11
REMARK    3  A    between atoms: N_14  and  C_15
REMARK    4  A    between atoms: C_15  and  C_16
REMARK                            x       y       z     vdW  Elec       q    Type
REMARK                         _______ _______ _______ _____ _____    ______ ____
ROOT
ATOM      1  N   UNL     1       4.003   5.995  17.922  0.00  0.00    +0.000 N 
ATOM      2  C   UNL     1       3.858   7.201  17.115  0.00  0.00    +0.000 C 
ATOM      3  C   UNL     1       2.891   8.017  17.919  0.00  0.00    +0.000 A 
ATOM      4  C   UNL     1       2.335   9.269  17.703  0.00  0.00    +0.000 A 
ATOM      5  C   UNL     1       1.435   9.801  18.661  0.00  0.00    +0.000 A 
ATOM      6  C   UNL     1       1.140   9.034  19.818  0.00  0.00    +0.000 A 
ATOM      7  C   UNL     1       1.694   7.782  20.033  0.00  0.00    +0.000 A 
ATOM      8  C   UNL     1       2.570   7.325  19.080  0.00  0.00    +0.000 A 
ATOM      9  C   UNL     1       3.334   6.093  19.125  0.00  0.00    +0.000 C 
ATOM     10  O   UNL     1       3.352   5.351  20.091  0.00  0.00    +0.000 OA
ENDROOT
BRANCH   1  15
ATOM     11  O   UNL     1       3.683   1.470  19.643  0.00  0.00    +0.000 OA
ATOM     12  C   UNL     1       4.040   2.437  18.970  0.00  0.00    +0.000 C 
ATOM     13  C   UNL     1       3.313   2.840  17.707  0.00  0.00    +0.000 C 
ATOM     14  C   UNL     1       4.142   3.748  16.812  0.00  0.00    +0.000 C 
ATOM     15  C   UNL     1       4.858   4.876  17.561  0.00  0.00    +0.000 C 
ATOM     16  C   UNL     1       5.587   4.362  18.803  0.00  0.00    +0.000 C 
ATOM     17  O   UNL     1       6.480   5.007  19.351  0.00  0.00    +0.000 OA
ATOM     18  N   UNL     1       5.121   3.191  19.352  0.00  0.00    +0.000 N 
ATOM     19  H   UNL     1       5.544   2.922  20.229  0.00  0.00    +0.000 HD
ENDBRANCH   1  15
BRANCH   5  20
ATOM     20  C   UNL     1       0.869  11.215  18.484  0.00  0.00    +0.000 C 
ATOM     21  C   UNL     1       1.445  12.295  19.416  0.00  0.00    +0.000 C 
ATOM     22  C   UNL     1       0.971  12.139  20.866  0.00  0.00    +0.000 C 
ATOM     23  N   UNL     1      -0.487  12.047  21.023  0.00  0.00    +0.000 NA
ATOM     24  C   UNL     1      -1.121  11.130  20.061  0.00  0.00    +0.000 C 
ATOM     25  C   UNL     1      -0.658  11.303  18.614  0.00  0.00    +0.000 C 
BRANCH  23  26
ATOM     26  C   UNL     1      -0.822  11.581  22.393  0.00  0.00    +0.000 C 
BRANCH  26  27
ATOM     27  C   UNL     1      -1.739  12.497  23.172  0.00  0.00    +0.000 A 
ATOM     28  C   UNL     1      -1.318  13.785  23.533  0.00  0.00    +0.000 A 
ATOM     29  C   UNL     1      -2.170  14.643  24.225  0.00  0.00    +0.000 A 
ATOM     30  C   UNL     1      -3.454  14.225  24.567  0.00  0.00    +0.000 A 
ATOM     31  C   UNL     1      -3.886  12.947  24.218  0.00  0.00    +0.000 A 
ATOM     32  C   UNL     1      -3.031  12.089  23.526  0.00  0.00    +0.000 A 
ENDBRANCH  26  27
ENDBRANCH  23  26
ENDBRANCH   5  20
TORSDOF 4
ENDMDL
MODEL 4
REMARK VINA RESULT:      -8.3      1.446      2.007
REMARK  Name = 
REMARK  4 active torsions:
REMARK  status: ('A' for Active; 'I' for Inactive)
REMARK    1  A    between atoms: C_5  and  N_6
REMARK    2  A    between atoms: C_10  and  C_11
REMARK    3  A    between atoms: N_14  and  C_15
REMARK    4  A    between atoms: C_15  and  C_16
REMARK                            x       y       z     vdW  Elec       q    Type
REMARK                         _______ _______ _______ _____ _____    ______ ____
ROOT
ATOM      1  N   UNL     1       0.485   9.680  19.685  0.00  0.00    +0.000 N 
ATOM      2  C   UNL     1       1.327   9.734  18.495  0.00  0.00    +0.000 C 
ATOM      3  C   UNL     1       2.175   8.507  18.641  0.00  0.00    +0.000 A 
ATOM      4  C   UNL     1       3.182   7.980  17.846  0.00  0.00    +0.000 A 
ATOM      5  C   UNL     1       3.817   6.775  18.242  0.00  0.00    +0.000 A 
ATOM      6  C   UNL     1       3.391   6.141  19.438  0.00  0.00    +0.000 A 
ATOM      7  C   UNL     1       2.385   6.669  20.233  0.00  0.00    +0.000 A 
ATOM      8  C   UNL     1       1.797   7.829  19.792  0.00  0.00    +0.000 A 
ATOM      9  C   UNL     1       0.678   8.519  20.404  0.00  0.00    +0.000 C 
ATOM     10  O   UNL     1       0.057   8.077  21.354  0.00  0.00    +0.000 OA
ENDROOT
BRANCH   1  15
ATOM     11  O   UNL     1       0.853  14.473  19.035  0.00  0.00    +0.000 OA
ATOM     12  C   UNL     1       0.381  13.367  19.295  0.00  0.00    +0.000 C 
ATOM     13  C   UNL     1      -0.213  12.481  18.223  0.00  0.00    +0.000 C 
ATOM     14  C   UNL     1      -1.114  11.394  18.786  0.00  0.00    +0.000 C 
ATOM     15  C   UNL     1      -0.531  10.671  20.004  0.00  0.00    +0.000 C 
ATOM     16  C   UNL     1       0.015  11.653  21.043  0.00  0.00    +0.000 C 
ATOM     17  O   UNL     1       0.215  11.324  22.211  0.00  0.00    +0.000 OA
ATOM     18  N   UNL     1       0.381  12.895  20.584  0.00  0.00    +0.000 N 
ATOM     19  H   UNL     1       0.835  13.493  21.260  0.00  0.00    +0.000 HD
ENDBRANCH   1  15
BRANCH   5  20
ATOM     20  C   UNL     1       4.877   6.131  17.341  0.00  0.00    +0.000 C 
ATOM     21  C   UNL     1       4.346   5.303  16.157  0.00  0.00    +0.000 C 
ATOM     22  C   UNL     1       3.719   3.975  16.600  0.00  0.00    +0.000 C 
ATOM     23  N   UNL     1       4.580   3.153  17.460  0.00  0.00    +0.000 NA
ATOM     24  C   UNL     1       5.234   3.918  18.536  0.00  0.00    +0.000 C 
ATOM     25  C   UNL     1       5.874   5.231  18.084  0.00  0.00    +0.000 C 
BRANCH  23  26
ATOM     26  C   UNL     1       3.782   2.068  18.088  0.00  0.00    +0.000 C 
BRANCH  26  27
ATOM     27  C   UNL     1       2.885   2.510  19.222  0.00  0.00    +0.000 A 
ATOM     28  C   UNL     1       1.570   2.925  18.969  0.00  0.00    +0.000 A 
ATOM     29  C   UNL     1       0.731   3.305  20.014  0.00  0.00    +0.000 A 
ATOM     30  C   UNL     1       1.195   3.278  21.327  0.00  0.00    +0.000 A 
ATOM     31  C   UNL     1       2.501   2.871  21.595  0.00  0.00    +0.000 A 
ATOM     32  C   UNL     1       3.340   2.493  20.547  0.00  0.00    +0.000 A 
ENDBRANCH  26  27
ENDBRANCH  23  26
ENDBRANCH   5  20
TORSDOF 4
ENDMDL
MODEL 5
REMARK VINA RESULT:      -8.3      2.746      8.275
REMARK  Name = 
REMARK  4 active torsions:
REMARK  status: ('A' for Active; 'I' for Inactive)
REMARK    1  A    between atoms: C_5  and  N_6
REMARK    2  A    between atoms: C_10  and  C_11
REMARK    3  A    between atoms: N_14  and  C_15
REMARK    4  A    between atoms: C_15  and  C_16
REMARK                            x       y       z     vdW  Elec       q    Type
REMARK                         _______ _______ _______ _____ _____    ______ ____
ROOT
ATOM      1  N   UNL     1       2.399   6.614  18.731  0.00  0.00    +0.000 N 
ATOM      2  C   UNL     1       2.348   7.918  18.079  0.00  0.00    +0.000 C 
ATOM      3  C   UNL     1       1.738   8.786  19.138  0.00  0.00    +0.000 A 
ATOM      4  C   UNL     1       1.413  10.135  19.153  0.00  0.00    +0.000 A 
ATOM      5  C   UNL     1       0.840  10.695  20.323  0.00  0.00    +0.000 A 
ATOM      6  C   UNL     1       0.625   9.855  21.447  0.00  0.00    +0.000 A 
ATOM      7  C   UNL     1       0.947   8.507  21.430  0.00  0.00    +0.000 A 
ATOM      8  C   UNL     1       1.514   8.024  20.276  0.00  0.00    +0.000 A 
ATOM      9  C   UNL     1       2.008   6.679  20.052  0.00  0.00    +0.000 C 
ATOM     10  O   UNL     1       2.062   5.831  20.925  0.00  0.00    +0.000 OA
ENDROOT
BRANCH   1  15
ATOM     11  O   UNL     1       1.914   2.071  20.361  0.00  0.00    +0.000 OA
ATOM     12  C   UNL     1       2.200   3.022  19.635  0.00  0.00    +0.000 C 
ATOM     13  C   UNL     1       1.201   3.608  18.661  0.00  0.00    +0.000 C 
ATOM     14  C   UNL     1       1.856   4.451  17.579  0.00  0.00    +0.000 C 
ATOM     15  C   UNL     1       2.927   5.414  18.101  0.00  0.00    +0.000 C 
ATOM     16  C   UNL     1       3.904   4.719  19.051  0.00  0.00    +0.000 C 
ATOM     17  O   UNL     1       5.007   5.195  19.317  0.00  0.00    +0.000 OA
ATOM     18  N   UNL     1       3.448   3.590  19.687  0.00  0.00    +0.000 N 
ATOM     19  H   UNL     1       4.065   3.205  20.388  0.00  0.00    +0.000 HD
ENDBRANCH   1  15
BRANCH   5  20
ATOM     20  C   UNL     1       0.546  12.198  20.393  0.00  0.00    +0.000 C 
ATOM     21  C   UNL     1      -0.543  12.629  21.391  0.00  0.00    +0.000 C 
ATOM     22  C   UNL     1      -1.953  12.236  20.932  0.00  0.00    +0.000 C 
ATOM     23  N   UNL     1      -2.295  12.676  19.573  0.00  0.00    +0.000 NA
ATOM     24  C   UNL     1      -1.229  12.419  18.589  0.00  0.00    +0.000 C 
ATOM     25  C   UNL     1       0.171  12.831  19.045  0.00  0.00    +0.000 C 
BRANCH  23  26
ATOM     26  C   UNL     1      -3.525  11.984  19.109  0.00  0.00    +0.000 C 
BRANCH  26  27
ATOM     27  C   UNL     1      -3.370  11.198  17.826  0.00  0.00    +0.000 A 
ATOM     28  C   UNL     1      -4.082  11.567  16.676  0.00  0.00    +0.000 A 
ATOM     29  C   UNL     1      -3.920  10.864  15.484  0.00  0.00    +0.000 A 
ATOM     30  C   UNL     1      -3.045   9.782  15.425  0.00  0.00    +0.000 A 
ATOM     31  C   UNL     1      -2.331   9.401  16.561  0.00  0.00    +0.000 A 
ATOM     32  C   UNL     1      -2.496  10.105  17.754  0.00  0.00    +0.000 A 
ENDBRANCH  26  27
ENDBRANCH  23  26
ENDBRANCH   5  20
TORSDOF 4
ENDMDL
MODEL 6
REMARK VINA RESULT:      -8.3      3.538      9.470
REMARK  Name = 
REMARK  4 active torsions:
REMARK  status: ('A' for Active; 'I' for Inactive)
REMARK    1  A    between atoms: C_5  and  N_6
REMARK    2  A    between atoms: C_10  and  C_11
REMARK    3  A    between atoms: N_14  and  C_15
REMARK    4  A    between atoms: C_15  and  C_16
REMARK                            x       y       z     vdW  Elec       q    Type
REMARK                         _______ _______ _______ _____ _____    ______ ____
ROOT
ATOM      1  N   UNL     1       3.979   5.702  18.934  0.00  0.00    +0.000 N 
ATOM      2  C   UNL     1       3.078   6.013  20.038  0.00  0.00    +0.000 C 
ATOM      3  C   UNL     1       2.392   7.257  19.558  0.00  0.00    +0.000 A 
ATOM      4  C   UNL     1       1.424   8.061  20.140  0.00  0.00    +0.000 A 
ATOM      5  C   UNL     1       0.950   9.195  19.433  0.00  0.00    +0.000 A 
ATOM      6  C   UNL     1       1.478   9.464  18.143  0.00  0.00    +0.000 A 
ATOM      7  C   UNL     1       2.448   8.661  17.563  0.00  0.00    +0.000 A 
ATOM      8  C   UNL     1       2.857   7.569  18.288  0.00  0.00    +0.000 A 
ATOM      9  C   UNL     1       3.791   6.546  17.859  0.00  0.00    +0.000 C 
ATOM     10  O   UNL     1       4.255   6.492  16.734  0.00  0.00    +0.000 OA
ENDROOT
BRANCH   1  15
ATOM     11  O   UNL     1       7.597   4.940  15.793  0.00  0.00    +0.000 OA
ATOM     12  C   UNL     1       6.845   4.803  16.757  0.00  0.00    +0.000 C 
ATOM     13  C   UNL     1       7.092   5.517  18.068  0.00  0.00    +0.000 C 
ATOM     14  C   UNL     1       6.337   4.894  19.231  0.00  0.00    +0.000 C 
ATOM     15  C   UNL     1       4.876   4.558  18.918  0.00  0.00    +0.000 C 
ATOM     16  C   UNL     1       4.736   3.811  17.590  0.00  0.00    +0.000 C 
ATOM     17  O   UNL     1       3.729   3.163  17.308  0.00  0.00    +0.000 OA
ATOM     18  N   UNL     1       5.742   3.990  16.672  0.00  0.00    +0.000 N 
ATOM     19  H   UNL     1       5.584   3.576  15.764  0.00  0.00    +0.000 HD
ENDBRANCH   1  15
BRANCH   5  20
ATOM     20  C   UNL     1      -0.177  10.053  20.020  0.00  0.00    +0.000 C 
ATOM     21  C   UNL     1      -0.892  10.996  19.036  0.00  0.00    +0.000 C 
ATOM     22  C   UNL     1      -0.018  12.185  18.617  0.00  0.00    +0.000 C 
ATOM     23  N   UNL     1       0.552  12.945  19.737  0.00  0.00    +0.000 NA
ATOM     24  C   UNL     1       1.131  12.091  20.789  0.00  0.00    +0.000 C 
ATOM     25  C   UNL     1       0.247  10.918  21.215  0.00  0.00    +0.000 C 
BRANCH  23  26
ATOM     26  C   UNL     1       1.619  13.853  19.243  0.00  0.00    +0.000 C 
BRANCH  26  27
ATOM     27  C   UNL     1       1.142  15.224  18.817  0.00  0.00    +0.000 A 
ATOM     28  C   UNL     1      -0.202  15.589  18.972  0.00  0.00    +0.000 A 
ATOM     29  C   UNL     1      -0.640  16.861  18.608  0.00  0.00    +0.000 A 
ATOM     30  C   UNL     1       0.260  17.785  18.082  0.00  0.00    +0.000 A 
ATOM     31  C   UNL     1       1.599  17.436  17.918  0.00  0.00    +0.000 A 
ATOM     32  C   UNL     1       2.035  16.162  18.282  0.00  0.00    +0.000 A 
ENDBRANCH  26  27
ENDBRANCH  23  26
ENDBRANCH   5  20
TORSDOF 4
ENDMDL
MODEL 7
REMARK VINA RESULT:      -8.1      3.655      8.890
REMARK  Name = 
REMARK  4 active torsions:
REMARK  status: ('A' for Active; 'I' for Inactive)
REMARK    1  A    between atoms: C_5  and  N_6
REMARK    2  A    between atoms: C_10  and  C_11
REMARK    3  A    between atoms: N_14  and  C_15
REMARK    4  A    between atoms: C_15  and  C_16
REMARK                            x       y       z     vdW  Elec       q    Type
REMARK                         _______ _______ _______ _____ _____    ______ ____
ROOT
ATOM      1  N   UNL     1       3.151   5.332  18.858  0.00  0.00    +0.000 N 
ATOM      2  C   UNL     1       3.113   6.415  17.881  0.00  0.00    +0.000 C 
ATOM      3  C   UNL     1       2.331   7.473  18.598  0.00  0.00    +0.000 A 
ATOM      4  C   UNL     1       1.937   8.747  18.219  0.00  0.00    +0.000 A 
ATOM      5  C   UNL     1       1.192   9.541  19.128  0.00  0.00    +0.000 A 
ATOM      6  C   UNL     1       0.882   9.005  20.405  0.00  0.00    +0.000 A 
ATOM      7  C   UNL     1       1.275   7.730  20.784  0.00  0.00    +0.000 A 
ATOM      8  C   UNL     1       2.006   7.014  19.868  0.00  0.00    +0.000 A 
ATOM      9  C   UNL     1       2.594   5.704  20.064  0.00  0.00    +0.000 C 
ATOM     10  O   UNL     1       2.583   5.117  21.132  0.00  0.00    +0.000 OA
ENDROOT
BRANCH   1  15
ATOM     11  O   UNL     1       6.745   4.498  15.708  0.00  0.00    +0.000 OA
ATOM     12  C   UNL     1       5.923   4.327  16.608  0.00  0.00    +0.000 C 
ATOM     13  C   UNL     1       6.220   4.710  18.041  0.00  0.00    +0.000 C 
ATOM     14  C   UNL     1       5.293   4.034  19.037  0.00  0.00    +0.000 C 
ATOM     15  C   UNL     1       3.816   4.059  18.631  0.00  0.00    +0.000 C 
ATOM     16  C   UNL     1       3.618   3.627  17.176  0.00  0.00    +0.000 C 
ATOM     17  O   UNL     1       2.526   3.257  16.747  0.00  0.00    +0.000 OA
ATOM     18  N   UNL     1       4.695   3.779  16.336  0.00  0.00    +0.000 N 
ATOM     19  H   UNL     1       4.516   3.589  15.360  0.00  0.00    +0.000 HD
ENDBRANCH   1  15
BRANCH   5  20
ATOM     20  C   UNL     1       0.814  10.981  18.763  0.00  0.00    +0.000 C 
ATOM     21  C   UNL     1       1.539  12.090  19.546  0.00  0.00    +0.000 C 
ATOM     22  C   UNL     1       1.068  12.190  21.002  0.00  0.00    +0.000 C 
ATOM     23  N   UNL     1      -0.388  12.312  21.163  0.00  0.00    +0.000 NA
ATOM     24  C   UNL     1      -1.150  11.367  20.328  0.00  0.00    +0.000 C 
ATOM     25  C   UNL     1      -0.687  11.286  18.873  0.00  0.00    +0.000 C 
BRANCH  23  26
ATOM     26  C   UNL     1      -0.763  12.079  22.581  0.00  0.00    +0.000 C 
BRANCH  26  27
ATOM     27  C   UNL     1      -1.922  12.913  23.079  0.00  0.00    +0.000 A 
ATOM     28  C   UNL     1      -1.782  14.298  23.247  0.00  0.00    +0.000 A 
ATOM     29  C   UNL     1      -2.855  15.074  23.677  0.00  0.00    +0.000 A 
ATOM     30  C   UNL     1      -4.084  14.477  23.949  0.00  0.00    +0.000 A 
ATOM     31  C   UNL     1      -4.239  13.101  23.790  0.00  0.00    +0.000 A 
ATOM     32  C   UNL     1      -3.162  12.325  23.361  0.00  0.00    +0.000 A 
ENDBRANCH  26  27
ENDBRANCH  23  26
ENDBRANCH   5  20
TORSDOF 4
ENDMDL
MODEL 8
REMARK VINA RESULT:      -8.0      3.353      9.476
REMARK  Name = 
REMARK  4 active torsions:
REMARK  status: ('A' for Active; 'I' for Inactive)
REMARK    1  A    between atoms: C_5  and  N_6
REMARK    2  A    between atoms: C_10  and  C_11
REMARK    3  A    between atoms: N_14  and  C_15
REMARK    4  A    between atoms: C_15  and  C_16
REMARK                            x       y       z     vdW  Elec       q    Type
REMARK                         _______ _______ _______ _____ _____    ______ ____
ROOT
ATOM      1  N   UNL     1       4.049   6.224  18.134  0.00  0.00    +0.000 N 
ATOM      2  C   UNL     1       3.217   6.197  19.332  0.00  0.00    +0.000 C 
ATOM      3  C   UNL     1       2.429   7.466  19.209  0.00  0.00    +0.000 A 
ATOM      4  C   UNL     1       1.463   8.036  20.024  0.00  0.00    +0.000 A 
ATOM      5  C   UNL     1       0.875   9.269  19.642  0.00  0.00    +0.000 A 
ATOM      6  C   UNL     1       1.290   9.875  18.428  0.00  0.00    +0.000 A 
ATOM      7  C   UNL     1       2.257   9.305  17.614  0.00  0.00    +0.000 A 
ATOM      8  C   UNL     1       2.780   8.105  18.027  0.00  0.00    +0.000 A 
ATOM      9  C   UNL     1       3.735   7.283  17.309  0.00  0.00    +0.000 C 
ATOM     10  O   UNL     1       4.117   7.533  16.179  0.00  0.00    +0.000 OA
ENDROOT
BRANCH   1  15
ATOM     11  O   UNL     1       3.746   1.536  19.345  0.00  0.00    +0.000 OA
ATOM     12  C   UNL     1       4.137   2.581  18.826  0.00  0.00    +0.000 C 
ATOM     13  C   UNL     1       3.567   3.084  17.518  0.00  0.00    +0.000 C 
ATOM     14  C   UNL     1       4.459   4.112  16.841  0.00  0.00    +0.000 C 
ATOM     15  C   UNL     1       5.005   5.184  17.789  0.00  0.00    +0.000 C 
ATOM     16  C   UNL     1       5.587   4.573  19.065  0.00  0.00    +0.000 C 
ATOM     17  O   UNL     1       6.361   5.193  19.793  0.00  0.00    +0.000 OA
ATOM     18  N   UNL     1       5.115   3.334  19.426  0.00  0.00    +0.000 N 
ATOM     19  H   UNL     1       5.429   2.993  20.324  0.00  0.00    +0.000 HD
ENDBRANCH   1  15
BRANCH   5  20
ATOM     20  C   UNL     1      -0.252   9.879  20.485  0.00  0.00    +0.000 C 
ATOM     21  C   UNL     1      -1.349  10.627  19.708  0.00  0.00    +0.000 C 
ATOM     22  C   UNL     1      -0.862  11.966  19.141  0.00  0.00    +0.000 C 
ATOM     23  N   UNL     1      -0.234  12.853  20.129  0.00  0.00    +0.000 NA
ATOM     24  C   UNL     1       0.730  12.164  21.005  0.00  0.00    +0.000 C 
ATOM     25  C   UNL     1       0.231  10.838  21.582  0.00  0.00    +0.000 C 
BRANCH  23  26
ATOM     26  C   UNL     1       0.480  13.958  19.439  0.00  0.00    +0.000 C 
BRANCH  26  27
ATOM     27  C   UNL     1      -0.291  15.256  19.347  0.00  0.00    +0.000 A 
ATOM     28  C   UNL     1      -0.061  16.146  18.288  0.00  0.00    +0.000 A 
ATOM     29  C   UNL     1      -0.790  17.329  18.183  0.00  0.00    +0.000 A 
ATOM     30  C   UNL     1      -1.756  17.640  19.136  0.00  0.00    +0.000 A 
ATOM     31  C   UNL     1      -1.995  16.767  20.196  0.00  0.00    +0.000 A 
ATOM     32  C   UNL     1      -1.263  15.584  20.300  0.00  0.00    +0.000 A 
ENDBRANCH  26  27
ENDBRANCH  23  26
ENDBRANCH   5  20
TORSDOF 4
ENDMDL
MODEL 9
REMARK VINA RESULT:      -7.9      3.093      8.988
REMARK  Name = 
REMARK  4 active torsions:
REMARK  status: ('A' for Active; 'I' for Inactive)
REMARK    1  A    between atoms: C_5  and  N_6
REMARK    2  A    between atoms: C_10  and  C_11
REMARK    3  A    between atoms: N_14  and  C_15
REMARK    4  A    between atoms: C_15  and  C_16
REMARK                            x       y       z     vdW  Elec       q    Type
REMARK                         _______ _______ _______ _____ _____    ______ ____
ROOT
ATOM      1  N   UNL     1       2.645   6.655  18.625  0.00  0.00    +0.000 N 
ATOM      2  C   UNL     1       2.481   7.895  17.874  0.00  0.00    +0.000 C 
ATOM      3  C   UNL     1       1.714   8.756  18.831  0.00  0.00    +0.000 A 
ATOM      4  C   UNL     1       1.235  10.053  18.727  0.00  0.00    +0.000 A 
ATOM      5  C   UNL     1       0.533  10.621  19.820  0.00  0.00    +0.000 A 
ATOM      6  C   UNL     1       0.351   9.842  20.993  0.00  0.00    +0.000 A 
ATOM      7  C   UNL     1       0.828   8.545  21.096  0.00  0.00    +0.000 A 
ATOM      8  C   UNL     1       1.513   8.053  20.012  0.00  0.00    +0.000 A 
ATOM      9  C   UNL     1       2.172   6.765  19.916  0.00  0.00    +0.000 C 
ATOM     10  O   UNL     1       2.272   5.993  20.852  0.00  0.00    +0.000 OA
ENDROOT
BRANCH   1  15
ATOM     11  O   UNL     1       2.225   2.116  20.285  0.00  0.00    +0.000 OA
ATOM     12  C   UNL     1       2.553   3.073  19.585  0.00  0.00    +0.000 C 
ATOM     13  C   UNL     1       1.680   3.571  18.455  0.00  0.00    +0.000 C 
ATOM     14  C   UNL     1       2.435   4.440  17.463  0.00  0.00    +0.000 C 
ATOM     15  C   UNL     1       3.344   5.486  18.115  0.00  0.00    +0.000 C 
ATOM     16  C   UNL     1       4.208   4.878  19.222  0.00  0.00    +0.000 C 
ATOM     17  O   UNL     1       5.221   5.436  19.641  0.00  0.00    +0.000 OA
ATOM     18  N   UNL     1       3.737   3.730  19.812  0.00  0.00    +0.000 N 
ATOM     19  H   UNL     1       4.263   3.402  20.609  0.00  0.00    +0.000 HD
ENDBRANCH   1  15
BRANCH   5  20
ATOM     20  C   UNL     1       0.063  12.080  19.760  0.00  0.00    +0.000 C 
ATOM     21  C   UNL     1      -1.117  12.449  20.675  0.00  0.00    +0.000 C 
ATOM     22  C   UNL     1      -2.447  11.857  20.190  0.00  0.00    +0.000 C 
ATOM     23  N   UNL     1      -2.769  12.154  18.787  0.00  0.00    +0.000 NA
ATOM     24  C   UNL     1      -1.632  11.955  17.872  0.00  0.00    +0.000 C 
ATOM     25  C   UNL     1      -0.314  12.563  18.353  0.00  0.00    +0.000 C 
BRANCH  23  26
ATOM     26  C   UNL     1      -3.885  11.288  18.329  0.00  0.00    +0.000 C 
BRANCH  26  27
ATOM     27  C   UNL     1      -5.247  11.947  18.334  0.00  0.00    +0.000 A 
ATOM     28  C   UNL     1      -6.018  11.976  19.504  0.00  0.00    +0.000 A 
ATOM     29  C   UNL     1      -7.260  12.608  19.521  0.00  0.00    +0.000 A 
ATOM     30  C   UNL     1      -7.749  13.217  18.368  0.00  0.00    +0.000 A 
ATOM     31  C   UNL     1      -6.995  13.194  17.195  0.00  0.00    +0.000 A 
ATOM     32  C   UNL     1      -5.753  12.559  17.180  0.00  0.00    +0.000 A 
ENDBRANCH  26  27
ENDBRANCH  23  26
ENDBRANCH   5  20
TORSDOF 4
ENDMDL
