MODEL 1
REMARK VINA RESULT:      -9.0      0.000      0.000
REMARK  Name = 
REMARK  7 active torsions:
REMARK  status: ('A' for Active; 'I' for Inactive)
REMARK    1  A    between atoms: C_1  and  N_2
REMARK    2  A    between atoms: C_3  and  C_5
REMARK    3  A    between atoms: C_9  and  N_10
REMARK    4  A    between atoms: C_18  and  C_19
REMARK    5  A    between atoms: C_19  and  O_20
REMARK    6  A    between atoms: O_20  and  C_21
REMARK    7  A    between atoms: C_24  and  C_25
REMARK                            x       y       z     vdW  Elec       q    Type
REMARK                         _______ _______ _______ _____ _____    ______ ____
ROOT
ATOM      1  N   UNL     1       1.929   5.810  20.670  0.00  0.00    +0.000 N 
ATOM      2  C   UNL     1       2.869   5.047  19.976  0.00  0.00    +0.000 A 
ATOM      3  N   UNL     1       2.576   3.770  19.776  0.00  0.00    +0.000 NA
ATOM      4  C   UNL     1       3.526   3.084  19.148  0.00  0.00    +0.000 A 
ATOM      5  N   UNL     1       4.713   3.543  18.773  0.00  0.00    +0.000 NA
ATOM      6  C   UNL     1       4.924   4.829  19.043  0.00  0.00    +0.000 A 
ATOM      7  N   UNL     1       6.169   5.387  18.767  0.00  0.00    +0.000 N 
ATOM      8  C   UNL     1       6.470   6.747  18.473  0.00  0.00    +0.000 C 
ATOM      9  C   UNL     1       7.482   6.236  17.438  0.00  0.00    +0.000 C 
ATOM     10  C   UNL     1       7.276   4.846  18.062  0.00  0.00    +0.000 C 
ATOM     11  N   UNL     1       4.013   5.614  19.606  0.00  0.00    +0.000 NA
ATOM     12  H   UNL     1       1.134   5.232  20.915  0.00  0.00    +0.000 HD
ENDROOT
BRANCH   1  17
ATOM     13  C   UNL     1       0.704   9.237  21.372  0.00  0.00    +0.000 A 
ATOM     14  C   UNL     1       0.972   9.887  20.162  0.00  0.00    +0.000 A 
ATOM     15  C   UNL     1       1.575   9.188  19.118  0.00  0.00    +0.000 A 
ATOM     16  C   UNL     1       1.903   7.842  19.282  0.00  0.00    +0.000 A 
ATOM     17  C   UNL     1       1.625   7.172  20.484  0.00  0.00    +0.000 A 
ATOM     18  C   UNL     1       1.017   7.880  21.522  0.00  0.00    +0.000 A 
BRANCH  13  21
ATOM     19  C   UNL     1      -1.550  11.783  23.026  0.00  0.00    +0.000 C 
ATOM     20  N   UNL     1      -0.875  10.970  22.049  0.00  0.00    +0.000 N 
ATOM     21  C   UNL     1       0.030  10.008  22.453  0.00  0.00    +0.000 C 
ATOM     22  O   UNL     1       0.288   9.770  23.626  0.00  0.00    +0.000 OA
ATOM     23  H   UNL     1      -1.178  11.004  21.089  0.00  0.00    +0.000 HD
ENDBRANCH  13  21
ENDBRANCH   1  17
BRANCH   9  24
ATOM     24  C   UNL     1       7.041   6.335  15.982  0.00  0.00    +0.000 C 
BRANCH  24  25
ATOM     25  O   UNL     1       7.720   5.314  15.245  0.00  0.00    +0.000 OA
BRANCH  25  26
ATOM     26  C   UNL     1       6.996   4.721  14.246  0.00  0.00    +0.000 A 
ATOM     27  C   UNL     1       5.712   4.302  14.601  0.00  0.00    +0.000 A 
ATOM     28  C   UNL     1       4.863   3.733  13.648  0.00  0.00    +0.000 A 
ATOM     29  C   UNL     1       5.282   3.593  12.317  0.00  0.00    +0.000 A 
ATOM     30  C   UNL     1       6.574   4.014  11.969  0.00  0.00    +0.000 A 
ATOM     31  C   UNL     1       7.426   4.575  12.928  0.00  0.00    +0.000 A 
BRANCH  29  32
ATOM     32  C   UNL     1       4.364   3.024  11.262  0.00  0.00    +0.000 C 
ATOM     33  F   UNL     1       4.154   3.862  10.209  0.00  0.00    +0.000 F 
ATOM     34  F   UNL     1       4.846   1.868  10.726  0.00  0.00    +0.000 F 
ATOM     35  F   UNL     1       3.130   2.721  11.752  0.00  0.00    +0.000 F 
ENDBRANCH  29  32
ENDBRANCH  25  26
ENDBRANCH  24  25
ENDBRANCH   9  24
TORSDOF 6
ENDMDL
MODEL 2
REMARK VINA RESULT:      -8.4      0.216      1.069
REMARK  Name = 
REMARK  7 active torsions:
REMARK  status: ('A' for Active; 'I' for Inactive)
REMARK    1  A    between atoms: C_1  and  N_2
REMARK    2  A    between atoms: C_3  and  C_5
REMARK    3  A    between atoms: C_9  and  N_10
REMARK    4  A    between atoms: C_18  and  C_19
REMARK    5  A    between atoms: C_19  and  O_20
REMARK    6  A    between atoms: O_20  and  C_21
REMARK    7  A    between atoms: C_24  and  C_25
REMARK                            x       y       z     vdW  Elec       q    Type
REMARK                         _______ _______ _______ _____ _____    ______ ____
ROOT
ATOM      1  N   UNL     1       1.765   5.803  20.461  0.00  0.00    +0.000 N 
ATOM      2  C   UNL     1       2.731   5.046  19.799  0.00  0.00    +0.000 A 
ATOM      3  N   UNL     1       2.414   3.793  19.503  0.00  0.00    +0.000 NA
ATOM      4  C   UNL     1       3.388   3.108  18.912  0.00  0.00    +0.000 A 
ATOM      5  N   UNL     1       4.615   3.544  18.657  0.00  0.00    +0.000 NA
ATOM      6  C   UNL     1       4.845   4.804  19.016  0.00  0.00    +0.000 A 
ATOM      7  N   UNL     1       6.126   5.330  18.870  0.00  0.00    +0.000 N 
ATOM      8  C   UNL     1       6.493   6.693  18.679  0.00  0.00    +0.000 C 
ATOM      9  C   UNL     1       7.567   6.203  17.697  0.00  0.00    +0.000 C 
ATOM     10  C   UNL     1       7.267   4.789  18.222  0.00  0.00    +0.000 C 
ATOM     11  N   UNL     1       3.919   5.590  19.551  0.00  0.00    +0.000 NA
ATOM     12  H   UNL     1       0.935   5.242  20.610  0.00  0.00    +0.000 HD
ENDROOT
BRANCH   1  17
ATOM     13  C   UNL     1       0.697   9.251  21.307  0.00  0.00    +0.000 A 
ATOM     14  C   UNL     1       0.987   9.936  20.122  0.00  0.00    +0.000 A 
ATOM     15  C   UNL     1       1.552   9.253  19.046  0.00  0.00    +0.000 A 
ATOM     16  C   UNL     1       1.821   7.888  19.154  0.00  0.00    +0.000 A 
ATOM     17  C   UNL     1       1.521   7.184  20.331  0.00  0.00    +0.000 A 
ATOM     18  C   UNL     1       0.950   7.876  21.401  0.00  0.00    +0.000 A 
BRANCH  13  21
ATOM     19  C   UNL     1      -1.431  11.826  23.077  0.00  0.00    +0.000 C 
ATOM     20  N   UNL     1      -0.799  11.024  22.064  0.00  0.00    +0.000 N 
ATOM     21  C   UNL     1       0.065  10.007  22.422  0.00  0.00    +0.000 C 
ATOM     22  O   UNL     1       0.318   9.711  23.583  0.00  0.00    +0.000 OA
ATOM     23  H   UNL     1      -1.105  11.110  21.108  0.00  0.00    +0.000 HD
ENDBRANCH  13  21
ENDBRANCH   1  17
BRANCH   9  24
ATOM     24  C   UNL     1       7.245   6.398  16.219  0.00  0.00    +0.000 C 
BRANCH  24  25
ATOM     25  O   UNL     1       7.718   5.248  15.510  0.00  0.00    +0.000 OA
BRANCH  25  26
ATOM     26  C   UNL     1       6.875   4.754  14.552  0.00  0.00    +0.000 A 
ATOM     27  C   UNL     1       7.388   4.726  13.254  0.00  0.00    +0.000 A 
ATOM     28  C   UNL     1       6.635   4.192  12.204  0.00  0.00    +0.000 A 
ATOM     29  C   UNL     1       5.362   3.657  12.445  0.00  0.00    +0.000 A 
ATOM     30  C   UNL     1       4.853   3.690  13.751  0.00  0.00    +0.000 A 
ATOM     31  C   UNL     1       5.605   4.235  14.799  0.00  0.00    +0.000 A 
BRANCH  29  32
ATOM     32  C   UNL     1       4.551   3.033  11.335  0.00  0.00    +0.000 C 
ATOM     33  F   UNL     1       3.249   2.811  11.665  0.00  0.00    +0.000 F 
ATOM     34  F   UNL     1       4.524   3.808  10.215  0.00  0.00    +0.000 F 
ATOM     35  F   UNL     1       5.047   1.827  10.941  0.00  0.00    +0.000 F 
ENDBRANCH  29  32
ENDBRANCH  25  26
ENDBRANCH  24  25
ENDBRANCH   9  24
TORSDOF 6
ENDMDL
MODEL 3
REMARK VINA RESULT:      -8.4      5.365      8.429
REMARK  Name = 
REMARK  7 active torsions:
REMARK  status: ('A' for Active; 'I' for Inactive)
REMARK    1  A    between atoms: C_1  and  N_2
REMARK    2  A    between atoms: C_3  and  C_5
REMARK    3  A    between atoms: C_9  and  N_10
REMARK    4  A    between atoms: C_18  and  C_19
REMARK    5  A    between atoms: C_19  and  O_20
REMARK    6  A    between atoms: O_20  and  C_21
REMARK    7  A    between atoms: C_24  and  C_25
REMARK                            x       y       z     vdW  Elec       q    Type
REMARK                         _______ _______ _______ _____ _____    ______ ____
ROOT
ATOM      1  N   UNL     1      -1.750  14.759  22.160  0.00  0.00    +0.000 N 
ATOM      2  C   UNL     1      -0.577  14.197  21.657  0.00  0.00    +0.000 A 
ATOM      3  N   UNL     1       0.539  14.895  21.814  0.00  0.00    +0.000 NA
ATOM      4  C   UNL     1       1.616  14.331  21.278  0.00  0.00    +0.000 A 
ATOM      5  N   UNL     1       1.650  13.202  20.580  0.00  0.00    +0.000 NA
ATOM      6  C   UNL     1       0.476  12.590  20.453  0.00  0.00    +0.000 A 
ATOM      7  N   UNL     1       0.388  11.443  19.668  0.00  0.00    +0.000 N 
ATOM      8  C   UNL     1      -0.543  10.372  19.790  0.00  0.00    +0.000 C 
ATOM      9  C   UNL     1       0.609   9.413  19.454  0.00  0.00    +0.000 C 
ATOM     10  C   UNL     1       1.413  10.667  19.068  0.00  0.00    +0.000 C 
ATOM     11  N   UNL     1      -0.644  13.038  21.009  0.00  0.00    +0.000 NA
ATOM     12  H   UNL     1      -1.544  15.653  22.589  0.00  0.00    +0.000 HD
ENDROOT
BRANCH   1  17
ATOM     13  C   UNL     1      -5.075  13.143  22.436  0.00  0.00    +0.000 A 
ATOM     14  C   UNL     1      -5.094  12.762  23.783  0.00  0.00    +0.000 A 
ATOM     15  C   UNL     1      -3.993  13.031  24.595  0.00  0.00    +0.000 A 
ATOM     16  C   UNL     1      -2.880  13.682  24.063  0.00  0.00    +0.000 A 
ATOM     17  C   UNL     1      -2.853  14.084  22.718  0.00  0.00    +0.000 A 
ATOM     18  C   UNL     1      -3.963  13.815  21.914  0.00  0.00    +0.000 A 
BRANCH  13  21
ATOM     19  C   UNL     1      -7.494  11.259  20.224  0.00  0.00    +0.000 C 
ATOM     20  N   UNL     1      -6.376  11.602  21.063  0.00  0.00    +0.000 N 
ATOM     21  C   UNL     1      -6.281  12.868  21.608  0.00  0.00    +0.000 C 
ATOM     22  O   UNL     1      -7.124  13.741  21.446  0.00  0.00    +0.000 OA
ATOM     23  H   UNL     1      -5.751  10.874  21.370  0.00  0.00    +0.000 HD
ENDBRANCH  13  21
ENDBRANCH   1  17
BRANCH   9  24
ATOM     24  C   UNL     1       1.190   8.643  20.634  0.00  0.00    +0.000 C 
BRANCH  24  25
ATOM     25  O   UNL     1       2.313   7.893  20.162  0.00  0.00    +0.000 OA
BRANCH  25  26
ATOM     26  C   UNL     1       2.059   6.590  19.828  0.00  0.00    +0.000 A 
ATOM     27  C   UNL     1       2.504   6.194  18.565  0.00  0.00    +0.000 A 
ATOM     28  C   UNL     1       2.347   4.872  18.140  0.00  0.00    +0.000 A 
ATOM     29  C   UNL     1       1.759   3.920  18.985  0.00  0.00    +0.000 A 
ATOM     30  C   UNL     1       1.314   4.326  20.252  0.00  0.00    +0.000 A 
ATOM     31  C   UNL     1       1.463   5.654  20.671  0.00  0.00    +0.000 A 
BRANCH  29  32
ATOM     32  C   UNL     1       1.623   2.476  18.564  0.00  0.00    +0.000 C 
ATOM     33  F   UNL     1       2.298   1.606  19.365  0.00  0.00    +0.000 F 
ATOM     34  F   UNL     1       0.327   2.056  18.569  0.00  0.00    +0.000 F 
ATOM     35  F   UNL     1       2.082   2.255  17.301  0.00  0.00    +0.000 F 
ENDBRANCH  29  32
ENDBRANCH  25  26
ENDBRANCH  24  25
ENDBRANCH   9  24
TORSDOF 6
ENDMDL
MODEL 4
REMARK VINA RESULT:      -8.2      5.285     10.610
REMARK  Name = 
REMARK  7 active torsions:
REMARK  status: ('A' for Active; 'I' for Inactive)
REMARK    1  A    between atoms: C_1  and  N_2
REMARK    2  A    between atoms: C_3  and  C_5
REMARK    3  A    between atoms: C_9  and  N_10
REMARK    4  A    between atoms: C_18  and  C_19
REMARK    5  A    between atoms: C_19  and  O_20
REMARK    6  A    between atoms: O_20  and  C_21
REMARK    7  A    between atoms: C_24  and  C_25
REMARK                            x       y       z     vdW  Elec       q    Type
REMARK                         _______ _______ _______ _____ _____    ______ ____
ROOT
ATOM      1  N   UNL     1       4.626   3.424  18.728  0.00  0.00    +0.000 N 
ATOM      2  C   UNL     1       3.662   3.768  19.676  0.00  0.00    +0.000 A 
ATOM      3  N   UNL     1       3.380   2.862  20.602  0.00  0.00    +0.000 NA
ATOM      4  C   UNL     1       2.426   3.228  21.451  0.00  0.00    +0.000 A 
ATOM      5  N   UNL     1       1.727   4.355  21.413  0.00  0.00    +0.000 NA
ATOM      6  C   UNL     1       2.064   5.188  20.432  0.00  0.00    +0.000 A 
ATOM      7  N   UNL     1       1.335   6.360  20.253  0.00  0.00    +0.000 N 
ATOM      8  C   UNL     1       1.780   7.585  19.680  0.00  0.00    +0.000 C 
ATOM      9  C   UNL     1       0.959   8.316  20.754  0.00  0.00    +0.000 C 
ATOM     10  C   UNL     1       0.334   6.947  21.071  0.00  0.00    +0.000 C 
ATOM     11  N   UNL     1       3.049   4.943  19.575  0.00  0.00    +0.000 NA
ATOM     12  H   UNL     1       4.972   2.492  18.916  0.00  0.00    +0.000 HD
ENDROOT
BRANCH   1  17
ATOM     13  C   UNL     1       6.697   4.983  16.078  0.00  0.00    +0.000 A 
ATOM     14  C   UNL     1       7.419   5.935  16.806  0.00  0.00    +0.000 A 
ATOM     15  C   UNL     1       7.206   6.068  18.177  0.00  0.00    +0.000 A 
ATOM     16  C   UNL     1       6.277   5.247  18.818  0.00  0.00    +0.000 A 
ATOM     17  C   UNL     1       5.556   4.277  18.104  0.00  0.00    +0.000 A 
ATOM     18  C   UNL     1       5.781   4.149  16.731  0.00  0.00    +0.000 A 
BRANCH  13  21
ATOM     19  C   UNL     1       6.506   3.640  12.549  0.00  0.00    +0.000 C 
ATOM     20  N   UNL     1       6.278   3.861  13.952  0.00  0.00    +0.000 N 
ATOM     21  C   UNL     1       6.975   4.849  14.621  0.00  0.00    +0.000 C 
ATOM     22  O   UNL     1       7.780   5.595  14.080  0.00  0.00    +0.000 OA
ATOM     23  H   UNL     1       5.506   3.396  14.403  0.00  0.00    +0.000 HD
ENDBRANCH  13  21
ENDBRANCH   1  17
BRANCH   9  24
ATOM     24  C   UNL     1       1.764   8.912  21.903  0.00  0.00    +0.000 C 
BRANCH  24  25
ATOM     25  O   UNL     1       1.707  10.337  21.788  0.00  0.00    +0.000 OA
BRANCH  25  26
ATOM     26  C   UNL     1       0.461  10.892  21.898  0.00  0.00    +0.000 A 
ATOM     27  C   UNL     1      -0.306  10.441  22.974  0.00  0.00    +0.000 A 
ATOM     28  C   UNL     1      -1.574  10.977  23.216  0.00  0.00    +0.000 A 
ATOM     29  C   UNL     1      -2.085  11.990  22.392  0.00  0.00    +0.000 A 
ATOM     30  C   UNL     1      -1.309  12.436  21.312  0.00  0.00    +0.000 A 
ATOM     31  C   UNL     1      -0.044  11.890  21.066  0.00  0.00    +0.000 A 
BRANCH  29  32
ATOM     32  C   UNL     1      -3.432  12.616  22.663  0.00  0.00    +0.000 C 
ATOM     33  F   UNL     1      -4.421  12.165  21.843  0.00  0.00    +0.000 F 
ATOM     34  F   UNL     1      -3.866  12.382  23.932  0.00  0.00    +0.000 F 
ATOM     35  F   UNL     1      -3.416  13.971  22.518  0.00  0.00    +0.000 F 
ENDBRANCH  29  32
ENDBRANCH  25  26
ENDBRANCH  24  25
ENDBRANCH   9  24
TORSDOF 6
ENDMDL
MODEL 5
REMARK VINA RESULT:      -8.1      6.297      9.367
REMARK  Name = 
REMARK  7 active torsions:
REMARK  status: ('A' for Active; 'I' for Inactive)
REMARK    1  A    between atoms: C_1  and  N_2
REMARK    2  A    between atoms: C_3  and  C_5
REMARK    3  A    between atoms: C_9  and  N_10
REMARK    4  A    between atoms: C_18  and  C_19
REMARK    5  A    between atoms: C_19  and  O_20
REMARK    6  A    between atoms: O_20  and  C_21
REMARK    7  A    between atoms: C_24  and  C_25
REMARK                            x       y       z     vdW  Elec       q    Type
REMARK                         _______ _______ _______ _____ _____    ______ ____
ROOT
ATOM      1  N   UNL     1       0.432  10.022  20.157  0.00  0.00    +0.000 N 
ATOM      2  C   UNL     1       0.707  11.357  20.452  0.00  0.00    +0.000 A 
ATOM      3  N   UNL     1       0.227  11.831  21.594  0.00  0.00    +0.000 NA
ATOM      4  C   UNL     1       0.484  13.118  21.802  0.00  0.00    +0.000 A 
ATOM      5  N   UNL     1       1.106  13.942  20.969  0.00  0.00    +0.000 NA
ATOM      6  C   UNL     1       1.526  13.380  19.838  0.00  0.00    +0.000 A 
ATOM      7  N   UNL     1       2.116  14.176  18.860  0.00  0.00    +0.000 N 
ATOM      8  C   UNL     1       3.066  13.787  17.874  0.00  0.00    +0.000 C 
ATOM      9  C   UNL     1       3.767  15.134  18.103  0.00  0.00    +0.000 C 
ATOM     10  C   UNL     1       2.522  15.536  18.912  0.00  0.00    +0.000 C 
ATOM     11  N   UNL     1       1.378  12.089  19.568  0.00  0.00    +0.000 NA
ATOM     12  H   UNL     1      -0.114   9.612  20.904  0.00  0.00    +0.000 HD
ENDROOT
BRANCH   1  17
ATOM     13  C   UNL     1       2.332   6.934  19.382  0.00  0.00    +0.000 A 
ATOM     14  C   UNL     1       2.908   7.258  18.149  0.00  0.00    +0.000 A 
ATOM     15  C   UNL     1       2.653   8.499  17.569  0.00  0.00    +0.000 A 
ATOM     16  C   UNL     1       1.827   9.415  18.222  0.00  0.00    +0.000 A 
ATOM     17  C   UNL     1       1.254   9.110  19.467  0.00  0.00    +0.000 A 
ATOM     18  C   UNL     1       1.520   7.866  20.043  0.00  0.00    +0.000 A 
BRANCH  13  21
ATOM     19  C   UNL     1       3.836   3.485  19.753  0.00  0.00    +0.000 C 
ATOM     20  N   UNL     1       3.496   4.793  19.259  0.00  0.00    +0.000 N 
ATOM     21  C   UNL     1       2.653   5.611  19.986  0.00  0.00    +0.000 C 
ATOM     22  O   UNL     1       2.180   5.303  21.072  0.00  0.00    +0.000 OA
ATOM     23  H   UNL     1       3.993   5.161  18.463  0.00  0.00    +0.000 HD
ENDBRANCH  13  21
ENDBRANCH   1  17
BRANCH   9  24
ATOM     24  C   UNL     1       5.049  15.077  18.926  0.00  0.00    +0.000 C 
BRANCH  24  25
ATOM     25  O   UNL     1       6.104  15.637  18.138  0.00  0.00    +0.000 OA
BRANCH  25  26
ATOM     26  C   UNL     1       7.195  14.832  17.948  0.00  0.00    +0.000 A 
ATOM     27  C   UNL     1       8.425  15.395  18.292  0.00  0.00    +0.000 A 
ATOM     28  C   UNL     1       9.601  14.646  18.191  0.00  0.00    +0.000 A 
ATOM     29  C   UNL     1       9.558  13.312  17.762  0.00  0.00    +0.000 A 
ATOM     30  C   UNL     1       8.318  12.755  17.417  0.00  0.00    +0.000 A 
ATOM     31  C   UNL     1       7.143  13.510  17.510  0.00  0.00    +0.000 A 
BRANCH  29  32
ATOM     32  C   UNL     1      10.810  12.471  17.690  0.00  0.00    +0.000 C 
ATOM     33  F   UNL     1      11.617  12.779  16.638  0.00  0.00    +0.000 F 
ATOM     34  F   UNL     1      11.584  12.600  18.804  0.00  0.00    +0.000 F 
ATOM     35  F   UNL     1      10.538  11.141  17.577  0.00  0.00    +0.000 F 
ENDBRANCH  29  32
ENDBRANCH  25  26
ENDBRANCH  24  25
ENDBRANCH   9  24
TORSDOF 6
ENDMDL
MODEL 6
REMARK VINA RESULT:      -8.1      5.963      9.186
REMARK  Name = 
REMARK  7 active torsions:
REMARK  status: ('A' for Active; 'I' for Inactive)
REMARK    1  A    between atoms: C_1  and  N_2
REMARK    2  A    between atoms: C_3  and  C_5
REMARK    3  A    between atoms: C_9  and  N_10
REMARK    4  A    between atoms: C_18  and  C_19
REMARK    5  A    between atoms: C_19  and  O_20
REMARK    6  A    between atoms: O_20  and  C_21
REMARK    7  A    between atoms: C_24  and  C_25
REMARK                            x       y       z     vdW  Elec       q    Type
REMARK                         _______ _______ _______ _____ _____    ______ ____
ROOT
ATOM      1  N   UNL     1       0.418   9.745  19.954  0.00  0.00    +0.000 N 
ATOM      2  C   UNL     1       0.617  11.068  20.347  0.00  0.00    +0.000 A 
ATOM      3  N   UNL     1       0.006  11.464  21.454  0.00  0.00    +0.000 NA
ATOM      4  C   UNL     1       0.198  12.744  21.756  0.00  0.00    +0.000 A 
ATOM      5  N   UNL     1       0.876  13.630  21.038  0.00  0.00    +0.000 NA
ATOM      6  C   UNL     1       1.429  13.144  19.930  0.00  0.00    +0.000 A 
ATOM      7  N   UNL     1       2.091  14.009  19.063  0.00  0.00    +0.000 N 
ATOM      8  C   UNL     1       3.151  13.701  18.164  0.00  0.00    +0.000 C 
ATOM      9  C   UNL     1       3.779  15.052  18.536  0.00  0.00    +0.000 C 
ATOM     10  C   UNL     1       2.444  15.374  19.229  0.00  0.00    +0.000 C 
ATOM     11  N   UNL     1       1.352  11.866  19.577  0.00  0.00    +0.000 NA
ATOM     12  H   UNL     1      -0.189   9.279  20.616  0.00  0.00    +0.000 HD
ENDROOT
BRANCH   1  17
ATOM     13  C   UNL     1       2.537   6.783  19.257  0.00  0.00    +0.000 A 
ATOM     14  C   UNL     1       3.181   7.167  18.076  0.00  0.00    +0.000 A 
ATOM     15  C   UNL     1       2.898   8.406  17.503  0.00  0.00    +0.000 A 
ATOM     16  C   UNL     1       1.979   9.260  18.113  0.00  0.00    +0.000 A 
ATOM     17  C   UNL     1       1.337   8.895  19.307  0.00  0.00    +0.000 A 
ATOM     18  C   UNL     1       1.630   7.654  19.876  0.00  0.00    +0.000 A 
BRANCH  13  21
ATOM     19  C   UNL     1       4.200   3.413  19.667  0.00  0.00    +0.000 C 
ATOM     20  N   UNL     1       3.824   4.712  19.176  0.00  0.00    +0.000 N 
ATOM     21  C   UNL     1       2.888   5.466  19.856  0.00  0.00    +0.000 C 
ATOM     22  O   UNL     1       2.357   5.108  20.900  0.00  0.00    +0.000 OA
ATOM     23  H   UNL     1       4.354   5.125  18.425  0.00  0.00    +0.000 HD
ENDBRANCH  13  21
ENDBRANCH   1  17
BRANCH   9  24
ATOM     24  C   UNL     1       4.971  14.983  19.486  0.00  0.00    +0.000 C 
BRANCH  24  25
ATOM     25  O   UNL     1       6.132  15.408  18.766  0.00  0.00    +0.000 OA
BRANCH  25  26
ATOM     26  C   UNL     1       7.115  14.467  18.618  0.00  0.00    +0.000 A 
ATOM     27  C   UNL     1       7.960  14.300  19.717  0.00  0.00    +0.000 A 
ATOM     28  C   UNL     1       8.965  13.329  19.699  0.00  0.00    +0.000 A 
ATOM     29  C   UNL     1       9.127  12.496  18.584  0.00  0.00    +0.000 A 
ATOM     30  C   UNL     1       8.275  12.670  17.483  0.00  0.00    +0.000 A 
ATOM     31  C   UNL     1       7.275  13.650  17.500  0.00  0.00    +0.000 A 
BRANCH  29  32
ATOM     32  C   UNL     1      10.175  11.410  18.561  0.00  0.00    +0.000 C 
ATOM     33  F   UNL     1      11.246  11.665  19.363  0.00  0.00    +0.000 F 
ATOM     34  F   UNL     1       9.683  10.207  18.970  0.00  0.00    +0.000 F 
ATOM     35  F   UNL     1      10.683  11.200  17.315  0.00  0.00    +0.000 F 
ENDBRANCH  29  32
ENDBRANCH  25  26
ENDBRANCH  24  25
ENDBRANCH   9  24
TORSDOF 6
ENDMDL
MODEL 7
REMARK VINA RESULT:      -8.1      5.689      8.742
REMARK  Name = 
REMARK  7 active torsions:
REMARK  status: ('A' for Active; 'I' for Inactive)
REMARK    1  A    between atoms: C_1  and  N_2
REMARK    2  A    between atoms: C_3  and  C_5
REMARK    3  A    between atoms: C_9  and  N_10
REMARK    4  A    between atoms: C_18  and  C_19
REMARK    5  A    between atoms: C_19  and  O_20
REMARK    6  A    between atoms: O_20  and  C_21
REMARK    7  A    between atoms: C_24  and  C_25
REMARK                            x       y       z     vdW  Elec       q    Type
REMARK                         _______ _______ _______ _____ _____    ______ ____
ROOT
ATOM      1  N   UNL     1      -4.434  13.059  21.509  0.00  0.00    +0.000 N 
ATOM      2  C   UNL     1      -3.143  12.774  21.953  0.00  0.00    +0.000 A 
ATOM      3  N   UNL     1      -2.893  12.968  23.241  0.00  0.00    +0.000 NA
ATOM      4  C   UNL     1      -1.637  12.720  23.597  0.00  0.00    +0.000 A 
ATOM      5  N   UNL     1      -0.645  12.363  22.791  0.00  0.00    +0.000 NA
ATOM      6  C   UNL     1      -0.988  12.221  21.513  0.00  0.00    +0.000 A 
ATOM      7  N   UNL     1      -0.004  11.932  20.572  0.00  0.00    +0.000 N 
ATOM      8  C   UNL     1      -0.156  11.248  19.333  0.00  0.00    +0.000 C 
ATOM      9  C   UNL     1       1.193  10.568  19.612  0.00  0.00    +0.000 C 
ATOM     10  C   UNL     1       1.360  11.583  20.755  0.00  0.00    +0.000 C 
ATOM     11  N   UNL     1      -2.230  12.380  21.070  0.00  0.00    +0.000 NA
ATOM     12  H   UNL     1      -4.998  13.381  22.286  0.00  0.00    +0.000 HD
ENDROOT
BRANCH   1  17
ATOM     13  C   UNL     1      -5.212  11.467  18.253  0.00  0.00    +0.000 A 
ATOM     14  C   UNL     1      -6.555  11.115  18.424  0.00  0.00    +0.000 A 
ATOM     15  C   UNL     1      -7.198  11.395  19.629  0.00  0.00    +0.000 A 
ATOM     16  C   UNL     1      -6.500  12.029  20.657  0.00  0.00    +0.000 A 
ATOM     17  C   UNL     1      -5.156  12.402  20.495  0.00  0.00    +0.000 A 
ATOM     18  C   UNL     1      -4.523  12.122  19.282  0.00  0.00    +0.000 A 
BRANCH  13  21
ATOM     19  C   UNL     1      -2.944   9.834  15.706  0.00  0.00    +0.000 C 
ATOM     20  N   UNL     1      -3.638  10.159  16.924  0.00  0.00    +0.000 N 
ATOM     21  C   UNL     1      -4.568  11.180  16.942  0.00  0.00    +0.000 C 
ATOM     22  O   UNL     1      -4.876  11.832  15.953  0.00  0.00    +0.000 OA
ATOM     23  H   UNL     1      -3.551   9.544  17.718  0.00  0.00    +0.000 HD
ENDBRANCH  13  21
ENDBRANCH   1  17
BRANCH   9  24
ATOM     24  C   UNL     1       1.115   9.117  20.075  0.00  0.00    +0.000 C 
BRANCH  24  25
ATOM     25  O   UNL     1       2.118   8.376  19.373  0.00  0.00    +0.000 OA
BRANCH  25  26
ATOM     26  C   UNL     1       2.023   7.014  19.467  0.00  0.00    +0.000 A 
ATOM     27  C   UNL     1       2.354   6.306  18.311  0.00  0.00    +0.000 A 
ATOM     28  C   UNL     1       2.345   4.908  18.307  0.00  0.00    +0.000 A 
ATOM     29  C   UNL     1       2.022   4.197  19.471  0.00  0.00    +0.000 A 
ATOM     30  C   UNL     1       1.689   4.916  20.629  0.00  0.00    +0.000 A 
ATOM     31  C   UNL     1       1.689   6.316  20.627  0.00  0.00    +0.000 A 
BRANCH  29  32
ATOM     32  C   UNL     1       2.052   2.688  19.503  0.00  0.00    +0.000 C 
ATOM     33  F   UNL     1       3.309   2.165  19.493  0.00  0.00    +0.000 F 
ATOM     34  F   UNL     1       1.447   2.181  20.613  0.00  0.00    +0.000 F 
ATOM     35  F   UNL     1       1.407   2.132  18.440  0.00  0.00    +0.000 F 
ENDBRANCH  29  32
ENDBRANCH  25  26
ENDBRANCH  24  25
ENDBRANCH   9  24
TORSDOF 6
ENDMDL
MODEL 8
REMARK VINA RESULT:      -8.0      5.425      8.326
REMARK  Name = 
REMARK  7 active torsions:
REMARK  status: ('A' for Active; 'I' for Inactive)
REMARK    1  A    between atoms: C_1  and  N_2
REMARK    2  A    between atoms: C_3  and  C_5
REMARK    3  A    between atoms: C_9  and  N_10
REMARK    4  A    between atoms: C_18  and  C_19
REMARK    5  A    between atoms: C_19  and  O_20
REMARK    6  A    between atoms: O_20  and  C_21
REMARK    7  A    between atoms: C_24  and  C_25
REMARK                            x       y       z     vdW  Elec       q    Type
REMARK                         _______ _______ _______ _____ _____    ______ ____
ROOT
ATOM      1  N   UNL     1      -1.836  14.777  21.589  0.00  0.00    +0.000 N 
ATOM      2  C   UNL     1      -0.623  14.219  21.185  0.00  0.00    +0.000 A 
ATOM      3  N   UNL     1       0.475  14.915  21.449  0.00  0.00    +0.000 NA
ATOM      4  C   UNL     1       1.595  14.355  21.004  0.00  0.00    +0.000 A 
ATOM      5  N   UNL     1       1.691  13.235  20.300  0.00  0.00    +0.000 NA
ATOM      6  C   UNL     1       0.533  12.625  20.063  0.00  0.00    +0.000 A 
ATOM      7  N   UNL     1       0.515  11.486  19.261  0.00  0.00    +0.000 N 
ATOM      8  C   UNL     1      -0.422  10.415  19.288  0.00  0.00    +0.000 C 
ATOM      9  C   UNL     1       0.755   9.459  19.045  0.00  0.00    +0.000 C 
ATOM     10  C   UNL     1       1.590  10.716  18.746  0.00  0.00    +0.000 C 
ATOM     11  N   UNL     1      -0.632  13.067  20.522  0.00  0.00    +0.000 NA
ATOM     12  H   UNL     1      -1.669  15.665  22.044  0.00  0.00    +0.000 HD
ENDROOT
BRANCH   1  17
ATOM     13  C   UNL     1      -5.003  12.850  21.516  0.00  0.00    +0.000 A 
ATOM     14  C   UNL     1      -5.304  12.749  22.878  0.00  0.00    +0.000 A 
ATOM     15  C   UNL     1      -4.445  13.308  23.822  0.00  0.00    +0.000 A 
ATOM     16  C   UNL     1      -3.291  13.972  23.404  0.00  0.00    +0.000 A 
ATOM     17  C   UNL     1      -2.984  14.097  22.040  0.00  0.00    +0.000 A 
ATOM     18  C   UNL     1      -3.854  13.536  21.101  0.00  0.00    +0.000 A 
BRANCH  13  21
ATOM     19  C   UNL     1      -6.548  11.951  18.184  0.00  0.00    +0.000 C 
ATOM     20  N   UNL     1      -5.662  12.455  19.200  0.00  0.00    +0.000 N 
ATOM     21  C   UNL     1      -5.960  12.268  20.536  0.00  0.00    +0.000 C 
ATOM     22  O   UNL     1      -6.946  11.658  20.931  0.00  0.00    +0.000 OA
ATOM     23  H   UNL     1      -4.756  12.806  18.931  0.00  0.00    +0.000 HD
ENDBRANCH  13  21
ENDBRANCH   1  17
BRANCH   9  24
ATOM     24  C   UNL     1       1.229   8.675  20.264  0.00  0.00    +0.000 C 
BRANCH  24  25
ATOM     25  O   UNL     1       2.424   7.977  19.901  0.00  0.00    +0.000 OA
BRANCH  25  26
ATOM     26  C   UNL     1       2.266   6.655  19.583  0.00  0.00    +0.000 A 
ATOM     27  C   UNL     1       1.785   5.842  20.611  0.00  0.00    +0.000 A 
ATOM     28  C   UNL     1       1.533   4.485  20.385  0.00  0.00    +0.000 A 
ATOM     29  C   UNL     1       1.741   3.928  19.115  0.00  0.00    +0.000 A 
ATOM     30  C   UNL     1       2.225   4.751  18.088  0.00  0.00    +0.000 A 
ATOM     31  C   UNL     1       2.486   6.107  18.321  0.00  0.00    +0.000 A 
BRANCH  29  32
ATOM     32  C   UNL     1       1.430   2.477  18.836  0.00  0.00    +0.000 C 
ATOM     33  F   UNL     1       0.102   2.220  18.681  0.00  0.00    +0.000 F 
ATOM     34  F   UNL     1       2.031   2.028  17.699  0.00  0.00    +0.000 F 
ATOM     35  F   UNL     1       1.856   1.651  19.833  0.00  0.00    +0.000 F 
ENDBRANCH  29  32
ENDBRANCH  25  26
ENDBRANCH  24  25
ENDBRANCH   9  24
TORSDOF 6
ENDMDL
MODEL 9
REMARK VINA RESULT:      -7.9      5.395      8.017
REMARK  Name = 
REMARK  7 active torsions:
REMARK  status: ('A' for Active; 'I' for Inactive)
REMARK    1  A    between atoms: C_1  and  N_2
REMARK    2  A    between atoms: C_3  and  C_5
REMARK    3  A    between atoms: C_9  and  N_10
REMARK    4  A    between atoms: C_18  and  C_19
REMARK    5  A    between atoms: C_19  and  O_20
REMARK    6  A    between atoms: O_20  and  C_21
REMARK    7  A    between atoms: C_24  and  C_25
REMARK                            x       y       z     vdW  Elec       q    Type
REMARK                         _______ _______ _______ _____ _____    ______ ____
ROOT
ATOM      1  N   UNL     1      -0.881  14.682  21.348  0.00  0.00    +0.000 N 
ATOM      2  C   UNL     1       0.286  14.117  20.832  0.00  0.00    +0.000 A 
ATOM      3  N   UNL     1       1.427  14.727  21.122  0.00  0.00    +0.000 NA
ATOM      4  C   UNL     1       2.500  14.169  20.569  0.00  0.00    +0.000 A 
ATOM      5  N   UNL     1       2.511  13.131  19.742  0.00  0.00    +0.000 NA
ATOM      6  C   UNL     1       1.315  12.606  19.491  0.00  0.00    +0.000 A 
ATOM      7  N   UNL     1       1.207  11.567  18.570  0.00  0.00    +0.000 N 
ATOM      8  C   UNL     1       0.218  10.544  18.520  0.00  0.00    +0.000 C 
ATOM      9  C   UNL     1       1.335   9.568  18.121  0.00  0.00    +0.000 C 
ATOM     10  C   UNL     1       2.220  10.810  17.926  0.00  0.00    +0.000 C 
ATOM     11  N   UNL     1       0.193  13.049  20.047  0.00  0.00    +0.000 NA
ATOM     12  H   UNL     1      -0.651  15.505  21.890  0.00  0.00    +0.000 HD
ENDROOT
BRANCH   1  17
ATOM     13  C   UNL     1      -4.340  13.348  21.331  0.00  0.00    +0.000 A 
ATOM     14  C   UNL     1      -4.402  12.706  22.573  0.00  0.00    +0.000 A 
ATOM     15  C   UNL     1      -3.287  12.705  23.410  0.00  0.00    +0.000 A 
ATOM     16  C   UNL     1      -2.116  13.348  23.007  0.00  0.00    +0.000 A 
ATOM     17  C   UNL     1      -2.043  14.010  21.771  0.00  0.00    +0.000 A 
ATOM     18  C   UNL     1      -3.168  14.009  20.942  0.00  0.00    +0.000 A 
BRANCH  13  21
ATOM     19  C   UNL     1      -6.674  14.266  18.503  0.00  0.00    +0.000 C 
ATOM     20  N   UNL     1      -5.527  14.174  19.366  0.00  0.00    +0.000 N 
ATOM     21  C   UNL     1      -5.560  13.355  20.479  0.00  0.00    +0.000 C 
ATOM     22  O   UNL     1      -6.520  12.656  20.777  0.00  0.00    +0.000 OA
ATOM     23  H   UNL     1      -4.657  14.589  19.072  0.00  0.00    +0.000 HD
ENDBRANCH  13  21
ENDBRANCH   1  17
BRANCH   9  24
ATOM     24  C   UNL     1       1.814   8.631  19.225  0.00  0.00    +0.000 C 
BRANCH  24  25
ATOM     25  O   UNL     1       2.824   7.781  18.673  0.00  0.00    +0.000 OA
BRANCH  25  26
ATOM     26  C   UNL     1       2.595   6.436  18.785  0.00  0.00    +0.000 A 
ATOM     27  C   UNL     1       1.955   6.031  19.958  0.00  0.00    +0.000 A 
ATOM     28  C   UNL     1       1.621   4.688  20.157  0.00  0.00    +0.000 A 
ATOM     29  C   UNL     1       1.906   3.733  19.171  0.00  0.00    +0.000 A 
ATOM     30  C   UNL     1       2.551   4.148  17.996  0.00  0.00    +0.000 A 
ATOM     31  C   UNL     1       2.893   5.492  17.804  0.00  0.00    +0.000 A 
BRANCH  29  32
ATOM     32  C   UNL     1       1.512   2.286  19.344  0.00  0.00    +0.000 C 
ATOM     33  F   UNL     1       2.377   1.409  18.762  0.00  0.00    +0.000 F 
ATOM     34  F   UNL     1       1.441   1.922  20.655  0.00  0.00    +0.000 F 
ATOM     35  F   UNL     1       0.288   2.011  18.814  0.00  0.00    +0.000 F 
ENDBRANCH  29  32
ENDBRANCH  25  26
ENDBRANCH  24  25
ENDBRANCH   9  24
TORSDOF 6
ENDMDL
