MODEL 1
REMARK VINA RESULT:      -8.7      0.000      0.000
REMARK  Name = 
REMARK  6 active torsions:
REMARK  status: ('A' for Active; 'I' for Inactive)
REMARK    1  A    between atoms: C_1  and  C_2
REMARK    2  A    between atoms: C_2  and  O_3
REMARK    3  A    between atoms: O_3  and  C_4
REMARK    4  A    between atoms: C_10  and  C_11
REMARK    5  A    between atoms: C_14  and  N_15
REMARK    6  A    between atoms: C_17  and  C_18
REMARK                            x       y       z     vdW  Elec       q    Type
REMARK                         _______ _______ _______ _____ _____    ______ ____
ROOT
ATOM      1  C   UNL     1       2.545   7.282  18.485  0.00  0.00    +0.000 A 
ATOM      2  C   UNL     1       2.138   8.447  17.805  0.00  0.00    +0.000 A 
ATOM      3  C   UNL     1       1.479   9.498  18.457  0.00  0.00    +0.000 A 
ATOM      4  C   UNL     1       1.182   9.396  19.820  0.00  0.00    +0.000 A 
ATOM      5  C   UNL     1       1.562   8.248  20.517  0.00  0.00    +0.000 A 
ATOM      6  C   UNL     1       2.246   7.219  19.858  0.00  0.00    +0.000 A 
ENDROOT
BRANCH   1  13
ATOM      7  C   UNL     1       2.839   4.853  17.695  0.00  0.00    +0.000 A 
ATOM      8  C   UNL     1       3.629   3.880  17.065  0.00  0.00    +0.000 A 
ATOM      9  C   UNL     1       4.847   4.229  16.497  0.00  0.00    +0.000 A 
ATOM     10  F   UNL     1       5.586   3.289  15.894  0.00  0.00    +0.000 F 
ATOM     11  C   UNL     1       5.307   5.532  16.542  0.00  0.00    +0.000 A 
ATOM     12  C   UNL     1       4.543   6.502  17.190  0.00  0.00    +0.000 A 
ATOM     13  C   UNL     1       3.295   6.197  17.786  0.00  0.00    +0.000 A 
BRANCH   7  14
ATOM     14  O   UNL     1       1.602   4.572  18.226  0.00  0.00    +0.000 OA
BRANCH  14  16
ATOM     15  C   UNL     1       1.056   3.606  20.339  0.00  0.00    +0.000 C 
ATOM     16  C   UNL     1       1.417   3.324  18.891  0.00  0.00    +0.000 C 
ENDBRANCH  14  16
ENDBRANCH   7  14
ENDBRANCH   1  13
BRANCH   4  17
ATOM     17  N   UNL     1       0.492  10.431  20.499  0.00  0.00    +0.000 N 
ATOM     18  C   UNL     1      -0.861  10.608  20.636  0.00  0.00    +0.000 A 
ATOM     19  C   UNL     1      -0.998  11.705  21.450  0.00  0.00    +0.000 A 
ATOM     20  N   UNL     1       0.241  12.193  21.749  0.00  0.00    +0.000 NA
ATOM     21  N   UNL     1       1.144  11.421  21.157  0.00  0.00    +0.000 NA
BRANCH  19  22
ATOM     22  C   UNL     1      -2.239  12.221  21.988  0.00  0.00    +0.000 A 
ATOM     23  C   UNL     1      -2.512  12.064  23.354  0.00  0.00    +0.000 A 
ATOM     24  C   UNL     1      -3.739  12.468  23.881  0.00  0.00    +0.000 A 
ATOM     25  C   UNL     1      -4.699  13.046  23.053  0.00  0.00    +0.000 A 
ATOM     26  C   UNL     1      -4.428  13.236  21.700  0.00  0.00    +0.000 A 
ATOM     27  C   UNL     1      -3.202  12.830  21.169  0.00  0.00    +0.000 A 
ENDBRANCH  19  22
ENDBRANCH   4  17
TORSDOF 5
ENDMDL
MODEL 2
REMARK VINA RESULT:      -8.5      0.788      1.504
REMARK  Name = 
REMARK  6 active torsions:
REMARK  status: ('A' for Active; 'I' for Inactive)
REMARK    1  A    between atoms: C_1  and  C_2
REMARK    2  A    between atoms: C_2  and  O_3
REMARK    3  A    between atoms: O_3  and  C_4
REMARK    4  A    between atoms: C_10  and  C_11
REMARK    5  A    between atoms: C_14  and  N_15
REMARK    6  A    between atoms: C_17  and  C_18
REMARK                            x       y       z     vdW  Elec       q    Type
REMARK                         _______ _______ _______ _____ _____    ______ ____
ROOT
ATOM      1  C   UNL     1       2.562   7.157  18.792  0.00  0.00    +0.000 A 
ATOM      2  C   UNL     1       2.251   6.859  20.133  0.00  0.00    +0.000 A 
ATOM      3  C   UNL     1       1.509   7.735  20.936  0.00  0.00    +0.000 A 
ATOM      4  C   UNL     1       1.077   8.961  20.419  0.00  0.00    +0.000 A 
ATOM      5  C   UNL     1       1.381   9.287  19.096  0.00  0.00    +0.000 A 
ATOM      6  C   UNL     1       2.099   8.389  18.297  0.00  0.00    +0.000 A 
ENDROOT
BRANCH   1  13
ATOM      7  C   UNL     1       2.894   4.843  17.720  0.00  0.00    +0.000 A 
ATOM      8  C   UNL     1       3.680   3.980  16.942  0.00  0.00    +0.000 A 
ATOM      9  C   UNL     1       4.848   4.440  16.348  0.00  0.00    +0.000 A 
ATOM     10  F   UNL     1       5.582   3.604  15.604  0.00  0.00    +0.000 F 
ATOM     11  C   UNL     1       5.263   5.749  16.513  0.00  0.00    +0.000 A 
ATOM     12  C   UNL     1       4.505   6.608  17.307  0.00  0.00    +0.000 A 
ATOM     13  C   UNL     1       3.306   6.187  17.935  0.00  0.00    +0.000 A 
BRANCH   7  14
ATOM     14  O   UNL     1       1.703   4.453  18.284  0.00  0.00    +0.000 OA
BRANCH  14  16
ATOM     15  C   UNL     1       1.026   3.269  20.243  0.00  0.00    +0.000 C 
ATOM     16  C   UNL     1       1.616   3.147  18.848  0.00  0.00    +0.000 C 
ENDBRANCH  14  16
ENDBRANCH   7  14
ENDBRANCH   1  13
BRANCH   4  17
ATOM     17  N   UNL     1       0.348   9.878  21.217  0.00  0.00    +0.000 N 
ATOM     18  C   UNL     1      -0.639  10.749  20.831  0.00  0.00    +0.000 A 
ATOM     19  C   UNL     1      -1.069  11.339  21.993  0.00  0.00    +0.000 A 
ATOM     20  N   UNL     1      -0.325  10.865  23.034  0.00  0.00    +0.000 NA
ATOM     21  N   UNL     1       0.545   9.984  22.554  0.00  0.00    +0.000 NA
BRANCH  19  22
ATOM     22  C   UNL     1      -2.187  12.250  22.127  0.00  0.00    +0.000 A 
ATOM     23  C   UNL     1      -2.494  13.119  21.071  0.00  0.00    +0.000 A 
ATOM     24  C   UNL     1      -3.506  14.070  21.210  0.00  0.00    +0.000 A 
ATOM     25  C   UNL     1      -4.230  14.152  22.398  0.00  0.00    +0.000 A 
ATOM     26  C   UNL     1      -3.955  13.273  23.442  0.00  0.00    +0.000 A 
ATOM     27  C   UNL     1      -2.941  12.322  23.307  0.00  0.00    +0.000 A 
ENDBRANCH  19  22
ENDBRANCH   4  17
TORSDOF 5
ENDMDL
MODEL 3
REMARK VINA RESULT:      -8.2      1.106      1.366
REMARK  Name = 
REMARK  6 active torsions:
REMARK  status: ('A' for Active; 'I' for Inactive)
REMARK    1  A    between atoms: C_1  and  C_2
REMARK    2  A    between atoms: C_2  and  O_3
REMARK    3  A    between atoms: O_3  and  C_4
REMARK    4  A    between atoms: C_10  and  C_11
REMARK    5  A    between atoms: C_14  and  N_15
REMARK    6  A    between atoms: C_17  and  C_18
REMARK                            x       y       z     vdW  Elec       q    Type
REMARK                         _______ _______ _______ _____ _____    ______ ____
ROOT
ATOM      1  C   UNL     1       2.394   7.604  18.488  0.00  0.00    +0.000 A 
ATOM      2  C   UNL     1       1.869   8.618  17.664  0.00  0.00    +0.000 A 
ATOM      3  C   UNL     1       1.055   9.640  18.170  0.00  0.00    +0.000 A 
ATOM      4  C   UNL     1       0.719   9.658  19.527  0.00  0.00    +0.000 A 
ATOM      5  C   UNL     1       1.216   8.658  20.366  0.00  0.00    +0.000 A 
ATOM      6  C   UNL     1       2.052   7.660  19.851  0.00  0.00    +0.000 A 
ENDROOT
BRANCH   1  13
ATOM      7  C   UNL     1       2.930   5.192  17.774  0.00  0.00    +0.000 A 
ATOM      8  C   UNL     1       3.863   4.256  17.303  0.00  0.00    +0.000 A 
ATOM      9  C   UNL     1       5.149   4.658  16.968  0.00  0.00    +0.000 A 
ATOM     10  F   UNL     1       6.024   3.752  16.514  0.00  0.00    +0.000 F 
ATOM     11  C   UNL     1       5.538   5.979  17.093  0.00  0.00    +0.000 A 
ATOM     12  C   UNL     1       4.628   6.913  17.586  0.00  0.00    +0.000 A 
ATOM     13  C   UNL     1       3.305   6.554  17.943  0.00  0.00    +0.000 A 
BRANCH   7  14
ATOM     14  O   UNL     1       1.629   4.858  18.068  0.00  0.00    +0.000 OA
BRANCH  14  16
ATOM     15  C   UNL     1       1.225   4.101  20.296  0.00  0.00    +0.000 C 
ATOM     16  C   UNL     1       1.390   3.685  18.844  0.00  0.00    +0.000 C 
ENDBRANCH  14  16
ENDBRANCH   7  14
ENDBRANCH   1  13
BRANCH   4  17
ATOM     17  N   UNL     1      -0.125  10.664  20.060  0.00  0.00    +0.000 N 
ATOM     18  C   UNL     1      -0.517  10.847  21.362  0.00  0.00    +0.000 A 
ATOM     19  C   UNL     1      -1.254  12.005  21.354  0.00  0.00    +0.000 A 
ATOM     20  N   UNL     1      -1.335  12.471  20.073  0.00  0.00    +0.000 NA
ATOM     21  N   UNL     1      -0.655  11.644  19.288  0.00  0.00    +0.000 NA
BRANCH  19  22
ATOM     22  C   UNL     1      -1.790  12.687  22.513  0.00  0.00    +0.000 A 
ATOM     23  C   UNL     1      -3.029  12.289  23.031  0.00  0.00    +0.000 A 
ATOM     24  C   UNL     1      -3.612  12.989  24.089  0.00  0.00    +0.000 A 
ATOM     25  C   UNL     1      -2.955  14.083  24.648  0.00  0.00    +0.000 A 
ATOM     26  C   UNL     1      -1.708  14.470  24.163  0.00  0.00    +0.000 A 
ATOM     27  C   UNL     1      -1.124  13.773  23.102  0.00  0.00    +0.000 A 
ENDBRANCH  19  22
ENDBRANCH   4  17
TORSDOF 5
ENDMDL
MODEL 4
REMARK VINA RESULT:      -8.2      0.832      1.254
REMARK  Name = 
REMARK  6 active torsions:
REMARK  status: ('A' for Active; 'I' for Inactive)
REMARK    1  A    between atoms: C_1  and  C_2
REMARK    2  A    between atoms: C_2  and  O_3
REMARK    3  A    between atoms: O_3  and  C_4
REMARK    4  A    between atoms: C_10  and  C_11
REMARK    5  A    between atoms: C_14  and  N_15
REMARK    6  A    between atoms: C_17  and  C_18
REMARK                            x       y       z     vdW  Elec       q    Type
REMARK                         _______ _______ _______ _____ _____    ______ ____
ROOT
ATOM      1  C   UNL     1       2.436   7.516  18.876  0.00  0.00    +0.000 A 
ATOM      2  C   UNL     1       2.167   7.218  20.226  0.00  0.00    +0.000 A 
ATOM      3  C   UNL     1       1.400   8.066  21.035  0.00  0.00    +0.000 A 
ATOM      4  C   UNL     1       0.898   9.263  20.515  0.00  0.00    +0.000 A 
ATOM      5  C   UNL     1       1.160   9.590  19.183  0.00  0.00    +0.000 A 
ATOM      6  C   UNL     1       1.904   8.718  18.378  0.00  0.00    +0.000 A 
ENDROOT
BRANCH   1  13
ATOM      7  C   UNL     1       2.915   5.188  17.893  0.00  0.00    +0.000 A 
ATOM      8  C   UNL     1       3.724   4.360  17.100  0.00  0.00    +0.000 A 
ATOM      9  C   UNL     1       4.799   4.894  16.402  0.00  0.00    +0.000 A 
ATOM     10  F   UNL     1       5.557   4.090  15.646  0.00  0.00    +0.000 F 
ATOM     11  C   UNL     1       5.097   6.242  16.473  0.00  0.00    +0.000 A 
ATOM     12  C   UNL     1       4.317   7.070  17.280  0.00  0.00    +0.000 A 
ATOM     13  C   UNL     1       3.210   6.574  18.013  0.00  0.00    +0.000 A 
BRANCH   7  14
ATOM     14  O   UNL     1       1.808   4.721  18.560  0.00  0.00    +0.000 OA
BRANCH  14  16
ATOM     15  C   UNL     1       1.146   2.706  19.655  0.00  0.00    +0.000 C 
ATOM     16  C   UNL     1       1.384   3.382  18.316  0.00  0.00    +0.000 C 
ENDBRANCH  14  16
ENDBRANCH   7  14
ENDBRANCH   1  13
BRANCH   4  17
ATOM     17  N   UNL     1       0.142  10.152  21.319  0.00  0.00    +0.000 N 
ATOM     18  C   UNL     1      -0.903  10.959  20.947  0.00  0.00    +0.000 A 
ATOM     19  C   UNL     1      -1.333  11.546  22.112  0.00  0.00    +0.000 A 
ATOM     20  N   UNL     1      -0.533  11.134  23.138  0.00  0.00    +0.000 NA
ATOM     21  N   UNL     1       0.371  10.295  22.647  0.00  0.00    +0.000 NA
BRANCH  19  22
ATOM     22  C   UNL     1      -2.496  12.394  22.264  0.00  0.00    +0.000 A 
ATOM     23  C   UNL     1      -3.166  12.425  23.494  0.00  0.00    +0.000 A 
ATOM     24  C   UNL     1      -4.343  13.161  23.640  0.00  0.00    +0.000 A 
ATOM     25  C   UNL     1      -4.853  13.884  22.564  0.00  0.00    +0.000 A 
ATOM     26  C   UNL     1      -4.179  13.887  21.345  0.00  0.00    +0.000 A 
ATOM     27  C   UNL     1      -3.003  13.149  21.195  0.00  0.00    +0.000 A 
ENDBRANCH  19  22
ENDBRANCH   4  17
TORSDOF 5
ENDMDL
MODEL 5
REMARK VINA RESULT:      -8.2      1.155      1.318
REMARK  Name = 
REMARK  6 active torsions:
REMARK  status: ('A' for Active; 'I' for Inactive)
REMARK    1  A    between atoms: C_1  and  C_2
REMARK    2  A    between atoms: C_2  and  O_3
REMARK    3  A    between atoms: O_3  and  C_4
REMARK    4  A    between atoms: C_10  and  C_11
REMARK    5  A    between atoms: C_14  and  N_15
REMARK    6  A    between atoms: C_17  and  C_18
REMARK                            x       y       z     vdW  Elec       q    Type
REMARK                         _______ _______ _______ _____ _____    ______ ____
ROOT
ATOM      1  C   UNL     1       2.437   7.018  18.914  0.00  0.00    +0.000 A 
ATOM      2  C   UNL     1       2.047   8.286  18.441  0.00  0.00    +0.000 A 
ATOM      3  C   UNL     1       1.411   9.224  19.265  0.00  0.00    +0.000 A 
ATOM      4  C   UNL     1       1.121   8.902  20.595  0.00  0.00    +0.000 A 
ATOM      5  C   UNL     1       1.485   7.647  21.087  0.00  0.00    +0.000 A 
ATOM      6  C   UNL     1       2.146   6.731  20.260  0.00  0.00    +0.000 A 
ENDROOT
BRANCH   1  13
ATOM      7  C   UNL     1       2.696   4.739  17.751  0.00  0.00    +0.000 A 
ATOM      8  C   UNL     1       3.465   3.874  16.959  0.00  0.00    +0.000 A 
ATOM      9  C   UNL     1       4.672   4.302  16.422  0.00  0.00    +0.000 A 
ATOM     10  F   UNL     1       5.390   3.465  15.664  0.00  0.00    +0.000 F 
ATOM     11  C   UNL     1       5.142   5.581  16.657  0.00  0.00    +0.000 A 
ATOM     12  C   UNL     1       4.400   6.441  17.466  0.00  0.00    +0.000 A 
ATOM     13  C   UNL     1       3.163   6.051  18.037  0.00  0.00    +0.000 A 
BRANCH   7  14
ATOM     14  O   UNL     1       1.470   4.383  18.261  0.00  0.00    +0.000 OA
BRANCH  14  16
ATOM     15  C   UNL     1       1.098   3.142  20.265  0.00  0.00    +0.000 C 
ATOM     16  C   UNL     1       1.304   3.059  18.762  0.00  0.00    +0.000 C 
ENDBRANCH  14  16
ENDBRANCH   7  14
ENDBRANCH   1  13
BRANCH   4  17
ATOM     17  N   UNL     1       0.454   9.821  21.443  0.00  0.00    +0.000 N 
ATOM     18  C   UNL     1      -0.213  10.969  21.099  0.00  0.00    +0.000 A 
ATOM     19  C   UNL     1      -0.746  11.438  22.274  0.00  0.00    +0.000 A 
ATOM     20  N   UNL     1      -0.366  10.615  23.294  0.00  0.00    +0.000 NA
ATOM     21  N   UNL     1       0.374   9.638  22.783  0.00  0.00    +0.000 NA
BRANCH  19  22
ATOM     22  C   UNL     1      -1.641  12.567  22.417  0.00  0.00    +0.000 A 
ATOM     23  C   UNL     1      -3.015  12.384  22.211  0.00  0.00    +0.000 A 
ATOM     24  C   UNL     1      -3.888  13.472  22.250  0.00  0.00    +0.000 A 
ATOM     25  C   UNL     1      -3.399  14.750  22.511  0.00  0.00    +0.000 A 
ATOM     26  C   UNL     1      -2.040  14.941  22.750  0.00  0.00    +0.000 A 
ATOM     27  C   UNL     1      -1.164  13.854  22.707  0.00  0.00    +0.000 A 
ENDBRANCH  19  22
ENDBRANCH   4  17
TORSDOF 5
ENDMDL
MODEL 6
REMARK VINA RESULT:      -8.1      0.440      1.010
REMARK  Name = 
REMARK  6 active torsions:
REMARK  status: ('A' for Active; 'I' for Inactive)
REMARK    1  A    between atoms: C_1  and  C_2
REMARK    2  A    between atoms: C_2  and  O_3
REMARK    3  A    between atoms: O_3  and  C_4
REMARK    4  A    between atoms: C_10  and  C_11
REMARK    5  A    between atoms: C_14  and  N_15
REMARK    6  A    between atoms: C_17  and  C_18
REMARK                            x       y       z     vdW  Elec       q    Type
REMARK                         _______ _______ _______ _____ _____    ______ ____
ROOT
ATOM      1  C   UNL     1       2.578   7.553  18.399  0.00  0.00    +0.000 A 
ATOM      2  C   UNL     1       2.196   8.692  17.664  0.00  0.00    +0.000 A 
ATOM      3  C   UNL     1       1.494   9.755  18.249  0.00  0.00    +0.000 A 
ATOM      4  C   UNL     1       1.128   9.691  19.597  0.00  0.00    +0.000 A 
ATOM      5  C   UNL     1       1.483   8.568  20.347  0.00  0.00    +0.000 A 
ATOM      6  C   UNL     1       2.209   7.527  19.756  0.00  0.00    +0.000 A 
ENDROOT
BRANCH   1  13
ATOM      7  C   UNL     1       2.989   5.087  17.801  0.00  0.00    +0.000 A 
ATOM      8  C   UNL     1       3.820   4.109  17.233  0.00  0.00    +0.000 A 
ATOM      9  C   UNL     1       5.006   4.474  16.611  0.00  0.00    +0.000 A 
ATOM     10  F   UNL     1       5.784   3.528  16.069  0.00  0.00    +0.000 F 
ATOM     11  C   UNL     1       5.395   5.799  16.541  0.00  0.00    +0.000 A 
ATOM     12  C   UNL     1       4.591   6.776  17.126  0.00  0.00    +0.000 A 
ATOM     13  C   UNL     1       3.372   6.455  17.772  0.00  0.00    +0.000 A 
BRANCH   7  14
ATOM     14  O   UNL     1       1.779   4.784  18.380  0.00  0.00    +0.000 OA
BRANCH  14  16
ATOM     15  C   UNL     1       0.904   3.076  19.799  0.00  0.00    +0.000 C 
ATOM     16  C   UNL     1       1.354   3.424  18.390  0.00  0.00    +0.000 C 
ENDBRANCH  14  16
ENDBRANCH   7  14
ENDBRANCH   1  13
BRANCH   4  17
ATOM     17  N   UNL     1       0.394  10.738  20.208  0.00  0.00    +0.000 N 
ATOM     18  C   UNL     1      -0.906  10.727  20.644  0.00  0.00    +0.000 A 
ATOM     19  C   UNL     1      -1.096  11.954  21.231  0.00  0.00    +0.000 A 
ATOM     20  N   UNL     1       0.047  12.689  21.104  0.00  0.00    +0.000 NA
ATOM     21  N   UNL     1       0.947  11.948  20.470  0.00  0.00    +0.000 NA
BRANCH  19  22
ATOM     22  C   UNL     1      -2.276  12.384  21.952  0.00  0.00    +0.000 A 
ATOM     23  C   UNL     1      -3.138  13.318  21.361  0.00  0.00    +0.000 A 
ATOM     24  C   UNL     1      -4.230  13.820  22.070  0.00  0.00    +0.000 A 
ATOM     25  C   UNL     1      -4.481  13.382  23.369  0.00  0.00    +0.000 A 
ATOM     26  C   UNL     1      -3.650  12.431  23.955  0.00  0.00    +0.000 A 
ATOM     27  C   UNL     1      -2.554  11.930  23.249  0.00  0.00    +0.000 A 
ENDBRANCH  19  22
ENDBRANCH   4  17
TORSDOF 5
ENDMDL
MODEL 7
REMARK VINA RESULT:      -8.1      1.131      1.716
REMARK  Name = 
REMARK  6 active torsions:
REMARK  status: ('A' for Active; 'I' for Inactive)
REMARK    1  A    between atoms: C_1  and  C_2
REMARK    2  A    between atoms: C_2  and  O_3
REMARK    3  A    between atoms: O_3  and  C_4
REMARK    4  A    between atoms: C_10  and  C_11
REMARK    5  A    between atoms: C_14  and  N_15
REMARK    6  A    between atoms: C_17  and  C_18
REMARK                            x       y       z     vdW  Elec       q    Type
REMARK                         _______ _______ _______ _____ _____    ______ ____
ROOT
ATOM      1  C   UNL     1       2.570   7.495  18.430  0.00  0.00    +0.000 A 
ATOM      2  C   UNL     1       2.186   7.466  19.785  0.00  0.00    +0.000 A 
ATOM      3  C   UNL     1       1.284   8.395  20.322  0.00  0.00    +0.000 A 
ATOM      4  C   UNL     1       0.758   9.406  19.512  0.00  0.00    +0.000 A 
ATOM      5  C   UNL     1       1.131   9.466  18.168  0.00  0.00    +0.000 A 
ATOM      6  C   UNL     1       2.010   8.513  17.639  0.00  0.00    +0.000 A 
ENDROOT
BRANCH   1  13
ATOM      7  C   UNL     1       3.222   5.068  17.885  0.00  0.00    +0.000 A 
ATOM      8  C   UNL     1       4.164   4.161  17.376  0.00  0.00    +0.000 A 
ATOM      9  C   UNL     1       5.348   4.621  16.818  0.00  0.00    +0.000 A 
ATOM     10  F   UNL     1       6.233   3.742  16.332  0.00  0.00    +0.000 F 
ATOM     11  C   UNL     1       5.628   5.974  16.754  0.00  0.00    +0.000 A 
ATOM     12  C   UNL     1       4.712   6.884  17.281  0.00  0.00    +0.000 A 
ATOM     13  C   UNL     1       3.489   6.464  17.862  0.00  0.00    +0.000 A 
BRANCH   7  14
ATOM     14  O   UNL     1       2.011   4.668  18.399  0.00  0.00    +0.000 OA
BRANCH  14  16
ATOM     15  C   UNL     1       0.773   2.667  18.799  0.00  0.00    +0.000 C 
ATOM     16  C   UNL     1       1.974   3.499  19.214  0.00  0.00    +0.000 C 
ENDBRANCH  14  16
ENDBRANCH   7  14
ENDBRANCH   1  13
BRANCH   4  17
ATOM     17  N   UNL     1      -0.135  10.374  20.036  0.00  0.00    +0.000 N 
ATOM     18  C   UNL     1      -0.343  10.723  21.346  0.00  0.00    +0.000 A 
ATOM     19  C   UNL     1      -1.238  11.762  21.301  0.00  0.00    +0.000 A 
ATOM     20  N   UNL     1      -1.587  11.993  20.002  0.00  0.00    +0.000 NA
ATOM     21  N   UNL     1      -0.921  11.137  19.237  0.00  0.00    +0.000 NA
BRANCH  19  22
ATOM     22  C   UNL     1      -1.683  12.557  22.427  0.00  0.00    +0.000 A 
ATOM     23  C   UNL     1      -2.920  12.273  23.021  0.00  0.00    +0.000 A 
ATOM     24  C   UNL     1      -3.415  13.081  24.045  0.00  0.00    +0.000 A 
ATOM     25  C   UNL     1      -2.674  14.171  24.495  0.00  0.00    +0.000 A 
ATOM     26  C   UNL     1      -1.429  14.445  23.935  0.00  0.00    +0.000 A 
ATOM     27  C   UNL     1      -0.932  13.640  22.908  0.00  0.00    +0.000 A 
ENDBRANCH  19  22
ENDBRANCH   4  17
TORSDOF 5
ENDMDL
MODEL 8
REMARK VINA RESULT:      -8.1      1.596      2.139
REMARK  Name = 
REMARK  6 active torsions:
REMARK  status: ('A' for Active; 'I' for Inactive)
REMARK    1  A    between atoms: C_1  and  C_2
REMARK    2  A    between atoms: C_2  and  O_3
REMARK    3  A    between atoms: O_3  and  C_4
REMARK    4  A    between atoms: C_10  and  C_11
REMARK    5  A    between atoms: C_14  and  N_15
REMARK    6  A    between atoms: C_17  and  C_18
REMARK                            x       y       z     vdW  Elec       q    Type
REMARK                         _______ _______ _______ _____ _____    ______ ____
ROOT
ATOM      1  C   UNL     1       2.659   7.283  18.334  0.00  0.00    +0.000 A 
ATOM      2  C   UNL     1       2.302   7.216  19.695  0.00  0.00    +0.000 A 
ATOM      3  C   UNL     1       1.526   8.206  20.311  0.00  0.00    +0.000 A 
ATOM      4  C   UNL     1       1.104   9.319  19.577  0.00  0.00    +0.000 A 
ATOM      5  C   UNL     1       1.453   9.419  18.229  0.00  0.00    +0.000 A 
ATOM      6  C   UNL     1       2.205   8.407  17.620  0.00  0.00    +0.000 A 
ENDROOT
BRANCH   1  13
ATOM      7  C   UNL     1       3.029   4.831  17.657  0.00  0.00    +0.000 A 
ATOM      8  C   UNL     1       3.848   3.856  17.068  0.00  0.00    +0.000 A 
ATOM      9  C   UNL     1       5.050   4.218  16.475  0.00  0.00    +0.000 A 
ATOM     10  F   UNL     1       5.816   3.275  15.911  0.00  0.00    +0.000 F 
ATOM     11  C   UNL     1       5.467   5.536  16.455  0.00  0.00    +0.000 A 
ATOM     12  C   UNL     1       4.675   6.509  17.063  0.00  0.00    +0.000 A 
ATOM     13  C   UNL     1       3.440   6.192  17.681  0.00  0.00    +0.000 A 
BRANCH   7  14
ATOM     14  O   UNL     1       1.805   4.534  18.209  0.00  0.00    +0.000 OA
BRANCH  14  16
ATOM     15  C   UNL     1       0.968   3.513  20.198  0.00  0.00    +0.000 C 
ATOM     16  C   UNL     1       1.641   3.274  18.857  0.00  0.00    +0.000 C 
ENDBRANCH  14  16
ENDBRANCH   7  14
ENDBRANCH   1  13
BRANCH   4  17
ATOM     17  N   UNL     1       0.341  10.349  20.182  0.00  0.00    +0.000 N 
ATOM     18  C   UNL     1       0.732  11.250  21.139  0.00  0.00    +0.000 A 
ATOM     19  C   UNL     1      -0.349  12.079  21.313  0.00  0.00    +0.000 A 
ATOM     20  N   UNL     1      -1.369  11.652  20.512  0.00  0.00    +0.000 NA
ATOM     21  N   UNL     1      -0.947  10.591  19.835  0.00  0.00    +0.000 NA
BRANCH  19  22
ATOM     22  C   UNL     1      -0.392  13.270  22.135  0.00  0.00    +0.000 A 
ATOM     23  C   UNL     1      -1.271  13.320  23.225  0.00  0.00    +0.000 A 
ATOM     24  C   UNL     1      -1.400  14.488  23.977  0.00  0.00    +0.000 A 
ATOM     25  C   UNL     1      -0.641  15.612  23.657  0.00  0.00    +0.000 A 
ATOM     26  C   UNL     1       0.260  15.565  22.596  0.00  0.00    +0.000 A 
ATOM     27  C   UNL     1       0.389  14.398  21.840  0.00  0.00    +0.000 A 
ENDBRANCH  19  22
ENDBRANCH   4  17
TORSDOF 5
ENDMDL
MODEL 9
REMARK VINA RESULT:      -8.0      3.125      4.294
REMARK  Name = 
REMARK  6 active torsions:
REMARK  status: ('A' for Active; 'I' for Inactive)
REMARK    1  A    between atoms: C_1  and  C_2
REMARK    2  A    between atoms: C_2  and  O_3
REMARK    3  A    between atoms: O_3  and  C_4
REMARK    4  A    between atoms: C_10  and  C_11
REMARK    5  A    between atoms: C_14  and  N_15
REMARK    6  A    between atoms: C_17  and  C_18
REMARK                            x       y       z     vdW  Elec       q    Type
REMARK                         _______ _______ _______ _____ _____    ______ ____
ROOT
ATOM      1  C   UNL     1       2.333   6.470  18.916  0.00  0.00    +0.000 A 
ATOM      2  C   UNL     1       1.879   6.975  20.150  0.00  0.00    +0.000 A 
ATOM      3  C   UNL     1       1.433   8.295  20.296  0.00  0.00    +0.000 A 
ATOM      4  C   UNL     1       1.457   9.165  19.201  0.00  0.00    +0.000 A 
ATOM      5  C   UNL     1       1.914   8.695  17.968  0.00  0.00    +0.000 A 
ATOM      6  C   UNL     1       2.329   7.365  17.831  0.00  0.00    +0.000 A 
ENDROOT
BRANCH   1  13
ATOM      7  C   UNL     1       4.071   4.579  19.024  0.00  0.00    +0.000 A 
ATOM      8  C   UNL     1       4.398   3.231  18.808  0.00  0.00    +0.000 A 
ATOM      9  C   UNL     1       3.428   2.337  18.375  0.00  0.00    +0.000 A 
ATOM     10  F   UNL     1       3.755   1.054  18.180  0.00  0.00    +0.000 F 
ATOM     11  C   UNL     1       2.129   2.751  18.143  0.00  0.00    +0.000 A 
ATOM     12  C   UNL     1       1.800   4.094  18.327  0.00  0.00    +0.000 A 
ATOM     13  C   UNL     1       2.753   5.045  18.767  0.00  0.00    +0.000 A 
BRANCH   7  14
ATOM     14  O   UNL     1       4.979   5.493  19.504  0.00  0.00    +0.000 OA
BRANCH  14  16
ATOM     15  C   UNL     1       6.137   6.338  17.596  0.00  0.00    +0.000 C 
ATOM     16  C   UNL     1       6.265   5.556  18.892  0.00  0.00    +0.000 C 
ENDBRANCH  14  16
ENDBRANCH   7  14
ENDBRANCH   1  13
BRANCH   4  17
ATOM     17  N   UNL     1       1.038  10.513  19.326  0.00  0.00    +0.000 N 
ATOM     18  C   UNL     1       1.693  11.650  18.927  0.00  0.00    +0.000 A 
ATOM     19  C   UNL     1       0.823  12.677  19.198  0.00  0.00    +0.000 A 
ATOM     20  N   UNL     1      -0.298  12.166  19.786  0.00  0.00    +0.000 NA
ATOM     21  N   UNL     1      -0.156  10.849  19.871  0.00  0.00    +0.000 NA
BRANCH  19  22
ATOM     22  C   UNL     1       1.006  14.069  18.846  0.00  0.00    +0.000 A 
ATOM     23  C   UNL     1       2.287  14.530  18.515  0.00  0.00    +0.000 A 
ATOM     24  C   UNL     1       2.509  15.885  18.262  0.00  0.00    +0.000 A 
ATOM     25  C   UNL     1       1.450  16.789  18.323  0.00  0.00    +0.000 A 
ATOM     26  C   UNL     1       0.166  16.338  18.620  0.00  0.00    +0.000 A 
ATOM     27  C   UNL     1      -0.057  14.983  18.876  0.00  0.00    +0.000 A 
ENDBRANCH  19  22
ENDBRANCH   4  17
TORSDOF 5
ENDMDL
