MODEL 1
REMARK VINA RESULT:      -7.3      0.000      0.000
REMARK  Name = 
REMARK  4 active torsions:
REMARK  status: ('A' for Active; 'I' for Inactive)
REMARK    1  A    between atoms: C_2  and  C_3
REMARK    2  A    between atoms: C_6  and  C_7
REMARK    3  A    between atoms: C_7  and  N_8
REMARK    4  A    between atoms: N_11  and  C_12
REMARK                            x       y       z     vdW  Elec       q    Type
REMARK                         _______ _______ _______ _____ _____    ______ ____
ROOT
ATOM      1  N   UNL     1       3.640   4.711  18.998  0.00  0.00    +0.000 NA
ATOM      2  C   UNL     1       4.003   6.072  18.566  0.00  0.00    +0.000 C 
ATOM      3  C   UNL     1       2.692   6.848  18.379  0.00  0.00    +0.000 C 
ATOM      4  N   UNL     1       1.995   6.922  19.674  0.00  0.00    +0.000 N 
ATOM      5  C   UNL     1       1.759   5.625  20.339  0.00  0.00    +0.000 C 
ATOM      6  C   UNL     1       3.068   4.774  20.351  0.00  0.00    +0.000 C 
ENDROOT
BRANCH   4   7
ATOM      7  C   UNL     1       1.474   8.114  20.120  0.00  0.00    +0.000 A 
ATOM      8  C   UNL     1       1.387   9.219  19.250  0.00  0.00    +0.000 A 
ATOM      9  C   UNL     1       0.872  10.446  19.670  0.00  0.00    +0.000 A 
ATOM     10  C   UNL     1       0.433  10.607  20.979  0.00  0.00    +0.000 A 
ATOM     11 CL   UNL     1      -0.194  12.149  21.434  0.00  0.00    +0.000 Cl
ATOM     12  C   UNL     1       0.516   9.529  21.865  0.00  0.00    +0.000 A 
ATOM     13 CL   UNL     1      -0.019   9.642  23.508  0.00  0.00    +0.000 Cl
ATOM     14  C   UNL     1       1.035   8.298  21.436  0.00  0.00    +0.000 A 
ENDBRANCH   4   7
BRANCH   1  15
ATOM     15  C   UNL     1       4.679   3.723  18.774  0.00  0.00    +0.000 C 
BRANCH  15  19
ATOM     16  C   UNL     1       6.736   4.784  15.109  0.00  0.00    +0.000 A 
ATOM     17  C   UNL     1       7.388   4.905  16.341  0.00  0.00    +0.000 A 
ATOM     18  C   UNL     1       6.738   4.541  17.524  0.00  0.00    +0.000 A 
ATOM     19  C   UNL     1       5.427   4.052  17.489  0.00  0.00    +0.000 A 
ATOM     20  C   UNL     1       4.781   3.933  16.244  0.00  0.00    +0.000 A 
ATOM     21  C   UNL     1       5.427   4.300  15.062  0.00  0.00    +0.000 A 
BRANCH  16  23
ATOM     22  N   UNL     1       7.948   5.464  12.918  0.00  0.00    +0.000 NA
ATOM     23  C   UNL     1       7.406   5.161  13.899  0.00  0.00    +0.000 C 
ENDBRANCH  16  23
ENDBRANCH  15  19
ENDBRANCH   1  15
TORSDOF 4
ENDMDL
MODEL 2
REMARK VINA RESULT:      -7.3      0.204      1.028
REMARK  Name = 
REMARK  4 active torsions:
REMARK  status: ('A' for Active; 'I' for Inactive)
REMARK    1  A    between atoms: C_2  and  C_3
REMARK    2  A    between atoms: C_6  and  C_7
REMARK    3  A    between atoms: C_7  and  N_8
REMARK    4  A    between atoms: N_11  and  C_12
REMARK                            x       y       z     vdW  Elec       q    Type
REMARK                         _______ _______ _______ _____ _____    ______ ____
ROOT
ATOM      1  N   UNL     1       3.697   4.822  18.869  0.00  0.00    +0.000 NA
ATOM      2  C   UNL     1       4.019   6.207  18.480  0.00  0.00    +0.000 C 
ATOM      3  C   UNL     1       2.687   6.959  18.356  0.00  0.00    +0.000 C 
ATOM      4  N   UNL     1       2.024   6.969  19.671  0.00  0.00    +0.000 N 
ATOM      5  C   UNL     1       1.834   5.643  20.292  0.00  0.00    +0.000 C 
ATOM      6  C   UNL     1       3.161   4.822  20.237  0.00  0.00    +0.000 C 
ENDROOT
BRANCH   4   7
ATOM      7  C   UNL     1       1.489   8.131  20.175  0.00  0.00    +0.000 A 
ATOM      8  C   UNL     1       1.364   9.268  19.352  0.00  0.00    +0.000 A 
ATOM      9  C   UNL     1       0.834  10.467  19.832  0.00  0.00    +0.000 A 
ATOM     10  C   UNL     1       0.418  10.566  21.156  0.00  0.00    +0.000 A 
ATOM     11 CL   UNL     1      -0.228  12.076  21.685  0.00  0.00    +0.000 Cl
ATOM     12  C   UNL     1       0.539   9.455  21.995  0.00  0.00    +0.000 A 
ATOM     13 CL   UNL     1       0.036   9.491  23.651  0.00  0.00    +0.000 Cl
ATOM     14  C   UNL     1       1.074   8.253  21.506  0.00  0.00    +0.000 A 
ENDBRANCH   4   7
BRANCH   1  15
ATOM     15  C   UNL     1       4.751   3.867  18.581  0.00  0.00    +0.000 C 
BRANCH  15  19
ATOM     16  C   UNL     1       6.798   4.834  14.883  0.00  0.00    +0.000 A 
ATOM     17  C   UNL     1       5.455   4.442  14.861  0.00  0.00    +0.000 A 
ATOM     18  C   UNL     1       4.783   4.152  16.053  0.00  0.00    +0.000 A 
ATOM     19  C   UNL     1       5.446   4.251  17.281  0.00  0.00    +0.000 A 
ATOM     20  C   UNL     1       6.797   4.649  17.292  0.00  0.00    +0.000 A 
ATOM     21  C   UNL     1       7.471   4.933  16.103  0.00  0.00    +0.000 A 
BRANCH  16  23
ATOM     22  N   UNL     1       8.039   5.366  12.669  0.00  0.00    +0.000 NA
ATOM     23  C   UNL     1       7.483   5.127  13.659  0.00  0.00    +0.000 C 
ENDBRANCH  16  23
ENDBRANCH  15  19
ENDBRANCH   1  15
TORSDOF 4
ENDMDL
MODEL 3
REMARK VINA RESULT:      -7.2      0.671      1.492
REMARK  Name = 
REMARK  4 active torsions:
REMARK  status: ('A' for Active; 'I' for Inactive)
REMARK    1  A    between atoms: C_2  and  C_3
REMARK    2  A    between atoms: C_6  and  C_7
REMARK    3  A    between atoms: C_7  and  N_8
REMARK    4  A    between atoms: N_11  and  C_12
REMARK                            x       y       z     vdW  Elec       q    Type
REMARK                         _______ _______ _______ _____ _____    ______ ____
ROOT
ATOM      1  N   UNL     1       3.531   4.824  19.201  0.00  0.00    +0.000 NA
ATOM      2  C   UNL     1       3.970   6.192  18.873  0.00  0.00    +0.000 C 
ATOM      3  C   UNL     1       2.703   7.026  18.637  0.00  0.00    +0.000 C 
ATOM      4  N   UNL     1       1.918   7.056  19.882  0.00  0.00    +0.000 N 
ATOM      5  C   UNL     1       1.590   5.736  20.455  0.00  0.00    +0.000 C 
ATOM      6  C   UNL     1       2.866   4.837  20.511  0.00  0.00    +0.000 C 
ENDROOT
BRANCH   4   7
ATOM      7  C   UNL     1       1.406   8.242  20.356  0.00  0.00    +0.000 A 
ATOM      8  C   UNL     1       1.082   8.378  21.721  0.00  0.00    +0.000 A 
ATOM      9  C   UNL     1       0.553   9.563  22.236  0.00  0.00    +0.000 A 
ATOM     10  C   UNL     1       0.326  10.648  21.396  0.00  0.00    +0.000 A 
ATOM     11 CL   UNL     1      -0.329  12.082  22.096  0.00  0.00    +0.000 Cl
ATOM     12  C   UNL     1       0.631  10.536  20.036  0.00  0.00    +0.000 A 
ATOM     13 CL   UNL     1       0.388  11.842  18.927  0.00  0.00    +0.000 Cl
ATOM     14  C   UNL     1       1.161   9.342  19.526  0.00  0.00    +0.000 A 
ENDBRANCH   4   7
BRANCH   1  15
ATOM     15  C   UNL     1       4.550   3.811  18.995  0.00  0.00    +0.000 C 
BRANCH  15  19
ATOM     16  C   UNL     1       6.636   4.768  15.317  0.00  0.00    +0.000 A 
ATOM     17  C   UNL     1       7.306   4.837  16.544  0.00  0.00    +0.000 A 
ATOM     18  C   UNL     1       6.645   4.507  17.731  0.00  0.00    +0.000 A 
ATOM     19  C   UNL     1       5.306   4.102  17.705  0.00  0.00    +0.000 A 
ATOM     20  C   UNL     1       4.641   4.034  16.466  0.00  0.00    +0.000 A 
ATOM     21  C   UNL     1       5.298   4.369  15.281  0.00  0.00    +0.000 A 
BRANCH  16  23
ATOM     22  N   UNL     1       7.867   5.390  13.120  0.00  0.00    +0.000 NA
ATOM     23  C   UNL     1       7.317   5.111  14.103  0.00  0.00    +0.000 C 
ENDBRANCH  16  23
ENDBRANCH  15  19
ENDBRANCH   1  15
TORSDOF 4
ENDMDL
MODEL 4
REMARK VINA RESULT:      -7.2      4.233      8.225
REMARK  Name = 
REMARK  4 active torsions:
REMARK  status: ('A' for Active; 'I' for Inactive)
REMARK    1  A    between atoms: C_2  and  C_3
REMARK    2  A    between atoms: C_6  and  C_7
REMARK    3  A    between atoms: C_7  and  N_8
REMARK    4  A    between atoms: N_11  and  C_12
REMARK                            x       y       z     vdW  Elec       q    Type
REMARK                         _______ _______ _______ _____ _____    ______ ____
ROOT
ATOM      1  N   UNL     1       0.857  10.258  19.105  0.00  0.00    +0.000 NA
ATOM      2  C   UNL     1       1.040   9.408  17.914  0.00  0.00    +0.000 C 
ATOM      3  C   UNL     1       2.297   8.561  18.156  0.00  0.00    +0.000 C 
ATOM      4  N   UNL     1       2.071   7.703  19.332  0.00  0.00    +0.000 N 
ATOM      5  C   UNL     1       1.659   8.411  20.560  0.00  0.00    +0.000 C 
ATOM      6  C   UNL     1       0.498   9.408  20.248  0.00  0.00    +0.000 C 
ENDROOT
BRANCH   4   7
ATOM      7  C   UNL     1       2.391   6.366  19.292  0.00  0.00    +0.000 A 
ATOM      8  C   UNL     1       2.991   5.815  18.143  0.00  0.00    +0.000 A 
ATOM      9  C   UNL     1       3.321   4.460  18.065  0.00  0.00    +0.000 A 
ATOM     10  C   UNL     1       3.053   3.614  19.135  0.00  0.00    +0.000 A 
ATOM     11 CL   UNL     1       3.487   1.952  18.974  0.00  0.00    +0.000 Cl
ATOM     12  C   UNL     1       2.451   4.135  20.284  0.00  0.00    +0.000 A 
ATOM     13 CL   UNL     1       2.095   3.152  21.664  0.00  0.00    +0.000 Cl
ATOM     14  C   UNL     1       2.121   5.496  20.356  0.00  0.00    +0.000 A 
ENDBRANCH   4   7
BRANCH   1  15
ATOM     15  C   UNL     1       0.029  11.427  18.874  0.00  0.00    +0.000 C 
BRANCH  15  19
ATOM     16  C   UNL     1       2.528  14.952  18.520  0.00  0.00    +0.000 A 
ATOM     17  C   UNL     1       1.172  15.081  18.840  0.00  0.00    +0.000 A 
ATOM     18  C   UNL     1       0.367  13.947  18.979  0.00  0.00    +0.000 A 
ATOM     19  C   UNL     1       0.909  12.668  18.801  0.00  0.00    +0.000 A 
ATOM     20  C   UNL     1       2.275  12.550  18.481  0.00  0.00    +0.000 A 
ATOM     21  C   UNL     1       3.079  13.682  18.337  0.00  0.00    +0.000 A 
BRANCH  16  23
ATOM     22  N   UNL     1       4.015  17.062  18.261  0.00  0.00    +0.000 NA
ATOM     23  C   UNL     1       3.349  16.118  18.376  0.00  0.00    +0.000 C 
ENDBRANCH  16  23
ENDBRANCH  15  19
ENDBRANCH   1  15
TORSDOF 4
ENDMDL
MODEL 5
REMARK VINA RESULT:      -7.1      0.644      1.786
REMARK  Name = 
REMARK  4 active torsions:
REMARK  status: ('A' for Active; 'I' for Inactive)
REMARK    1  A    between atoms: C_2  and  C_3
REMARK    2  A    between atoms: C_6  and  C_7
REMARK    3  A    between atoms: C_7  and  N_8
REMARK    4  A    between atoms: N_11  and  C_12
REMARK                            x       y       z     vdW  Elec       q    Type
REMARK                         _______ _______ _______ _____ _____    ______ ____
ROOT
ATOM      1  N   UNL     1       3.582   4.881  19.079  0.00  0.00    +0.000 NA
ATOM      2  C   UNL     1       3.937   6.264  18.717  0.00  0.00    +0.000 C 
ATOM      3  C   UNL     1       2.622   7.041  18.567  0.00  0.00    +0.000 C 
ATOM      4  N   UNL     1       1.924   7.045  19.863  0.00  0.00    +0.000 N 
ATOM      5  C   UNL     1       1.694   5.715  20.461  0.00  0.00    +0.000 C 
ATOM      6  C   UNL     1       3.008   4.872  20.432  0.00  0.00    +0.000 C 
ENDROOT
BRANCH   4   7
ATOM      7  C   UNL     1       1.395   8.210  20.368  0.00  0.00    +0.000 A 
ATOM      8  C   UNL     1       1.086   8.311  21.739  0.00  0.00    +0.000 A 
ATOM      9  C   UNL     1       0.540   9.475  22.285  0.00  0.00    +0.000 A 
ATOM     10  C   UNL     1       0.281  10.572  21.471  0.00  0.00    +0.000 A 
ATOM     11 CL   UNL     1      -0.393  11.979  22.209  0.00  0.00    +0.000 Cl
ATOM     12  C   UNL     1       0.571  10.494  20.106  0.00  0.00    +0.000 A 
ATOM     13 CL   UNL     1       0.288  11.818  19.027  0.00  0.00    +0.000 Cl
ATOM     14  C   UNL     1       1.118   9.322  19.564  0.00  0.00    +0.000 A 
ENDBRANCH   4   7
BRANCH   1  15
ATOM     15  C   UNL     1       4.628   3.911  18.806  0.00  0.00    +0.000 C 
BRANCH  15  19
ATOM     16  C   UNL     1       6.700   4.811  15.106  0.00  0.00    +0.000 A 
ATOM     17  C   UNL     1       5.366   4.390  15.080  0.00  0.00    +0.000 A 
ATOM     18  C   UNL     1       4.685   4.122  16.272  0.00  0.00    +0.000 A 
ATOM     19  C   UNL     1       5.331   4.272  17.505  0.00  0.00    +0.000 A 
ATOM     20  C   UNL     1       6.673   4.698  17.519  0.00  0.00    +0.000 A 
ATOM     21  C   UNL     1       7.355   4.962  16.331  0.00  0.00    +0.000 A 
BRANCH  16  23
ATOM     22  N   UNL     1       7.956   5.305  12.891  0.00  0.00    +0.000 NA
ATOM     23  C   UNL     1       7.394   5.083  13.882  0.00  0.00    +0.000 C 
ENDBRANCH  16  23
ENDBRANCH  15  19
ENDBRANCH   1  15
TORSDOF 4
ENDMDL
MODEL 6
REMARK VINA RESULT:      -7.1      4.191      8.198
REMARK  Name = 
REMARK  4 active torsions:
REMARK  status: ('A' for Active; 'I' for Inactive)
REMARK    1  A    between atoms: C_2  and  C_3
REMARK    2  A    between atoms: C_6  and  C_7
REMARK    3  A    between atoms: C_7  and  N_8
REMARK    4  A    between atoms: N_11  and  C_12
REMARK                            x       y       z     vdW  Elec       q    Type
REMARK                         _______ _______ _______ _____ _____    ______ ____
ROOT
ATOM      1  N   UNL     1       0.798  10.168  19.170  0.00  0.00    +0.000 NA
ATOM      2  C   UNL     1       0.973   9.306  17.987  0.00  0.00    +0.000 C 
ATOM      3  C   UNL     1       2.251   8.487  18.215  0.00  0.00    +0.000 C 
ATOM      4  N   UNL     1       2.064   7.640  19.405  0.00  0.00    +0.000 N 
ATOM      5  C   UNL     1       1.663   8.356  20.632  0.00  0.00    +0.000 C 
ATOM      6  C   UNL     1       0.477   9.326  20.331  0.00  0.00    +0.000 C 
ENDROOT
BRANCH   4   7
ATOM      7  C   UNL     1       2.409   6.309  19.376  0.00  0.00    +0.000 A 
ATOM      8  C   UNL     1       3.129   5.787  18.284  0.00  0.00    +0.000 A 
ATOM      9  C   UNL     1       3.488   4.439  18.217  0.00  0.00    +0.000 A 
ATOM     10  C   UNL     1       3.129   3.570  19.241  0.00  0.00    +0.000 A 
ATOM     11 CL   UNL     1       3.605   1.918  19.097  0.00  0.00    +0.000 Cl
ATOM     12  C   UNL     1       2.407   4.061  20.333  0.00  0.00    +0.000 A 
ATOM     13 CL   UNL     1       1.932   3.049  21.654  0.00  0.00    +0.000 Cl
ATOM     14  C   UNL     1       2.049   5.416  20.393  0.00  0.00    +0.000 A 
ENDBRANCH   4   7
BRANCH   1  15
ATOM     15  C   UNL     1      -0.057  11.319  18.941  0.00  0.00    +0.000 C 
BRANCH  15  19
ATOM     16  C   UNL     1       2.374  14.885  18.536  0.00  0.00    +0.000 A 
ATOM     17  C   UNL     1       2.976  13.622  18.556  0.00  0.00    +0.000 A 
ATOM     18  C   UNL     1       2.196  12.467  18.662  0.00  0.00    +0.000 A 
ATOM     19  C   UNL     1       0.801  12.561  18.749  0.00  0.00    +0.000 A 
ATOM     20  C   UNL     1       0.205  13.837  18.726  0.00  0.00    +0.000 A 
ATOM     21  C   UNL     1       0.984  14.991  18.625  0.00  0.00    +0.000 A 
BRANCH  16  23
ATOM     22  N   UNL     1       3.831  17.022  18.342  0.00  0.00    +0.000 NA
ATOM     23  C   UNL     1       3.178  16.067  18.429  0.00  0.00    +0.000 C 
ENDBRANCH  16  23
ENDBRANCH  15  19
ENDBRANCH   1  15
TORSDOF 4
ENDMDL
MODEL 7
REMARK VINA RESULT:      -7.0      4.081      8.719
REMARK  Name = 
REMARK  4 active torsions:
REMARK  status: ('A' for Active; 'I' for Inactive)
REMARK    1  A    between atoms: C_2  and  C_3
REMARK    2  A    between atoms: C_6  and  C_7
REMARK    3  A    between atoms: C_7  and  N_8
REMARK    4  A    between atoms: N_11  and  C_12
REMARK                            x       y       z     vdW  Elec       q    Type
REMARK                         _______ _______ _______ _____ _____    ______ ____
ROOT
ATOM      1  N   UNL     1       1.255  10.306  19.025  0.00  0.00    +0.000 NA
ATOM      2  C   UNL     1       1.499   9.473  17.834  0.00  0.00    +0.000 C 
ATOM      3  C   UNL     1       2.590   8.461  18.210  0.00  0.00    +0.000 C 
ATOM      4  N   UNL     1       2.089   7.608  19.301  0.00  0.00    +0.000 N 
ATOM      5  C   UNL     1       1.596   8.330  20.491  0.00  0.00    +0.000 C 
ATOM      6  C   UNL     1       0.628   9.479  20.066  0.00  0.00    +0.000 C 
ENDROOT
BRANCH   4   7
ATOM      7  C   UNL     1       2.238   6.242  19.245  0.00  0.00    +0.000 A 
ATOM      8  C   UNL     1       2.658   5.624  18.051  0.00  0.00    +0.000 A 
ATOM      9  C   UNL     1       2.813   4.240  17.955  0.00  0.00    +0.000 A 
ATOM     10  C   UNL     1       2.544   3.430  19.053  0.00  0.00    +0.000 A 
ATOM     11 CL   UNL     1       2.756   1.728  18.868  0.00  0.00    +0.000 Cl
ATOM     12  C   UNL     1       2.118   4.018  20.248  0.00  0.00    +0.000 A 
ATOM     13 CL   UNL     1       1.773   3.083  21.663  0.00  0.00    +0.000 Cl
ATOM     14  C   UNL     1       1.964   5.409  20.337  0.00  0.00    +0.000 A 
ENDBRANCH   4   7
BRANCH   1  15
ATOM     15  C   UNL     1       0.624  11.581  18.736  0.00  0.00    +0.000 C 
BRANCH  15  19
ATOM     16  C   UNL     1      -3.672  11.161  18.334  0.00  0.00    +0.000 A 
ATOM     17  C   UNL     1      -2.814  10.400  17.532  0.00  0.00    +0.000 A 
ATOM     18  C   UNL     1      -1.427  10.514  17.674  0.00  0.00    +0.000 A 
ATOM     19  C   UNL     1      -0.883  11.390  18.621  0.00  0.00    +0.000 A 
ATOM     20  C   UNL     1      -1.756  12.149  19.423  0.00  0.00    +0.000 A 
ATOM     21  C   UNL     1      -3.140  12.040  19.279  0.00  0.00    +0.000 A 
BRANCH  16  23
ATOM     22  N   UNL     1      -6.243  10.946  18.060  0.00  0.00    +0.000 NA
ATOM     23  C   UNL     1      -5.093  11.043  18.183  0.00  0.00    +0.000 C 
ENDBRANCH  16  23
ENDBRANCH  15  19
ENDBRANCH   1  15
TORSDOF 4
ENDMDL
MODEL 8
REMARK VINA RESULT:      -7.0      1.464      2.191
REMARK  Name = 
REMARK  4 active torsions:
REMARK  status: ('A' for Active; 'I' for Inactive)
REMARK    1  A    between atoms: C_2  and  C_3
REMARK    2  A    between atoms: C_6  and  C_7
REMARK    3  A    between atoms: C_7  and  N_8
REMARK    4  A    between atoms: N_11  and  C_12
REMARK                            x       y       z     vdW  Elec       q    Type
REMARK                         _______ _______ _______ _____ _____    ______ ____
ROOT
ATOM      1  N   UNL     1       2.789   6.358  19.348  0.00  0.00    +0.000 NA
ATOM      2  C   UNL     1       1.791   6.464  20.426  0.00  0.00    +0.000 C 
ATOM      3  C   UNL     1       1.766   7.932  20.873  0.00  0.00    +0.000 C 
ATOM      4  N   UNL     1       1.339   8.766  19.736  0.00  0.00    +0.000 N 
ATOM      5  C   UNL     1       2.126   8.596  18.498  0.00  0.00    +0.000 C 
ATOM      6  C   UNL     1       2.295   7.079  18.166  0.00  0.00    +0.000 C 
ENDROOT
BRANCH   4   7
ATOM      7  C   UNL     1       0.380   9.737  19.903  0.00  0.00    +0.000 A 
ATOM      8  C   UNL     1      -0.310  10.250  18.788  0.00  0.00    +0.000 A 
ATOM      9  C   UNL     1      -1.284  11.243  18.919  0.00  0.00    +0.000 A 
ATOM     10  C   UNL     1      -1.591  11.756  20.174  0.00  0.00    +0.000 A 
ATOM     11 CL   UNL     1      -2.805  12.979  20.266  0.00  0.00    +0.000 Cl
ATOM     12  C   UNL     1      -0.915  11.270  21.296  0.00  0.00    +0.000 A 
ATOM     13 CL   UNL     1      -1.246  11.848  22.894  0.00  0.00    +0.000 Cl
ATOM     14  C   UNL     1       0.062  10.273  21.157  0.00  0.00    +0.000 A 
ENDBRANCH   4   7
BRANCH   1  15
ATOM     15  C   UNL     1       3.284   5.011  19.131  0.00  0.00    +0.000 C 
BRANCH  15  19
ATOM     16  C   UNL     1       6.123   5.113  15.856  0.00  0.00    +0.000 A 
ATOM     17  C   UNL     1       6.290   5.960  16.958  0.00  0.00    +0.000 A 
ATOM     18  C   UNL     1       5.391   5.914  18.028  0.00  0.00    +0.000 A 
ATOM     19  C   UNL     1       4.314   5.020  18.009  0.00  0.00    +0.000 A 
ATOM     20  C   UNL     1       4.157   4.171  16.896  0.00  0.00    +0.000 A 
ATOM     21  C   UNL     1       5.050   4.220  15.825  0.00  0.00    +0.000 A 
BRANCH  16  23
ATOM     22  N   UNL     1       7.794   5.207  13.874  0.00  0.00    +0.000 NA
ATOM     23  C   UNL     1       7.046   5.166  14.760  0.00  0.00    +0.000 C 
ENDBRANCH  16  23
ENDBRANCH  15  19
ENDBRANCH   1  15
TORSDOF 4
ENDMDL
MODEL 9
REMARK VINA RESULT:      -7.0      1.779      2.805
REMARK  Name = 
REMARK  4 active torsions:
REMARK  status: ('A' for Active; 'I' for Inactive)
REMARK    1  A    between atoms: C_2  and  C_3
REMARK    2  A    between atoms: C_6  and  C_7
REMARK    3  A    between atoms: C_7  and  N_8
REMARK    4  A    between atoms: N_11  and  C_12
REMARK                            x       y       z     vdW  Elec       q    Type
REMARK                         _______ _______ _______ _____ _____    ______ ____
ROOT
ATOM      1  N   UNL     1       2.779   6.511  19.344  0.00  0.00    +0.000 NA
ATOM      2  C   UNL     1       1.737   6.634  20.379  0.00  0.00    +0.000 C 
ATOM      3  C   UNL     1       1.675   8.113  20.781  0.00  0.00    +0.000 C 
ATOM      4  N   UNL     1       1.282   8.908  19.605  0.00  0.00    +0.000 N 
ATOM      5  C   UNL     1       2.119   8.714  18.404  0.00  0.00    +0.000 C 
ATOM      6  C   UNL     1       2.322   7.191  18.124  0.00  0.00    +0.000 C 
ENDROOT
BRANCH   4   7
ATOM      7  C   UNL     1       0.304   9.869  19.706  0.00  0.00    +0.000 A 
ATOM      8  C   UNL     1       0.099  10.544  20.926  0.00  0.00    +0.000 A 
ATOM      9  C   UNL     1      -0.890  11.520  21.068  0.00  0.00    +0.000 A 
ATOM     10  C   UNL     1      -1.709  11.845  19.992  0.00  0.00    +0.000 A 
ATOM     11 CL   UNL     1      -2.910  13.059  20.234  0.00  0.00    +0.000 Cl
ATOM     12  C   UNL     1      -1.531  11.184  18.773  0.00  0.00    +0.000 A 
ATOM     13 CL   UNL     1      -2.500  11.537  17.383  0.00  0.00    +0.000 Cl
ATOM     14  C   UNL     1      -0.536  10.204  18.638  0.00  0.00    +0.000 A 
ENDBRANCH   4   7
BRANCH   1  15
ATOM     15  C   UNL     1       3.300   5.166  19.186  0.00  0.00    +0.000 C 
BRANCH  15  19
ATOM     16  C   UNL     1       6.112   5.177  15.886  0.00  0.00    +0.000 A 
ATOM     17  C   UNL     1       6.291   6.050  16.965  0.00  0.00    +0.000 A 
ATOM     18  C   UNL     1       5.400   6.034  18.043  0.00  0.00    +0.000 A 
ATOM     19  C   UNL     1       4.320   5.144  18.056  0.00  0.00    +0.000 A 
ATOM     20  C   UNL     1       4.151   4.268  16.966  0.00  0.00    +0.000 A 
ATOM     21  C   UNL     1       5.036   4.286  15.887  0.00  0.00    +0.000 A 
BRANCH  16  23
ATOM     22  N   UNL     1       7.764   5.217  13.887  0.00  0.00    +0.000 NA
ATOM     23  C   UNL     1       7.026   5.199  14.782  0.00  0.00    +0.000 C 
ENDBRANCH  16  23
ENDBRANCH  15  19
ENDBRANCH   1  15
TORSDOF 4
ENDMDL
