MODEL 1
REMARK VINA RESULT:      -6.4      0.000      0.000
REMARK  Name = 
REMARK  7 active torsions:
REMARK  status: ('A' for Active; 'I' for Inactive)
REMARK    1  A    between atoms: C_1  and  N_2
REMARK    2  A    between atoms: N_5  and  C_6
REMARK    3  A    between atoms: C_6  and  C_7
REMARK    4  A    between atoms: C_7  and  O_8
REMARK    5  A    between atoms: O_8  and  C_9
REMARK    6  A    between atoms: C_9  and  C_11
REMARK    7  A    between atoms: C_16  and  O_17
REMARK                            x       y       z     vdW  Elec       q    Type
REMARK                         _______ _______ _______ _____ _____    ______ ____
ROOT
ATOM      1  C   UNL     1       3.254   4.019  17.777  0.00  0.00    +0.000 C 
ATOM      2  O   UNL     1       3.727   3.267  16.940  0.00  0.00    +0.000 OA
ENDROOT
BRANCH   1   3
ATOM      3  C   UNL     1       2.807   3.570  19.128  0.00  0.00    +0.000 A 
ATOM      4  C   UNL     1       1.498   3.924  19.501  0.00  0.00    +0.000 A 
ATOM      5  C   UNL     1       0.981   3.548  20.741  0.00  0.00    +0.000 A 
ATOM      6  C   UNL     1       1.758   2.796  21.618  0.00  0.00    +0.000 A 
ATOM      7  C   UNL     1       3.061   2.444  21.270  0.00  0.00    +0.000 A 
ATOM      8  C   UNL     1       3.592   2.845  20.038  0.00  0.00    +0.000 A 
BRANCH   8   9
ATOM      9  O   UNL     1       4.907   2.554  19.785  0.00  0.00    +0.000 OA
ATOM     10  H   UNL     1       5.303   3.314  19.321  0.00  0.00    +0.000 HD
ENDBRANCH   8   9
ENDBRANCH   1   3
BRANCH   1  11
ATOM     11  O   UNL     1       3.035   5.338  17.570  0.00  0.00    +0.000 OA
BRANCH  11  12
ATOM     12  C   UNL     1       3.976   6.232  18.195  0.00  0.00    +0.000 C 
BRANCH  12  13
ATOM     13  C   UNL     1       4.902   6.895  17.169  0.00  0.00    +0.000 C 
BRANCH  13  18
ATOM     14  C   UNL     1       6.441   3.988  13.497  0.00  0.00    +0.000 C 
ATOM     15  N   UNL     1       6.376   4.624  14.805  0.00  0.00    +0.000 N 
ATOM     16  C   UNL     1       7.190   4.360  15.891  0.00  0.00    +0.000 A 
ATOM     17  C   UNL     1       6.770   5.175  16.905  0.00  0.00    +0.000 A 
ATOM     18  N   UNL     1       5.709   5.917  16.411  0.00  0.00    +0.000 N 
ATOM     19  C   UNL     1       5.482   5.572  15.133  0.00  0.00    +0.000 A 
ENDBRANCH  13  18
ENDBRANCH  12  13
ENDBRANCH  11  12
ENDBRANCH   1  11
TORSDOF 6
ENDMDL
MODEL 2
REMARK VINA RESULT:      -6.4      1.862      2.929
REMARK  Name = 
REMARK  7 active torsions:
REMARK  status: ('A' for Active; 'I' for Inactive)
REMARK    1  A    between atoms: C_1  and  N_2
REMARK    2  A    between atoms: N_5  and  C_6
REMARK    3  A    between atoms: C_6  and  C_7
REMARK    4  A    between atoms: C_7  and  O_8
REMARK    5  A    between atoms: O_8  and  C_9
REMARK    6  A    between atoms: C_9  and  C_11
REMARK    7  A    between atoms: C_16  and  O_17
REMARK                            x       y       z     vdW  Elec       q    Type
REMARK                         _______ _______ _______ _____ _____    ______ ____
ROOT
ATOM      1  C   UNL     1       3.316   5.092  17.602  0.00  0.00    +0.000 C 
ATOM      2  O   UNL     1       3.569   6.287  17.620  0.00  0.00    +0.000 OA
ENDROOT
BRANCH   1   3
ATOM      3  C   UNL     1       2.454   4.420  18.617  0.00  0.00    +0.000 A 
ATOM      4  C   UNL     1       1.687   3.333  18.161  0.00  0.00    +0.000 A 
ATOM      5  C   UNL     1       0.852   2.631  19.031  0.00  0.00    +0.000 A 
ATOM      6  C   UNL     1       0.787   2.993  20.374  0.00  0.00    +0.000 A 
ATOM      7  C   UNL     1       1.533   4.073  20.843  0.00  0.00    +0.000 A 
ATOM      8  C   UNL     1       2.349   4.797  19.965  0.00  0.00    +0.000 A 
BRANCH   8   9
ATOM      9  O   UNL     1       2.987   5.906  20.456  0.00  0.00    +0.000 OA
ATOM     10  H   UNL     1       2.959   5.868  21.430  0.00  0.00    +0.000 HD
ENDBRANCH   8   9
ENDBRANCH   1   3
BRANCH   1  11
ATOM     11  O   UNL     1       3.818   4.227  16.692  0.00  0.00    +0.000 OA
BRANCH  11  12
ATOM     12  C   UNL     1       5.101   3.658  17.012  0.00  0.00    +0.000 C 
BRANCH  12  13
ATOM     13  C   UNL     1       6.246   4.403  16.317  0.00  0.00    +0.000 C 
BRANCH  13  18
ATOM     14  C   UNL     1       8.076   8.713  17.861  0.00  0.00    +0.000 C 
ATOM     15  N   UNL     1       7.701   7.306  17.858  0.00  0.00    +0.000 N 
ATOM     16  C   UNL     1       7.958   6.382  18.855  0.00  0.00    +0.000 A 
ATOM     17  C   UNL     1       7.440   5.191  18.432  0.00  0.00    +0.000 A 
ATOM     18  N   UNL     1       6.878   5.417  17.185  0.00  0.00    +0.000 N 
ATOM     19  C   UNL     1       7.045   6.708  16.850  0.00  0.00    +0.000 A 
ENDBRANCH  13  18
ENDBRANCH  12  13
ENDBRANCH  11  12
ENDBRANCH   1  11
TORSDOF 6
ENDMDL
MODEL 3
REMARK VINA RESULT:      -6.3      2.413      6.493
REMARK  Name = 
REMARK  7 active torsions:
REMARK  status: ('A' for Active; 'I' for Inactive)
REMARK    1  A    between atoms: C_1  and  N_2
REMARK    2  A    between atoms: N_5  and  C_6
REMARK    3  A    between atoms: C_6  and  C_7
REMARK    4  A    between atoms: C_7  and  O_8
REMARK    5  A    between atoms: O_8  and  C_9
REMARK    6  A    between atoms: C_9  and  C_11
REMARK    7  A    between atoms: C_16  and  O_17
REMARK                            x       y       z     vdW  Elec       q    Type
REMARK                         _______ _______ _______ _____ _____    ______ ____
ROOT
ATOM      1  C   UNL     1       5.160   4.407  15.928  0.00  0.00    +0.000 C 
ATOM      2  O   UNL     1       4.853   3.404  16.554  0.00  0.00    +0.000 OA
ENDROOT
BRANCH   1   3
ATOM      3  C   UNL     1       5.890   4.373  14.628  0.00  0.00    +0.000 A 
ATOM      4  C   UNL     1       5.342   3.552  13.627  0.00  0.00    +0.000 A 
ATOM      5  C   UNL     1       5.944   3.454  12.372  0.00  0.00    +0.000 A 
ATOM      6  C   UNL     1       7.093   4.190  12.094  0.00  0.00    +0.000 A 
ATOM      7  C   UNL     1       7.656   5.002  13.077  0.00  0.00    +0.000 A 
ATOM      8  C   UNL     1       7.070   5.079  14.346  0.00  0.00    +0.000 A 
BRANCH   8   9
ATOM      9  O   UNL     1       7.716   5.816  15.303  0.00  0.00    +0.000 OA
ATOM     10  H   UNL     1       7.690   6.753  15.035  0.00  0.00    +0.000 HD
ENDBRANCH   8   9
ENDBRANCH   1   3
BRANCH   1  11
ATOM     11  O   UNL     1       4.916   5.667  16.354  0.00  0.00    +0.000 OA
BRANCH  11  12
ATOM     12  C   UNL     1       4.605   5.804  17.753  0.00  0.00    +0.000 C 
BRANCH  12  13
ATOM     13  C   UNL     1       3.119   6.104  17.982  0.00  0.00    +0.000 C 
BRANCH  13  18
ATOM     14  C   UNL     1       1.471   2.840  21.290  0.00  0.00    +0.000 C 
ATOM     15  N   UNL     1       1.678   3.514  20.016  0.00  0.00    +0.000 N 
ATOM     16  C   UNL     1       1.183   3.121  18.786  0.00  0.00    +0.000 A 
ATOM     17  C   UNL     1       1.630   4.033  17.872  0.00  0.00    +0.000 A 
ATOM     18  N   UNL     1       2.389   4.961  18.567  0.00  0.00    +0.000 N 
ATOM     19  C   UNL     1       2.408   4.632  19.870  0.00  0.00    +0.000 A 
ENDBRANCH  13  18
ENDBRANCH  12  13
ENDBRANCH  11  12
ENDBRANCH   1  11
TORSDOF 6
ENDMDL
MODEL 4
REMARK VINA RESULT:      -6.2      1.188      1.496
REMARK  Name = 
REMARK  7 active torsions:
REMARK  status: ('A' for Active; 'I' for Inactive)
REMARK    1  A    between atoms: C_1  and  N_2
REMARK    2  A    between atoms: N_5  and  C_6
REMARK    3  A    between atoms: C_6  and  C_7
REMARK    4  A    between atoms: C_7  and  O_8
REMARK    5  A    between atoms: O_8  and  C_9
REMARK    6  A    between atoms: C_9  and  C_11
REMARK    7  A    between atoms: C_16  and  O_17
REMARK                            x       y       z     vdW  Elec       q    Type
REMARK                         _______ _______ _______ _____ _____    ______ ____
ROOT
ATOM      1  C   UNL     1       4.622   4.581  19.356  0.00  0.00    +0.000 C 
ATOM      2  O   UNL     1       5.706   4.019  19.349  0.00  0.00    +0.000 OA
ENDROOT
BRANCH   1   3
ATOM      3  C   UNL     1       3.324   3.862  19.516  0.00  0.00    +0.000 A 
ATOM      4  C   UNL     1       2.410   4.424  20.424  0.00  0.00    +0.000 A 
ATOM      5  C   UNL     1       1.164   3.833  20.642  0.00  0.00    +0.000 A 
ATOM      6  C   UNL     1       0.809   2.684  19.943  0.00  0.00    +0.000 A 
ATOM      7  C   UNL     1       1.706   2.107  19.045  0.00  0.00    +0.000 A 
ATOM      8  C   UNL     1       2.968   2.681  18.847  0.00  0.00    +0.000 A 
BRANCH   8   9
ATOM      9  O   UNL     1       3.846   2.023  18.026  0.00  0.00    +0.000 OA
ATOM     10  H   UNL     1       4.512   2.665  17.716  0.00  0.00    +0.000 HD
ENDBRANCH   8   9
ENDBRANCH   1   3
BRANCH   1  11
ATOM     11  O   UNL     1       4.460   5.912  19.177  0.00  0.00    +0.000 OA
BRANCH  11  12
ATOM     12  C   UNL     1       3.865   6.306  17.927  0.00  0.00    +0.000 C 
BRANCH  12  13
ATOM     13  C   UNL     1       4.873   7.008  17.009  0.00  0.00    +0.000 C 
BRANCH  13  18
ATOM     14  C   UNL     1       6.219   3.808  13.508  0.00  0.00    +0.000 C 
ATOM     15  N   UNL     1       6.281   4.638  14.703  0.00  0.00    +0.000 N 
ATOM     16  C   UNL     1       7.322   4.697  15.612  0.00  0.00    +0.000 A 
ATOM     17  C   UNL     1       6.953   5.593  16.576  0.00  0.00    +0.000 A 
ATOM     18  N   UNL     1       5.695   6.059  16.230  0.00  0.00    +0.000 N 
ATOM     19  C   UNL     1       5.300   5.470  15.090  0.00  0.00    +0.000 A 
ENDBRANCH  13  18
ENDBRANCH  12  13
ENDBRANCH  11  12
ENDBRANCH   1  11
TORSDOF 6
ENDMDL
MODEL 5
REMARK VINA RESULT:      -6.2      2.759      6.650
REMARK  Name = 
REMARK  7 active torsions:
REMARK  status: ('A' for Active; 'I' for Inactive)
REMARK    1  A    between atoms: C_1  and  N_2
REMARK    2  A    between atoms: N_5  and  C_6
REMARK    3  A    between atoms: C_6  and  C_7
REMARK    4  A    between atoms: C_7  and  O_8
REMARK    5  A    between atoms: O_8  and  C_9
REMARK    6  A    between atoms: C_9  and  C_11
REMARK    7  A    between atoms: C_16  and  O_17
REMARK                            x       y       z     vdW  Elec       q    Type
REMARK                         _______ _______ _______ _____ _____    ______ ____
ROOT
ATOM      1  C   UNL     1       6.567   5.464  15.754  0.00  0.00    +0.000 C 
ATOM      2  O   UNL     1       7.531   6.014  16.263  0.00  0.00    +0.000 OA
ENDROOT
BRANCH   1   3
ATOM      3  C   UNL     1       6.589   4.863  14.389  0.00  0.00    +0.000 A 
ATOM      4  C   UNL     1       5.551   3.963  14.089  0.00  0.00    +0.000 A 
ATOM      5  C   UNL     1       5.476   3.349  12.837  0.00  0.00    +0.000 A 
ATOM      6  C   UNL     1       6.427   3.640  11.863  0.00  0.00    +0.000 A 
ATOM      7  C   UNL     1       7.469   4.522  12.147  0.00  0.00    +0.000 A 
ATOM      8  C   UNL     1       7.563   5.116  13.411  0.00  0.00    +0.000 A 
BRANCH   8   9
ATOM      9  O   UNL     1       8.657   5.900  13.668  0.00  0.00    +0.000 OA
ATOM     10  H   UNL     1       8.388   6.606  14.284  0.00  0.00    +0.000 HD
ENDBRANCH   8   9
ENDBRANCH   1   3
BRANCH   1  11
ATOM     11  O   UNL     1       5.352   5.372  16.342  0.00  0.00    +0.000 OA
BRANCH  11  12
ATOM     12  C   UNL     1       5.270   5.880  17.687  0.00  0.00    +0.000 C 
BRANCH  12  13
ATOM     13  C   UNL     1       3.849   5.774  18.253  0.00  0.00    +0.000 C 
BRANCH  13  18
ATOM     14  C   UNL     1       1.906   2.674  21.558  0.00  0.00    +0.000 C 
ATOM     15  N   UNL     1       2.815   3.218  20.558  0.00  0.00    +0.000 N 
ATOM     16  C   UNL     1       3.990   2.641  20.112  0.00  0.00    +0.000 A 
ATOM     17  C   UNL     1       4.522   3.495  19.187  0.00  0.00    +0.000 A 
ATOM     18  N   UNL     1       3.656   4.574  19.092  0.00  0.00    +0.000 N 
ATOM     19  C   UNL     1       2.624   4.390  19.931  0.00  0.00    +0.000 A 
ENDBRANCH  13  18
ENDBRANCH  12  13
ENDBRANCH  11  12
ENDBRANCH   1  11
TORSDOF 6
ENDMDL
MODEL 6
REMARK VINA RESULT:      -6.2      1.961      3.469
REMARK  Name = 
REMARK  7 active torsions:
REMARK  status: ('A' for Active; 'I' for Inactive)
REMARK    1  A    between atoms: C_1  and  N_2
REMARK    2  A    between atoms: N_5  and  C_6
REMARK    3  A    between atoms: C_6  and  C_7
REMARK    4  A    between atoms: C_7  and  O_8
REMARK    5  A    between atoms: O_8  and  C_9
REMARK    6  A    between atoms: C_9  and  C_11
REMARK    7  A    between atoms: C_16  and  O_17
REMARK                            x       y       z     vdW  Elec       q    Type
REMARK                         _______ _______ _______ _____ _____    ______ ____
ROOT
ATOM      1  C   UNL     1       3.044   3.108  17.568  0.00  0.00    +0.000 C 
ATOM      2  O   UNL     1       2.256   2.970  16.646  0.00  0.00    +0.000 OA
ENDROOT
BRANCH   1   3
ATOM      3  C   UNL     1       2.660   2.984  19.004  0.00  0.00    +0.000 A 
ATOM      4  C   UNL     1       1.324   3.286  19.319  0.00  0.00    +0.000 A 
ATOM      5  C   UNL     1       0.860   3.196  20.632  0.00  0.00    +0.000 A 
ATOM      6  C   UNL     1       1.722   2.784  21.646  0.00  0.00    +0.000 A 
ATOM      7  C   UNL     1       3.052   2.490  21.354  0.00  0.00    +0.000 A 
ATOM      8  C   UNL     1       3.527   2.608  20.042  0.00  0.00    +0.000 A 
BRANCH   8   9
ATOM      9  O   UNL     1       4.864   2.399  19.826  0.00  0.00    +0.000 OA
ATOM     10  H   UNL     1       5.359   2.810  20.558  0.00  0.00    +0.000 HD
ENDBRANCH   8   9
ENDBRANCH   1   3
BRANCH   1  11
ATOM     11  O   UNL     1       4.348   3.431  17.404  0.00  0.00    +0.000 OA
BRANCH  11  12
ATOM     12  C   UNL     1       4.602   4.671  16.719  0.00  0.00    +0.000 C 
BRANCH  12  13
ATOM     13  C   UNL     1       5.019   5.784  17.687  0.00  0.00    +0.000 C 
BRANCH  13  18
ATOM     14  C   UNL     1       1.642   9.368  17.951  0.00  0.00    +0.000 C 
ATOM     15  N   UNL     1       2.400   8.172  18.291  0.00  0.00    +0.000 N 
ATOM     16  C   UNL     1       2.226   7.375  19.408  0.00  0.00    +0.000 A 
ATOM     17  C   UNL     1       3.154   6.375  19.327  0.00  0.00    +0.000 A 
ATOM     18  N   UNL     1       3.873   6.587  18.162  0.00  0.00    +0.000 N 
ATOM     19  C   UNL     1       3.403   7.683  17.543  0.00  0.00    +0.000 A 
ENDBRANCH  13  18
ENDBRANCH  12  13
ENDBRANCH  11  12
ENDBRANCH   1  11
TORSDOF 6
ENDMDL
MODEL 7
REMARK VINA RESULT:      -6.1      1.750      2.323
REMARK  Name = 
REMARK  7 active torsions:
REMARK  status: ('A' for Active; 'I' for Inactive)
REMARK    1  A    between atoms: C_1  and  N_2
REMARK    2  A    between atoms: N_5  and  C_6
REMARK    3  A    between atoms: C_6  and  C_7
REMARK    4  A    between atoms: C_7  and  O_8
REMARK    5  A    between atoms: O_8  and  C_9
REMARK    6  A    between atoms: C_9  and  C_11
REMARK    7  A    between atoms: C_16  and  O_17
REMARK                            x       y       z     vdW  Elec       q    Type
REMARK                         _______ _______ _______ _____ _____    ______ ____
ROOT
ATOM      1  C   UNL     1       3.703   5.722  18.583  0.00  0.00    +0.000 C 
ATOM      2  O   UNL     1       3.535   6.588  17.738  0.00  0.00    +0.000 OA
ENDROOT
BRANCH   1   3
ATOM      3  C   UNL     1       2.643   4.755  18.991  0.00  0.00    +0.000 A 
ATOM      4  C   UNL     1       2.135   3.924  17.976  0.00  0.00    +0.000 A 
ATOM      5  C   UNL     1       1.145   2.980  18.254  0.00  0.00    +0.000 A 
ATOM      6  C   UNL     1       0.663   2.840  19.553  0.00  0.00    +0.000 A 
ATOM      7  C   UNL     1       1.149   3.661  20.569  0.00  0.00    +0.000 A 
ATOM      8  C   UNL     1       2.120   4.629  20.287  0.00  0.00    +0.000 A 
BRANCH   8   9
ATOM      9  O   UNL     1       2.494   5.472  21.301  0.00  0.00    +0.000 OA
ATOM     10  H   UNL     1       3.349   5.876  21.062  0.00  0.00    +0.000 HD
ENDBRANCH   8   9
ENDBRANCH   1   3
BRANCH   1  11
ATOM     11  O   UNL     1       4.850   5.562  19.282  0.00  0.00    +0.000 OA
BRANCH  11  12
ATOM     12  C   UNL     1       5.687   4.468  18.865  0.00  0.00    +0.000 C 
BRANCH  12  13
ATOM     13  C   UNL     1       6.844   4.939  17.976  0.00  0.00    +0.000 C 
BRANCH  13  18
ATOM     14  C   UNL     1       7.453   4.922  13.084  0.00  0.00    +0.000 C 
ATOM     15  N   UNL     1       6.880   4.648  14.394  0.00  0.00    +0.000 N 
ATOM     16  C   UNL     1       5.716   3.948  14.654  0.00  0.00    +0.000 A 
ATOM     17  C   UNL     1       5.554   3.943  16.012  0.00  0.00    +0.000 A 
ATOM     18  N   UNL     1       6.625   4.641  16.546  0.00  0.00    +0.000 N 
ATOM     19  C   UNL     1       7.423   5.063  15.551  0.00  0.00    +0.000 A 
ENDBRANCH  13  18
ENDBRANCH  12  13
ENDBRANCH  11  12
ENDBRANCH   1  11
TORSDOF 6
ENDMDL
MODEL 8
REMARK VINA RESULT:      -6.1      2.800      6.683
REMARK  Name = 
REMARK  7 active torsions:
REMARK  status: ('A' for Active; 'I' for Inactive)
REMARK    1  A    between atoms: C_1  and  N_2
REMARK    2  A    between atoms: N_5  and  C_6
REMARK    3  A    between atoms: C_6  and  C_7
REMARK    4  A    between atoms: C_7  and  O_8
REMARK    5  A    between atoms: O_8  and  C_9
REMARK    6  A    between atoms: C_9  and  C_11
REMARK    7  A    between atoms: C_16  and  O_17
REMARK                            x       y       z     vdW  Elec       q    Type
REMARK                         _______ _______ _______ _____ _____    ______ ____
ROOT
ATOM      1  C   UNL     1       6.625   5.492  15.785  0.00  0.00    +0.000 C 
ATOM      2  O   UNL     1       7.551   6.159  16.219  0.00  0.00    +0.000 OA
ENDROOT
BRANCH   1   3
ATOM      3  C   UNL     1       6.623   4.871  14.429  0.00  0.00    +0.000 A 
ATOM      4  C   UNL     1       5.587   3.957  14.165  0.00  0.00    +0.000 A 
ATOM      5  C   UNL     1       5.491   3.324  12.925  0.00  0.00    +0.000 A 
ATOM      6  C   UNL     1       6.417   3.610  11.925  0.00  0.00    +0.000 A 
ATOM      7  C   UNL     1       7.455   4.507  12.173  0.00  0.00    +0.000 A 
ATOM      8  C   UNL     1       7.571   5.120  13.426  0.00  0.00    +0.000 A 
BRANCH   8   9
ATOM      9  O   UNL     1       8.663   5.919  13.647  0.00  0.00    +0.000 OA
ATOM     10  H   UNL     1       9.337   5.706  12.975  0.00  0.00    +0.000 HD
ENDBRANCH   8   9
ENDBRANCH   1   3
BRANCH   1  11
ATOM     11  O   UNL     1       5.473   5.271  16.460  0.00  0.00    +0.000 OA
BRANCH  11  12
ATOM     12  C   UNL     1       5.242   6.124  17.596  0.00  0.00    +0.000 C 
BRANCH  12  13
ATOM     13  C   UNL     1       5.335   5.354  18.918  0.00  0.00    +0.000 C 
BRANCH  13  18
ATOM     14  C   UNL     1       1.548   2.668  20.579  0.00  0.00    +0.000 C 
ATOM     15  N   UNL     1       2.338   3.826  20.184  0.00  0.00    +0.000 N 
ATOM     16  C   UNL     1       1.919   5.145  20.176  0.00  0.00    +0.000 A 
ATOM     17  C   UNL     1       2.973   5.890  19.727  0.00  0.00    +0.000 A 
ATOM     18  N   UNL     1       4.010   5.006  19.472  0.00  0.00    +0.000 N 
ATOM     19  C   UNL     1       3.608   3.756  19.755  0.00  0.00    +0.000 A 
ENDBRANCH  13  18
ENDBRANCH  12  13
ENDBRANCH  11  12
ENDBRANCH   1  11
TORSDOF 6
ENDMDL
MODEL 9
REMARK VINA RESULT:      -6.1      2.589      6.375
REMARK  Name = 
REMARK  7 active torsions:
REMARK  status: ('A' for Active; 'I' for Inactive)
REMARK    1  A    between atoms: C_1  and  N_2
REMARK    2  A    between atoms: N_5  and  C_6
REMARK    3  A    between atoms: C_6  and  C_7
REMARK    4  A    between atoms: C_7  and  O_8
REMARK    5  A    between atoms: O_8  and  C_9
REMARK    6  A    between atoms: C_9  and  C_11
REMARK    7  A    between atoms: C_16  and  O_17
REMARK                            x       y       z     vdW  Elec       q    Type
REMARK                         _______ _______ _______ _____ _____    ______ ____
ROOT
ATOM      1  C   UNL     1       6.528   5.672  15.580  0.00  0.00    +0.000 C 
ATOM      2  O   UNL     1       7.523   5.916  16.245  0.00  0.00    +0.000 OA
ENDROOT
BRANCH   1   3
ATOM      3  C   UNL     1       6.566   4.940  14.281  0.00  0.00    +0.000 A 
ATOM      4  C   UNL     1       5.527   4.020  14.055  0.00  0.00    +0.000 A 
ATOM      5  C   UNL     1       5.466   3.287  12.868  0.00  0.00    +0.000 A 
ATOM      6  C   UNL     1       6.432   3.477  11.884  0.00  0.00    +0.000 A 
ATOM      7  C   UNL     1       7.475   4.378  12.095  0.00  0.00    +0.000 A 
ATOM      8  C   UNL     1       7.555   5.092  13.297  0.00  0.00    +0.000 A 
BRANCH   8   9
ATOM      9  O   UNL     1       8.650   5.893  13.492  0.00  0.00    +0.000 OA
ATOM     10  H   UNL     1       8.433   6.789  13.174  0.00  0.00    +0.000 HD
ENDBRANCH   8   9
ENDBRANCH   1   3
BRANCH   1  11
ATOM     11  O   UNL     1       5.280   6.072  15.915  0.00  0.00    +0.000 OA
BRANCH  11  12
ATOM     12  C   UNL     1       5.167   6.789  17.158  0.00  0.00    +0.000 C 
BRANCH  12  13
ATOM     13  C   UNL     1       3.760   6.676  17.758  0.00  0.00    +0.000 C 
BRANCH  13  18
ATOM     14  C   UNL     1       4.319   2.305  19.968  0.00  0.00    +0.000 C 
ATOM     15  N   UNL     1       3.709   3.390  19.212  0.00  0.00    +0.000 N 
ATOM     16  C   UNL     1       2.465   3.376  18.608  0.00  0.00    +0.000 A 
ATOM     17  C   UNL     1       2.306   4.593  18.006  0.00  0.00    +0.000 A 
ATOM     18  N   UNL     1       3.459   5.320  18.258  0.00  0.00    +0.000 N 
ATOM     19  C   UNL     1       4.302   4.575  18.993  0.00  0.00    +0.000 A 
ENDBRANCH  13  18
ENDBRANCH  12  13
ENDBRANCH  11  12
ENDBRANCH   1  11
TORSDOF 6
ENDMDL
