MODEL 1
REMARK VINA RESULT:      -7.4      0.000      0.000
REMARK  Name = 
REMARK  3 active torsions:
REMARK  status: ('A' for Active; 'I' for Inactive)
REMARK    1  A    between atoms: C_1  and  C_2
REMARK    2  A    between atoms: C_2  and  N_3
REMARK    3  A    between atoms: C_12  and  C_14
REMARK                            x       y       z     vdW  Elec       q    Type
REMARK                         _______ _______ _______ _____ _____    ______ ____
ROOT
ATOM      1  N   UNL     1       2.237   5.391  19.594  0.00  0.00    +0.000 NA
ATOM      2  C   UNL     1       2.226   5.152  21.060  0.00  0.00    +0.000 C 
ATOM      3  C   UNL     1       2.106   3.671  21.432  0.00  0.00    +0.000 C 
ATOM      4  O   UNL     1       3.118   2.895  20.795  0.00  0.00    +0.000 OA
ATOM      5  C   UNL     1       3.008   3.047  19.374  0.00  0.00    +0.000 C 
ATOM      6  C   UNL     1       3.278   4.523  18.921  0.00  0.00    +0.000 C 
ATOM      7  C   UNL     1       4.737   4.931  19.286  0.00  0.00    +0.000 C 
ATOM      8  C   UNL     1       5.784   4.139  18.500  0.00  0.00    +0.000 C 
ATOM      9  N   UNL     1       5.542   4.243  17.062  0.00  0.00    +0.000 N 
ATOM     10  C   UNL     1       6.526   4.816  16.263  0.00  0.00    +0.000 C 
ATOM     11  O   UNL     1       7.602   5.181  16.743  0.00  0.00    +0.000 OA
ATOM     12  C   UNL     1       4.219   3.798  16.630  0.00  0.00    +0.000 C 
ATOM     13  C   UNL     1       3.123   4.574  17.370  0.00  0.00    +0.000 C 
ENDROOT
BRANCH  10  14
ATOM     14  C   UNL     1       6.271   4.954  14.763  0.00  0.00    +0.000 C 
ATOM     15  C   UNL     1       7.548   5.295  13.992  0.00  0.00    +0.000 C 
ATOM     16  C   UNL     1       7.275   4.833  12.571  0.00  0.00    +0.000 C 
ATOM     17  C   UNL     1       6.334   3.643  12.698  0.00  0.00    +0.000 C 
ATOM     18  C   UNL     1       5.828   3.628  14.139  0.00  0.00    +0.000 C 
ENDBRANCH  10  14
BRANCH   1  20
ATOM     19  C   UNL     1       1.734   7.726  20.388  0.00  0.00    +0.000 C 
ATOM     20  C   UNL     1       2.347   6.836  19.305  0.00  0.00    +0.000 C 
ENDBRANCH   1  20
TORSDOF 2
ENDMDL
MODEL 2
REMARK VINA RESULT:      -7.0      1.889      6.434
REMARK  Name = 
REMARK  3 active torsions:
REMARK  status: ('A' for Active; 'I' for Inactive)
REMARK    1  A    between atoms: C_1  and  C_2
REMARK    2  A    between atoms: C_2  and  N_3
REMARK    3  A    between atoms: C_12  and  C_14
REMARK                            x       y       z     vdW  Elec       q    Type
REMARK                         _______ _______ _______ _____ _____    ______ ____
ROOT
ATOM      1  N   UNL     1       6.915   4.552  17.133  0.00  0.00    +0.000 NA
ATOM      2  C   UNL     1       7.561   5.267  16.003  0.00  0.00    +0.000 C 
ATOM      3  C   UNL     1       6.934   4.944  14.643  0.00  0.00    +0.000 C 
ATOM      4  O   UNL     1       5.527   5.173  14.656  0.00  0.00    +0.000 OA
ATOM      5  C   UNL     1       4.923   4.363  15.671  0.00  0.00    +0.000 C 
ATOM      6  C   UNL     1       5.416   4.759  17.106  0.00  0.00    +0.000 C 
ATOM      7  C   UNL     1       5.000   6.226  17.423  0.00  0.00    +0.000 C 
ATOM      8  C   UNL     1       3.483   6.398  17.527  0.00  0.00    +0.000 C 
ATOM      9  N   UNL     1       2.919   5.460  18.496  0.00  0.00    +0.000 N 
ATOM     10  C   UNL     1       2.260   5.971  19.609  0.00  0.00    +0.000 C 
ATOM     11  O   UNL     1       2.104   7.186  19.753  0.00  0.00    +0.000 OA
ATOM     12  C   UNL     1       3.197   4.053  18.219  0.00  0.00    +0.000 C 
ATOM     13  C   UNL     1       4.708   3.812  18.124  0.00  0.00    +0.000 C 
ENDROOT
BRANCH  10  14
ATOM     14  C   UNL     1       1.691   4.998  20.641  0.00  0.00    +0.000 C 
ATOM     15  C   UNL     1       0.888   3.871  19.986  0.00  0.00    +0.000 C 
ATOM     16  C   UNL     1       0.904   2.745  21.005  0.00  0.00    +0.000 C 
ATOM     17  C   UNL     1       2.223   2.884  21.753  0.00  0.00    +0.000 C 
ATOM     18  C   UNL     1       2.799   4.251  21.387  0.00  0.00    +0.000 C 
ENDBRANCH  10  14
BRANCH   1  20
ATOM     19  C   UNL     1       7.878   6.392  18.555  0.00  0.00    +0.000 C 
ATOM     20  C   UNL     1       7.572   4.901  18.410  0.00  0.00    +0.000 C 
ENDBRANCH   1  20
TORSDOF 2
ENDMDL
MODEL 3
REMARK VINA RESULT:      -7.0      2.520      7.097
REMARK  Name = 
REMARK  3 active torsions:
REMARK  status: ('A' for Active; 'I' for Inactive)
REMARK    1  A    between atoms: C_1  and  C_2
REMARK    2  A    between atoms: C_2  and  N_3
REMARK    3  A    between atoms: C_12  and  C_14
REMARK                            x       y       z     vdW  Elec       q    Type
REMARK                         _______ _______ _______ _____ _____    ______ ____
ROOT
ATOM      1  N   UNL     1       5.820   4.779  18.512  0.00  0.00    +0.000 NA
ATOM      2  C   UNL     1       6.424   4.588  17.168  0.00  0.00    +0.000 C 
ATOM      3  C   UNL     1       5.595   3.679  16.254  0.00  0.00    +0.000 C 
ATOM      4  O   UNL     1       4.250   4.142  16.150  0.00  0.00    +0.000 OA
ATOM      5  C   UNL     1       3.660   4.184  17.455  0.00  0.00    +0.000 C 
ATOM      6  C   UNL     1       4.378   5.219  18.389  0.00  0.00    +0.000 C 
ATOM      7  C   UNL     1       4.228   6.654  17.803  0.00  0.00    +0.000 C 
ATOM      8  C   UNL     1       2.778   7.144  17.807  0.00  0.00    +0.000 C 
ATOM      9  N   UNL     1       2.202   7.048  19.148  0.00  0.00    +0.000 N 
ATOM     10  C   UNL     1       1.767   8.215  19.768  0.00  0.00    +0.000 C 
ATOM     11  O   UNL     1       1.815   9.301  19.184  0.00  0.00    +0.000 OA
ATOM     12  C   UNL     1       2.229   5.710  19.733  0.00  0.00    +0.000 C 
ATOM     13  C   UNL     1       3.665   5.172  19.776  0.00  0.00    +0.000 C 
ENDROOT
BRANCH  10  14
ATOM     14  C   UNL     1       1.189   8.130  21.179  0.00  0.00    +0.000 C 
ATOM     15  C   UNL     1       1.694   9.262  22.077  0.00  0.00    +0.000 C 
ATOM     16  C   UNL     1       0.646   9.385  23.169  0.00  0.00    +0.000 C 
ATOM     17  C   UNL     1      -0.672   8.979  22.524  0.00  0.00    +0.000 C 
ATOM     18  C   UNL     1      -0.329   8.332  21.183  0.00  0.00    +0.000 C 
ENDBRANCH  10  14
BRANCH   1  20
ATOM     19  C   UNL     1       7.790   6.347  18.559  0.00  0.00    +0.000 C 
ATOM     20  C   UNL     1       6.673   5.655  19.342  0.00  0.00    +0.000 C 
ENDBRANCH   1  20
TORSDOF 2
ENDMDL
MODEL 4
REMARK VINA RESULT:      -6.8      4.635      7.381
REMARK  Name = 
REMARK  3 active torsions:
REMARK  status: ('A' for Active; 'I' for Inactive)
REMARK    1  A    between atoms: C_1  and  C_2
REMARK    2  A    between atoms: C_2  and  N_3
REMARK    3  A    between atoms: C_12  and  C_14
REMARK                            x       y       z     vdW  Elec       q    Type
REMARK                         _______ _______ _______ _____ _____    ______ ____
ROOT
ATOM      1  N   UNL     1      -1.118  10.771  19.001  0.00  0.00    +0.000 NA
ATOM      2  C   UNL     1      -1.009  11.950  18.104  0.00  0.00    +0.000 C 
ATOM      3  C   UNL     1      -0.000  12.994  18.594  0.00  0.00    +0.000 C 
ATOM      4  O   UNL     1       1.278  12.407  18.825  0.00  0.00    +0.000 OA
ATOM      5  C   UNL     1       1.152  11.363  19.798  0.00  0.00    +0.000 C 
ATOM      6  C   UNL     1       0.249  10.189  19.282  0.00  0.00    +0.000 C 
ATOM      7  C   UNL     1       0.899   9.532  18.028  0.00  0.00    +0.000 C 
ATOM      8  C   UNL     1       2.220   8.828  18.350  0.00  0.00    +0.000 C 
ATOM      9  N   UNL     1       2.041   7.860  19.431  0.00  0.00    +0.000 N 
ATOM     10  C   UNL     1       2.301   6.518  19.169  0.00  0.00    +0.000 C 
ATOM     11  O   UNL     1       2.725   6.155  18.069  0.00  0.00    +0.000 OA
ATOM     12  C   UNL     1       1.512   8.418  20.672  0.00  0.00    +0.000 C 
ATOM     13  C   UNL     1       0.173   9.121  20.417  0.00  0.00    +0.000 C 
ENDROOT
BRANCH  10  14
ATOM     14  C   UNL     1       2.092   5.495  20.285  0.00  0.00    +0.000 C 
ATOM     15  C   UNL     1       0.868   4.612  20.031  0.00  0.00    +0.000 C 
ATOM     16  C   UNL     1       1.126   3.354  20.843  0.00  0.00    +0.000 C 
ATOM     17  C   UNL     1       2.639   3.182  20.867  0.00  0.00    +0.000 C 
ATOM     18  C   UNL     1       3.243   4.488  20.353  0.00  0.00    +0.000 C 
ENDBRANCH  10  14
BRANCH   1  20
ATOM     19  C   UNL     1      -2.592  10.139  17.061  0.00  0.00    +0.000 C 
ATOM     20  C   UNL     1      -2.111   9.812  18.475  0.00  0.00    +0.000 C 
ENDBRANCH   1  20
TORSDOF 2
ENDMDL
MODEL 5
REMARK VINA RESULT:      -6.7      3.549      7.072
REMARK  Name = 
REMARK  3 active torsions:
REMARK  status: ('A' for Active; 'I' for Inactive)
REMARK    1  A    between atoms: C_1  and  C_2
REMARK    2  A    between atoms: C_2  and  N_3
REMARK    3  A    between atoms: C_12  and  C_14
REMARK                            x       y       z     vdW  Elec       q    Type
REMARK                         _______ _______ _______ _____ _____    ______ ____
ROOT
ATOM      1  N   UNL     1       2.727   4.583  18.055  0.00  0.00    +0.000 NA
ATOM      2  C   UNL     1       3.432   3.611  18.929  0.00  0.00    +0.000 C 
ATOM      3  C   UNL     1       4.886   3.999  19.220  0.00  0.00    +0.000 C 
ATOM      4  O   UNL     1       4.971   5.320  19.750  0.00  0.00    +0.000 OA
ATOM      5  C   UNL     1       4.402   6.244  18.815  0.00  0.00    +0.000 C 
ATOM      6  C   UNL     1       2.870   5.988  18.598  0.00  0.00    +0.000 C 
ATOM      7  C   UNL     1       2.103   6.202  19.937  0.00  0.00    +0.000 C 
ATOM      8  C   UNL     1       2.139   7.657  20.410  0.00  0.00    +0.000 C 
ATOM      9  N   UNL     1       1.654   8.556  19.364  0.00  0.00    +0.000 N 
ATOM     10  C   UNL     1       0.525   9.327  19.623  0.00  0.00    +0.000 C 
ATOM     11  O   UNL     1      -0.026   9.298  20.726  0.00  0.00    +0.000 OA
ATOM     12  C   UNL     1       2.380   8.473  18.100  0.00  0.00    +0.000 C 
ATOM     13  C   UNL     1       2.361   7.037  17.562  0.00  0.00    +0.000 C 
ENDROOT
BRANCH  10  14
ATOM     14  C   UNL     1      -0.006  10.249  18.526  0.00  0.00    +0.000 C 
ATOM     15  C   UNL     1      -1.514  10.089  18.321  0.00  0.00    +0.000 C 
ATOM     16  C   UNL     1      -1.957  11.395  17.684  0.00  0.00    +0.000 C 
ATOM     17  C   UNL     1      -1.013  12.459  18.226  0.00  0.00    +0.000 C 
ATOM     18  C   UNL     1       0.142  11.725  18.906  0.00  0.00    +0.000 C 
ENDBRANCH  10  14
BRANCH   1  20
ATOM     19  C   UNL     1       0.947   2.882  18.577  0.00  0.00    +0.000 C 
ATOM     20  C   UNL     1       1.338   4.146  17.809  0.00  0.00    +0.000 C 
ENDBRANCH   1  20
TORSDOF 2
ENDMDL
MODEL 6
REMARK VINA RESULT:      -6.3      2.532      6.837
REMARK  Name = 
REMARK  3 active torsions:
REMARK  status: ('A' for Active; 'I' for Inactive)
REMARK    1  A    between atoms: C_1  and  C_2
REMARK    2  A    between atoms: C_2  and  N_3
REMARK    3  A    between atoms: C_12  and  C_14
REMARK                            x       y       z     vdW  Elec       q    Type
REMARK                         _______ _______ _______ _____ _____    ______ ____
ROOT
ATOM      1  N   UNL     1       5.970   4.799  18.321  0.00  0.00    +0.000 NA
ATOM      2  C   UNL     1       6.898   4.604  17.178  0.00  0.00    +0.000 C 
ATOM      3  C   UNL     1       6.278   3.814  16.021  0.00  0.00    +0.000 C 
ATOM      4  O   UNL     1       5.053   4.404  15.591  0.00  0.00    +0.000 OA
ATOM      5  C   UNL     1       4.137   4.451  16.691  0.00  0.00    +0.000 C 
ATOM      6  C   UNL     1       4.654   5.376  17.846  0.00  0.00    +0.000 C 
ATOM      7  C   UNL     1       4.784   6.841  17.332  0.00  0.00    +0.000 C 
ATOM      8  C   UNL     1       3.431   7.464  16.980  0.00  0.00    +0.000 C 
ATOM      9  N   UNL     1       2.508   7.371  18.110  0.00  0.00    +0.000 N 
ATOM     10  C   UNL     1       2.016   8.549  18.663  0.00  0.00    +0.000 C 
ATOM     11  O   UNL     1       2.307   9.648  18.182  0.00  0.00    +0.000 OA
ATOM     12  C   UNL     1       2.269   6.015  18.596  0.00  0.00    +0.000 C 
ATOM     13  C   UNL     1       3.591   5.344  18.987  0.00  0.00    +0.000 C 
ENDROOT
BRANCH  10  14
ATOM     14  C   UNL     1       1.071   8.464  19.861  0.00  0.00    +0.000 C 
ATOM     15  C   UNL     1       1.828   8.489  21.192  0.00  0.00    +0.000 C 
ATOM     16  C   UNL     1       0.806   8.976  22.205  0.00  0.00    +0.000 C 
ATOM     17  C   UNL     1      -0.130   9.899  21.438  0.00  0.00    +0.000 C 
ATOM     18  C   UNL     1       0.160   9.690  19.952  0.00  0.00    +0.000 C 
ENDBRANCH  10  14
BRANCH   1  20
ATOM     19  C   UNL     1       7.975   6.165  18.992  0.00  0.00    +0.000 C 
ATOM     20  C   UNL     1       6.632   5.559  19.402  0.00  0.00    +0.000 C 
ENDBRANCH   1  20
TORSDOF 2
ENDMDL
MODEL 7
REMARK VINA RESULT:      -6.1      8.775     11.342
REMARK  Name = 
REMARK  3 active torsions:
REMARK  status: ('A' for Active; 'I' for Inactive)
REMARK    1  A    between atoms: C_1  and  C_2
REMARK    2  A    between atoms: C_2  and  N_3
REMARK    3  A    between atoms: C_12  and  C_14
REMARK                            x       y       z     vdW  Elec       q    Type
REMARK                         _______ _______ _______ _____ _____    ______ ____
ROOT
ATOM      1  N   UNL     1       9.859  11.486  18.442  0.00  0.00    +0.000 NA
ATOM      2  C   UNL     1      11.223  11.499  19.029  0.00  0.00    +0.000 C 
ATOM      3  C   UNL     1      12.159  12.515  18.368  0.00  0.00    +0.000 C 
ATOM      4  O   UNL     1      11.588  13.822  18.373  0.00  0.00    +0.000 OA
ATOM      5  C   UNL     1      10.335  13.794  17.678  0.00  0.00    +0.000 C 
ATOM      6  C   UNL     1       9.284  12.885  18.403  0.00  0.00    +0.000 C 
ATOM      7  C   UNL     1       8.978  13.455  19.820  0.00  0.00    +0.000 C 
ATOM      8  C   UNL     1       8.273  14.813  19.769  0.00  0.00    +0.000 C 
ATOM      9  N   UNL     1       7.065  14.739  18.948  0.00  0.00    +0.000 N 
ATOM     10  C   UNL     1       5.839  15.012  19.545  0.00  0.00    +0.000 C 
ATOM     11  O   UNL     1       5.771  15.360  20.727  0.00  0.00    +0.000 OA
ATOM     12  C   UNL     1       7.284  14.291  17.575  0.00  0.00    +0.000 C 
ATOM     13  C   UNL     1       7.971  12.920  17.561  0.00  0.00    +0.000 C 
ENDROOT
BRANCH  10  14
ATOM     14  C   UNL     1       4.569  14.912  18.702  0.00  0.00    +0.000 C 
ATOM     15  C   UNL     1       3.377  14.402  19.516  0.00  0.00    +0.000 C 
ATOM     16  C   UNL     1       2.155  14.899  18.763  0.00  0.00    +0.000 C 
ATOM     17  C   UNL     1       2.578  16.205  18.106  0.00  0.00    +0.000 C 
ATOM     18  C   UNL     1       4.100  16.287  18.218  0.00  0.00    +0.000 C 
ENDBRANCH  10  14
BRANCH   1  20
ATOM     19  C   UNL     1       8.496   9.386  18.184  0.00  0.00    +0.000 C 
ATOM     20  C   UNL     1       9.014  10.480  19.118  0.00  0.00    +0.000 C 
ENDBRANCH   1  20
TORSDOF 2
ENDMDL
MODEL 8
REMARK VINA RESULT:      -6.0      2.481      3.316
REMARK  Name = 
REMARK  3 active torsions:
REMARK  status: ('A' for Active; 'I' for Inactive)
REMARK    1  A    between atoms: C_1  and  C_2
REMARK    2  A    between atoms: C_2  and  N_3
REMARK    3  A    between atoms: C_12  and  C_14
REMARK                            x       y       z     vdW  Elec       q    Type
REMARK                         _______ _______ _______ _____ _____    ______ ____
ROOT
ATOM      1  N   UNL     1       1.716   4.746  19.493  0.00  0.00    +0.000 NA
ATOM      2  C   UNL     1       1.036   3.501  19.933  0.00  0.00    +0.000 C 
ATOM      3  C   UNL     1       0.628   2.589  18.771  0.00  0.00    +0.000 C 
ATOM      4  O   UNL     1       1.743   2.293  17.932  0.00  0.00    +0.000 OA
ATOM      5  C   UNL     1       2.288   3.515  17.419  0.00  0.00    +0.000 C 
ATOM      6  C   UNL     1       2.864   4.423  18.561  0.00  0.00    +0.000 C 
ATOM      7  C   UNL     1       4.040   3.694  19.275  0.00  0.00    +0.000 C 
ATOM      8  C   UNL     1       5.251   3.492  18.360  0.00  0.00    +0.000 C 
ATOM      9  N   UNL     1       5.680   4.763  17.781  0.00  0.00    +0.000 N 
ATOM     10  C   UNL     1       6.964   5.220  18.062  0.00  0.00    +0.000 C 
ATOM     11  O   UNL     1       7.745   4.547  18.740  0.00  0.00    +0.000 OA
ATOM     12  C   UNL     1       4.652   5.469  17.021  0.00  0.00    +0.000 C 
ATOM     13  C   UNL     1       3.417   5.721  17.894  0.00  0.00    +0.000 C 
ENDROOT
BRANCH  10  14
ATOM     14  C   UNL     1       7.413   6.561  17.482  0.00  0.00    +0.000 C 
ATOM     15  C   UNL     1       6.257   7.559  17.380  0.00  0.00    +0.000 C 
ATOM     16  C   UNL     1       6.926   8.923  17.364  0.00  0.00    +0.000 C 
ATOM     17  C   UNL     1       8.195   8.769  18.190  0.00  0.00    +0.000 C 
ATOM     18  C   UNL     1       8.409   7.271  18.404  0.00  0.00    +0.000 C 
ENDBRANCH  10  14
BRANCH   1  20
ATOM     19  C   UNL     1       1.421   6.964  20.645  0.00  0.00    +0.000 C 
ATOM     20  C   UNL     1       2.073   5.580  20.658  0.00  0.00    +0.000 C 
ENDBRANCH   1  20
TORSDOF 2
ENDMDL
MODEL 9
REMARK VINA RESULT:      -6.0      2.399      3.916
REMARK  Name = 
REMARK  3 active torsions:
REMARK  status: ('A' for Active; 'I' for Inactive)
REMARK    1  A    between atoms: C_1  and  C_2
REMARK    2  A    between atoms: C_2  and  N_3
REMARK    3  A    between atoms: C_12  and  C_14
REMARK                            x       y       z     vdW  Elec       q    Type
REMARK                         _______ _______ _______ _____ _____    ______ ____
ROOT
ATOM      1  N   UNL     1       3.139   2.627  19.496  0.00  0.00    +0.000 NA
ATOM      2  C   UNL     1       1.940   1.852  19.086  0.00  0.00    +0.000 C 
ATOM      3  C   UNL     1       0.711   2.729  18.824  0.00  0.00    +0.000 C 
ATOM      4  O   UNL     1       1.003   3.758  17.880  0.00  0.00    +0.000 OA
ATOM      5  C   UNL     1       2.077   4.566  18.377  0.00  0.00    +0.000 C 
ATOM      6  C   UNL     1       3.408   3.748  18.517  0.00  0.00    +0.000 C 
ATOM      7  C   UNL     1       3.865   3.237  17.118  0.00  0.00    +0.000 C 
ATOM      8  C   UNL     1       4.265   4.376  16.177  0.00  0.00    +0.000 C 
ATOM      9  N   UNL     1       5.279   5.228  16.795  0.00  0.00    +0.000 N 
ATOM     10  C   UNL     1       6.520   5.338  16.175  0.00  0.00    +0.000 C 
ATOM     11  O   UNL     1       6.747   4.775  15.101  0.00  0.00    +0.000 OA
ATOM     12  C   UNL     1       4.890   5.815  18.075  0.00  0.00    +0.000 C 
ATOM     13  C   UNL     1       4.498   4.717  19.071  0.00  0.00    +0.000 C 
ENDROOT
BRANCH  10  14
ATOM     14  C   UNL     1       7.596   6.205  16.828  0.00  0.00    +0.000 C 
ATOM     15  C   UNL     1       7.159   7.667  16.952  0.00  0.00    +0.000 C 
ATOM     16  C   UNL     1       8.010   8.229  18.077  0.00  0.00    +0.000 C 
ATOM     17  C   UNL     1       8.275   7.062  19.017  0.00  0.00    +0.000 C 
ATOM     18  C   UNL     1       7.853   5.792  18.280  0.00  0.00    +0.000 C 
ENDBRANCH  10  14
BRANCH   1  20
ATOM     19  C   UNL     1       4.679   1.620  21.213  0.00  0.00    +0.000 C 
ATOM     20  C   UNL     1       4.281   1.722  19.740  0.00  0.00    +0.000 C 
ENDBRANCH   1  20
TORSDOF 2
ENDMDL
