MODEL 1
REMARK VINA RESULT:      -8.0      0.000      0.000
REMARK  Name = 
REMARK  11 active torsions:
REMARK  status: ('A' for Active; 'I' for Inactive)
REMARK    1  A    between atoms: C_1  and  O_2
REMARK    2  A    between atoms: O_2  and  C_3
REMARK    3  A    between atoms: C_8  and  C_9
REMARK    4  A    between atoms: N_11  and  C_12
REMARK    5  A    between atoms: C_13  and  C_14
REMARK    6  A    between atoms: C_13  and  C_15
REMARK    7  A    between atoms: C_19  and  C_20
REMARK    8  A    between atoms: C_22  and  C_23
REMARK    9  A    between atoms: N_24  and  C_25
REMARK   10  A    between atoms: C_25  and  C_26
REMARK   11  A    between atoms: C_26  and  N_27
REMARK                            x       y       z     vdW  Elec       q    Type
REMARK                         _______ _______ _______ _____ _____    ______ ____
ROOT
ATOM      1  C   UNL     1      -0.817  11.703  21.347  0.00  0.00    +0.000 A 
ATOM      2  C   UNL     1      -1.233  11.444  22.664  0.00  0.00    +0.000 A 
ATOM      3  C   UNL     1      -0.894  10.270  23.313  0.00  0.00    +0.000 A 
ATOM      4  C   UNL     1      -0.116   9.314  22.668  0.00  0.00    +0.000 A 
ATOM      5  C   UNL     1       0.287   9.503  21.325  0.00  0.00    +0.000 A 
ATOM      6  C   UNL     1       1.081   8.722  20.420  0.00  0.00    +0.000 A 
ATOM      7  C   UNL     1       1.025   9.364  19.191  0.00  0.00    +0.000 A 
ATOM      8  C   UNL     1       1.537   8.825  17.892  0.00  0.00    +0.000 C 
ATOM      9  N   UNL     1       0.426  10.603  19.379  0.00  0.00    +0.000 N 
ATOM     10  C   UNL     1      -0.086  10.687  20.674  0.00  0.00    +0.000 A 
ENDROOT
BRANCH   6  11
ATOM     11  C   UNL     1       1.812   7.473  20.660  0.00  0.00    +0.000 C 
ATOM     12  O   UNL     1       1.992   7.006  21.790  0.00  0.00    +0.000 OA
ATOM     13  N   UNL     1       2.329   6.884  19.543  0.00  0.00    +0.000 N 
ATOM     14  H   UNL     1       2.305   7.448  18.706  0.00  0.00    +0.000 HD
BRANCH  13  15
ATOM     15  C   UNL     1       3.164   5.704  19.583  0.00  0.00    +0.000 C 
ATOM     16  C   UNL     1       4.189   5.563  18.392  0.00  0.00    +0.000 C 
ATOM     17  C   UNL     1       4.181   6.672  17.330  0.00  0.00    +0.000 C 
ATOM     18  C   UNL     1       5.629   5.499  18.953  0.00  0.00    +0.000 C 
ATOM     19  C   UNL     1       3.763   4.186  17.792  0.00  0.00    +0.000 C 
ATOM     20  C   UNL     1       2.384   4.277  17.098  0.00  0.00    +0.000 C 
ATOM     21  C   UNL     1       1.404   4.388  18.271  0.00  0.00    +0.000 C 
ATOM     22  C   UNL     1       2.340   4.378  19.499  0.00  0.00    +0.000 C 
ATOM     23  C   UNL     1       1.654   3.982  20.792  0.00  0.00    +0.000 C 
ATOM     24  C   UNL     1       3.398   3.369  19.033  0.00  0.00    +0.000 C 
ENDBRANCH  13  15
ENDBRANCH   6  11
BRANCH   1  26
ATOM     25  C   UNL     1      -0.355  14.013  21.111  0.00  0.00    +0.000 C 
ATOM     26  O   UNL     1      -1.127  12.881  20.706  0.00  0.00    +0.000 OA
ENDBRANCH   1  26
BRANCH   9  27
ATOM     27  C   UNL     1       0.277  11.655  18.381  0.00  0.00    +0.000 C 
BRANCH  27  28
ATOM     28  C   UNL     1      -1.131  11.764  17.747  0.00  0.00    +0.000 C 
BRANCH  28  29
ATOM     29  N   UNL     1      -2.040  10.608  17.914  0.00  0.00    +0.000 NA
ATOM     30  C   UNL     1      -3.427  10.997  18.187  0.00  0.00    +0.000 C 
ATOM     31  C   UNL     1      -4.113  11.681  17.015  0.00  0.00    +0.000 C 
ATOM     32  C   UNL     1      -4.090  10.782  15.792  0.00  0.00    +0.000 C 
ATOM     33  C   UNL     1      -2.678  10.281  15.498  0.00  0.00    +0.000 C 
ATOM     34  C   UNL     1      -2.000   9.705  16.749  0.00  0.00    +0.000 C 
ENDBRANCH  28  29
ENDBRANCH  27  28
ENDBRANCH   9  27
TORSDOF 6
ENDMDL
MODEL 2
REMARK VINA RESULT:      -8.0      3.757      8.876
REMARK  Name = 
REMARK  11 active torsions:
REMARK  status: ('A' for Active; 'I' for Inactive)
REMARK    1  A    between atoms: C_1  and  O_2
REMARK    2  A    between atoms: O_2  and  C_3
REMARK    3  A    between atoms: C_8  and  C_9
REMARK    4  A    between atoms: N_11  and  C_12
REMARK    5  A    between atoms: C_13  and  C_14
REMARK    6  A    between atoms: C_13  and  C_15
REMARK    7  A    between atoms: C_19  and  C_20
REMARK    8  A    between atoms: C_22  and  C_23
REMARK    9  A    between atoms: N_24  and  C_25
REMARK   10  A    between atoms: C_25  and  C_26
REMARK   11  A    between atoms: C_26  and  N_27
REMARK                            x       y       z     vdW  Elec       q    Type
REMARK                         _______ _______ _______ _____ _____    ______ ____
ROOT
ATOM      1  C   UNL     1       0.548  10.383  20.824  0.00  0.00    +0.000 A 
ATOM      2  C   UNL     1       0.866   9.473  21.847  0.00  0.00    +0.000 A 
ATOM      3  C   UNL     1       0.168   9.454  23.042  0.00  0.00    +0.000 A 
ATOM      4  C   UNL     1      -0.882  10.342  23.253  0.00  0.00    +0.000 A 
ATOM      5  C   UNL     1      -1.210  11.311  22.276  0.00  0.00    +0.000 A 
ATOM      6  C   UNL     1      -2.219  12.328  22.204  0.00  0.00    +0.000 A 
ATOM      7  C   UNL     1      -1.966  13.056  21.050  0.00  0.00    +0.000 A 
ATOM      8  C   UNL     1      -2.633  14.334  20.650  0.00  0.00    +0.000 C 
ATOM      9  N   UNL     1      -0.997  12.380  20.319  0.00  0.00    +0.000 N 
ATOM     10  C   UNL     1      -0.477  11.333  21.081  0.00  0.00    +0.000 A 
ENDROOT
BRANCH   6  11
ATOM     11  C   UNL     1      -3.315  12.623  23.134  0.00  0.00    +0.000 C 
ATOM     12  O   UNL     1      -3.689  11.830  24.006  0.00  0.00    +0.000 OA
ATOM     13  N   UNL     1      -3.932  13.824  22.936  0.00  0.00    +0.000 N 
ATOM     14  H   UNL     1      -3.691  14.298  22.078  0.00  0.00    +0.000 HD
BRANCH  13  15
ATOM     15  C   UNL     1      -5.094  14.251  23.684  0.00  0.00    +0.000 C 
ATOM     16  C   UNL     1      -6.484  13.850  23.054  0.00  0.00    +0.000 C 
ATOM     17  C   UNL     1      -6.452  13.072  21.731  0.00  0.00    +0.000 C 
ATOM     18  C   UNL     1      -7.276  12.981  24.059  0.00  0.00    +0.000 C 
ATOM     19  C   UNL     1      -7.151  15.252  22.883  0.00  0.00    +0.000 C 
ATOM     20  C   UNL     1      -6.454  16.074  21.774  0.00  0.00    +0.000 C 
ATOM     21  C   UNL     1      -5.120  16.473  22.414  0.00  0.00    +0.000 C 
ATOM     22  C   UNL     1      -5.197  15.806  23.805  0.00  0.00    +0.000 C 
ATOM     23  C   UNL     1      -4.265  16.419  24.833  0.00  0.00    +0.000 C 
ATOM     24  C   UNL     1      -6.683  16.008  24.127  0.00  0.00    +0.000 C 
ENDBRANCH  13  15
ENDBRANCH   6  11
BRANCH   1  26
ATOM     25  C   UNL     1       1.339   9.113  18.991  0.00  0.00    +0.000 C 
ATOM     26  O   UNL     1       1.220  10.388  19.623  0.00  0.00    +0.000 OA
ENDBRANCH   1  26
BRANCH   9  27
ATOM     27  C   UNL     1      -0.520  12.721  18.985  0.00  0.00    +0.000 C 
BRANCH  27  28
ATOM     28  C   UNL     1      -1.370  12.158  17.820  0.00  0.00    +0.000 C 
BRANCH  28  29
ATOM     29  N   UNL     1      -2.176  10.948  18.094  0.00  0.00    +0.000 NA
ATOM     30  C   UNL     1      -3.614  11.217  18.187  0.00  0.00    +0.000 C 
ATOM     31  C   UNL     1      -4.244  11.639  16.868  0.00  0.00    +0.000 C 
ATOM     32  C   UNL     1      -4.016  10.576  15.810  0.00  0.00    +0.000 C 
ATOM     33  C   UNL     1      -2.539  10.194  15.716  0.00  0.00    +0.000 C 
ATOM     34  C   UNL     1      -1.936   9.890  17.094  0.00  0.00    +0.000 C 
ENDBRANCH  28  29
ENDBRANCH  27  28
ENDBRANCH   9  27
TORSDOF 6
ENDMDL
MODEL 3
REMARK VINA RESULT:      -7.8      1.956      3.567
REMARK  Name = 
REMARK  11 active torsions:
REMARK  status: ('A' for Active; 'I' for Inactive)
REMARK    1  A    between atoms: C_1  and  O_2
REMARK    2  A    between atoms: O_2  and  C_3
REMARK    3  A    between atoms: C_8  and  C_9
REMARK    4  A    between atoms: N_11  and  C_12
REMARK    5  A    between atoms: C_13  and  C_14
REMARK    6  A    between atoms: C_13  and  C_15
REMARK    7  A    between atoms: C_19  and  C_20
REMARK    8  A    between atoms: C_22  and  C_23
REMARK    9  A    between atoms: N_24  and  C_25
REMARK   10  A    between atoms: C_25  and  C_26
REMARK   11  A    between atoms: C_26  and  N_27
REMARK                            x       y       z     vdW  Elec       q    Type
REMARK                         _______ _______ _______ _____ _____    ______ ____
ROOT
ATOM      1  C   UNL     1      -0.400  11.651  21.255  0.00  0.00    +0.000 A 
ATOM      2  C   UNL     1      -0.984  11.359  22.500  0.00  0.00    +0.000 A 
ATOM      3  C   UNL     1      -0.846  10.115  23.092  0.00  0.00    +0.000 A 
ATOM      4  C   UNL     1      -0.109   9.118  22.460  0.00  0.00    +0.000 A 
ATOM      5  C   UNL     1       0.456   9.344  21.183  0.00  0.00    +0.000 A 
ATOM      6  C   UNL     1       1.255   8.535  20.307  0.00  0.00    +0.000 A 
ATOM      7  C   UNL     1       1.404   9.254  19.130  0.00  0.00    +0.000 A 
ATOM      8  C   UNL     1       1.994   8.742  17.854  0.00  0.00    +0.000 C 
ATOM      9  N   UNL     1       0.925  10.540  19.348  0.00  0.00    +0.000 N 
ATOM     10  C   UNL     1       0.286  10.601  20.587  0.00  0.00    +0.000 A 
ENDROOT
BRANCH   6  11
ATOM     11  C   UNL     1       1.817   7.198  20.527  0.00  0.00    +0.000 C 
ATOM     12  O   UNL     1       1.684   6.578  21.589  0.00  0.00    +0.000 OA
ATOM     13  N   UNL     1       2.547   6.701  19.486  0.00  0.00    +0.000 N 
ATOM     14  H   UNL     1       2.767   7.364  18.757  0.00  0.00    +0.000 HD
BRANCH  13  15
ATOM     15  C   UNL     1       3.263   5.446  19.548  0.00  0.00    +0.000 C 
ATOM     16  C   UNL     1       4.445   5.293  18.514  0.00  0.00    +0.000 C 
ATOM     17  C   UNL     1       4.696   6.471  17.562  0.00  0.00    +0.000 C 
ATOM     18  C   UNL     1       5.769   5.049  19.275  0.00  0.00    +0.000 C 
ATOM     19  C   UNL     1       4.002   4.011  17.740  0.00  0.00    +0.000 C 
ATOM     20  C   UNL     1       2.761   4.285  16.860  0.00  0.00    +0.000 C 
ATOM     21  C   UNL     1       1.623   4.406  17.880  0.00  0.00    +0.000 C 
ATOM     22  C   UNL     1       2.353   4.215  19.228  0.00  0.00    +0.000 C 
ATOM     23  C   UNL     1       1.442   3.795  20.366  0.00  0.00    +0.000 C 
ATOM     24  C   UNL     1       3.380   3.145  18.838  0.00  0.00    +0.000 C 
ENDBRANCH  13  15
ENDBRANCH   6  11
BRANCH   1  26
ATOM     25  C   UNL     1      -1.838  13.280  20.318  0.00  0.00    +0.000 C 
ATOM     26  O   UNL     1      -0.510  12.894  20.676  0.00  0.00    +0.000 OA
ENDBRANCH   1  26
BRANCH   9  27
ATOM     27  C   UNL     1       1.000  11.662  18.422  0.00  0.00    +0.000 C 
BRANCH  27  28
ATOM     28  C   UNL     1       2.286  12.518  18.529  0.00  0.00    +0.000 C 
BRANCH  28  29
ATOM     29  N   UNL     1       2.115  13.975  18.717  0.00  0.00    +0.000 NA
ATOM     30  C   UNL     1       2.291  14.406  20.108  0.00  0.00    +0.000 C 
ATOM     31  C   UNL     1       3.715  14.257  20.619  0.00  0.00    +0.000 C 
ATOM     32  C   UNL     1       4.676  15.040  19.743  0.00  0.00    +0.000 C 
ATOM     33  C   UNL     1       4.490  14.691  18.267  0.00  0.00    +0.000 C 
ATOM     34  C   UNL     1       3.016  14.751  17.843  0.00  0.00    +0.000 C 
ENDBRANCH  28  29
ENDBRANCH  27  28
ENDBRANCH   9  27
TORSDOF 6
ENDMDL
MODEL 4
REMARK VINA RESULT:      -7.7      1.178      1.516
REMARK  Name = 
REMARK  11 active torsions:
REMARK  status: ('A' for Active; 'I' for Inactive)
REMARK    1  A    between atoms: C_1  and  O_2
REMARK    2  A    between atoms: O_2  and  C_3
REMARK    3  A    between atoms: C_8  and  C_9
REMARK    4  A    between atoms: N_11  and  C_12
REMARK    5  A    between atoms: C_13  and  C_14
REMARK    6  A    between atoms: C_13  and  C_15
REMARK    7  A    between atoms: C_19  and  C_20
REMARK    8  A    between atoms: C_22  and  C_23
REMARK    9  A    between atoms: N_24  and  C_25
REMARK   10  A    between atoms: C_25  and  C_26
REMARK   11  A    between atoms: C_26  and  N_27
REMARK                            x       y       z     vdW  Elec       q    Type
REMARK                         _______ _______ _______ _____ _____    ______ ____
ROOT
ATOM      1  C   UNL     1      -0.447  10.806  21.659  0.00  0.00    +0.000 A 
ATOM      2  C   UNL     1      -0.497  10.300  22.969  0.00  0.00    +0.000 A 
ATOM      3  C   UNL     1       0.131   9.115  23.312  0.00  0.00    +0.000 A 
ATOM      4  C   UNL     1       0.841   8.397  22.355  0.00  0.00    +0.000 A 
ATOM      5  C   UNL     1       0.880   8.837  21.010  0.00  0.00    +0.000 A 
ATOM      6  C   UNL     1       1.520   8.329  19.831  0.00  0.00    +0.000 A 
ATOM      7  C   UNL     1       1.089   9.120  18.776  0.00  0.00    +0.000 A 
ATOM      8  C   UNL     1       1.333   8.859  17.323  0.00  0.00    +0.000 C 
ATOM      9  N   UNL     1       0.406  10.209  19.304  0.00  0.00    +0.000 N 
ATOM     10  C   UNL     1       0.218  10.026  20.675  0.00  0.00    +0.000 A 
ENDROOT
BRANCH   6  11
ATOM     11  C   UNL     1       2.434   7.192  19.682  0.00  0.00    +0.000 C 
ATOM     12  O   UNL     1       3.608   7.317  19.313  0.00  0.00    +0.000 OA
ATOM     13  N   UNL     1       1.881   5.970  19.932  0.00  0.00    +0.000 N 
ATOM     14  H   UNL     1       0.876   5.961  20.020  0.00  0.00    +0.000 HD
BRANCH  13  15
ATOM     15  C   UNL     1       2.591   4.725  19.742  0.00  0.00    +0.000 C 
ATOM     16  C   UNL     1       2.568   4.152  18.272  0.00  0.00    +0.000 C 
ATOM     17  C   UNL     1       1.796   4.962  17.220  0.00  0.00    +0.000 C 
ATOM     18  C   UNL     1       4.016   4.014  17.747  0.00  0.00    +0.000 C 
ATOM     19  C   UNL     1       1.923   2.749  18.507  0.00  0.00    +0.000 C 
ATOM     20  C   UNL     1       0.430   2.873  18.891  0.00  0.00    +0.000 C 
ATOM     21  C   UNL     1       0.477   3.406  20.327  0.00  0.00    +0.000 C 
ATOM     22  C   UNL     1       1.993   3.553  20.587  0.00  0.00    +0.000 C 
ATOM     23  C   UNL     1       2.365   3.584  22.057  0.00  0.00    +0.000 C 
ATOM     24  C   UNL     1       2.521   2.318  19.847  0.00  0.00    +0.000 C 
ENDBRANCH  13  15
ENDBRANCH   6  11
BRANCH   1  26
ATOM     25  C   UNL     1      -0.516  13.151  21.974  0.00  0.00    +0.000 C 
ATOM     26  O   UNL     1      -1.046  11.998  21.318  0.00  0.00    +0.000 OA
ENDBRANCH   1  26
BRANCH   9  27
ATOM     27  C   UNL     1      -0.108  11.353  18.564  0.00  0.00    +0.000 C 
BRANCH  27  28
ATOM     28  C   UNL     1      -1.646  11.390  18.398  0.00  0.00    +0.000 C 
BRANCH  28  29
ATOM     29  N   UNL     1      -2.307  10.150  17.936  0.00  0.00    +0.000 NA
ATOM     30  C   UNL     1      -3.762  10.163  18.122  0.00  0.00    +0.000 C 
ATOM     31  C   UNL     1      -4.483  11.169  17.239  0.00  0.00    +0.000 C 
ATOM     32  C   UNL     1      -4.183  10.899  15.777  0.00  0.00    +0.000 C 
ATOM     33  C   UNL     1      -2.679  10.798  15.528  0.00  0.00    +0.000 C 
ATOM     34  C   UNL     1      -1.994   9.853  16.525  0.00  0.00    +0.000 C 
ENDBRANCH  28  29
ENDBRANCH  27  28
ENDBRANCH   9  27
TORSDOF 6
ENDMDL
MODEL 5
REMARK VINA RESULT:      -7.6      2.124      8.231
REMARK  Name = 
REMARK  11 active torsions:
REMARK  status: ('A' for Active; 'I' for Inactive)
REMARK    1  A    between atoms: C_1  and  O_2
REMARK    2  A    between atoms: O_2  and  C_3
REMARK    3  A    between atoms: C_8  and  C_9
REMARK    4  A    between atoms: N_11  and  C_12
REMARK    5  A    between atoms: C_13  and  C_14
REMARK    6  A    between atoms: C_13  and  C_15
REMARK    7  A    between atoms: C_19  and  C_20
REMARK    8  A    between atoms: C_22  and  C_23
REMARK    9  A    between atoms: N_24  and  C_25
REMARK   10  A    between atoms: C_25  and  C_26
REMARK   11  A    between atoms: C_26  and  N_27
REMARK                            x       y       z     vdW  Elec       q    Type
REMARK                         _______ _______ _______ _____ _____    ______ ____
ROOT
ATOM      1  C   UNL     1       2.258   2.905  19.061  0.00  0.00    +0.000 A 
ATOM      2  C   UNL     1       1.704   2.369  20.237  0.00  0.00    +0.000 A 
ATOM      3  C   UNL     1       1.318   3.180  21.290  0.00  0.00    +0.000 A 
ATOM      4  C   UNL     1       1.465   4.560  21.201  0.00  0.00    +0.000 A 
ATOM      5  C   UNL     1       2.064   5.146  20.060  0.00  0.00    +0.000 A 
ATOM      6  C   UNL     1       2.336   6.504  19.684  0.00  0.00    +0.000 A 
ATOM      7  C   UNL     1       3.058   6.449  18.500  0.00  0.00    +0.000 A 
ATOM      8  C   UNL     1       3.732   7.602  17.826  0.00  0.00    +0.000 C 
ATOM      9  N   UNL     1       3.031   5.138  18.040  0.00  0.00    +0.000 N 
ATOM     10  C   UNL     1       2.471   4.309  19.013  0.00  0.00    +0.000 A 
ENDROOT
BRANCH   6  11
ATOM     11  C   UNL     1       1.981   7.751  20.370  0.00  0.00    +0.000 C 
ATOM     12  O   UNL     1       2.091   7.901  21.592  0.00  0.00    +0.000 OA
ATOM     13  N   UNL     1       1.468   8.727  19.565  0.00  0.00    +0.000 N 
ATOM     14  H   UNL     1       1.228   8.433  18.630  0.00  0.00    +0.000 HD
BRANCH  13  15
ATOM     15  C   UNL     1       0.968   9.987  20.067  0.00  0.00    +0.000 C 
ATOM     16  C   UNL     1      -0.392   9.902  20.863  0.00  0.00    +0.000 C 
ATOM     17  C   UNL     1      -1.031   8.514  21.007  0.00  0.00    +0.000 C 
ATOM     18  C   UNL     1      -0.186  10.445  22.297  0.00  0.00    +0.000 C 
ATOM     19  C   UNL     1      -1.290  10.867  20.026  0.00  0.00    +0.000 C 
ATOM     20  C   UNL     1      -1.623  10.265  18.640  0.00  0.00    +0.000 C 
ATOM     21  C   UNL     1      -0.298  10.379  17.877  0.00  0.00    +0.000 C 
ATOM     22  C   UNL     1       0.646  11.007  18.926  0.00  0.00    +0.000 C 
ATOM     23  C   UNL     1       1.864  11.686  18.329  0.00  0.00    +0.000 C 
ATOM     24  C   UNL     1      -0.317  11.977  19.622  0.00  0.00    +0.000 C 
ENDBRANCH  13  15
ENDBRANCH   6  11
BRANCH   1  26
ATOM     25  C   UNL     1       3.771   1.292  18.217  0.00  0.00    +0.000 C 
ATOM     26  O   UNL     1       2.617   2.106  17.999  0.00  0.00    +0.000 OA
ENDBRANCH   1  26
BRANCH   9  27
ATOM     27  C   UNL     1       3.556   4.653  16.770  0.00  0.00    +0.000 C 
BRANCH  27  28
ATOM     28  C   UNL     1       4.867   5.328  16.301  0.00  0.00    +0.000 C 
BRANCH  28  29
ATOM     29  N   UNL     1       6.135   4.628  16.604  0.00  0.00    +0.000 NA
ATOM     30  C   UNL     1       7.326   5.417  16.278  0.00  0.00    +0.000 C 
ATOM     31  C   UNL     1       7.508   6.644  17.157  0.00  0.00    +0.000 C 
ATOM     32  C   UNL     1       7.577   6.240  18.619  0.00  0.00    +0.000 C 
ATOM     33  C   UNL     1       6.398   5.350  19.005  0.00  0.00    +0.000 C 
ATOM     34  C   UNL     1       6.201   4.195  18.013  0.00  0.00    +0.000 C 
ENDBRANCH  28  29
ENDBRANCH  27  28
ENDBRANCH   9  27
TORSDOF 6
ENDMDL
MODEL 6
REMARK VINA RESULT:      -7.6      2.716      4.543
REMARK  Name = 
REMARK  11 active torsions:
REMARK  status: ('A' for Active; 'I' for Inactive)
REMARK    1  A    between atoms: C_1  and  O_2
REMARK    2  A    between atoms: O_2  and  C_3
REMARK    3  A    between atoms: C_8  and  C_9
REMARK    4  A    between atoms: N_11  and  C_12
REMARK    5  A    between atoms: C_13  and  C_14
REMARK    6  A    between atoms: C_13  and  C_15
REMARK    7  A    between atoms: C_19  and  C_20
REMARK    8  A    between atoms: C_22  and  C_23
REMARK    9  A    between atoms: N_24  and  C_25
REMARK   10  A    between atoms: C_25  and  C_26
REMARK   11  A    between atoms: C_26  and  N_27
REMARK                            x       y       z     vdW  Elec       q    Type
REMARK                         _______ _______ _______ _____ _____    ______ ____
ROOT
ATOM      1  C   UNL     1      -0.033  10.817  22.249  0.00  0.00    +0.000 A 
ATOM      2  C   UNL     1      -0.614   9.673  22.824  0.00  0.00    +0.000 A 
ATOM      3  C   UNL     1      -0.522   8.432  22.218  0.00  0.00    +0.000 A 
ATOM      4  C   UNL     1       0.162   8.289  21.016  0.00  0.00    +0.000 A 
ATOM      5  C   UNL     1       0.721   9.417  20.369  0.00  0.00    +0.000 A 
ATOM      6  C   UNL     1       1.473   9.582  19.159  0.00  0.00    +0.000 A 
ATOM      7  C   UNL     1       1.638  10.947  18.978  0.00  0.00    +0.000 A 
ATOM      8  C   UNL     1       2.189  11.613  17.756  0.00  0.00    +0.000 C 
ATOM      9  N   UNL     1       1.218  11.589  20.136  0.00  0.00    +0.000 N 
ATOM     10  C   UNL     1       0.599  10.671  20.985  0.00  0.00    +0.000 A 
ENDROOT
BRANCH   6  11
ATOM     11  C   UNL     1       1.979   8.565  18.230  0.00  0.00    +0.000 C 
ATOM     12  O   UNL     1       2.132   8.775  17.021  0.00  0.00    +0.000 OA
ATOM     13  N   UNL     1       2.224   7.344  18.788  0.00  0.00    +0.000 N 
ATOM     14  H   UNL     1       1.873   7.220  19.726  0.00  0.00    +0.000 HD
BRANCH  13  15
ATOM     15  C   UNL     1       2.630   6.188  18.020  0.00  0.00    +0.000 C 
ATOM     16  C   UNL     1       2.169   4.797  18.603  0.00  0.00    +0.000 C 
ATOM     17  C   UNL     1       1.361   4.820  19.909  0.00  0.00    +0.000 C 
ATOM     18  C   UNL     1       1.299   4.060  17.558  0.00  0.00    +0.000 C 
ATOM     19  C   UNL     1       3.544   4.079  18.789  0.00  0.00    +0.000 C 
ATOM     20  C   UNL     1       4.362   4.719  19.935  0.00  0.00    +0.000 C 
ATOM     21  C   UNL     1       4.820   6.055  19.340  0.00  0.00    +0.000 C 
ATOM     22  C   UNL     1       4.184   6.037  17.932  0.00  0.00    +0.000 C 
ATOM     23  C   UNL     1       4.851   6.974  16.943  0.00  0.00    +0.000 C 
ATOM     24  C   UNL     1       4.345   4.554  17.575  0.00  0.00    +0.000 C 
ENDBRANCH  13  15
ENDBRANCH   6  11
BRANCH   1  26
ATOM     25  C   UNL     1      -1.410  12.595  22.987  0.00  0.00    +0.000 C 
ATOM     26  O   UNL     1      -0.096  12.048  22.861  0.00  0.00    +0.000 OA
ENDBRANCH   1  26
BRANCH   9  27
ATOM     27  C   UNL     1       1.330  13.012  20.429  0.00  0.00    +0.000 C 
BRANCH  27  28
ATOM     28  C   UNL     1       2.767  13.513  20.710  0.00  0.00    +0.000 C 
BRANCH  28  29
ATOM     29  N   UNL     1       3.004  14.972  20.627  0.00  0.00    +0.000 NA
ATOM     30  C   UNL     1       4.403  15.318  20.356  0.00  0.00    +0.000 C 
ATOM     31  C   UNL     1       4.876  14.913  18.969  0.00  0.00    +0.000 C 
ATOM     32  C   UNL     1       4.002  15.552  17.905  0.00  0.00    +0.000 C 
ATOM     33  C   UNL     1       2.521  15.290  18.173  0.00  0.00    +0.000 C 
ATOM     34  C   UNL     1       2.134  15.613  19.623  0.00  0.00    +0.000 C 
ENDBRANCH  28  29
ENDBRANCH  27  28
ENDBRANCH   9  27
TORSDOF 6
ENDMDL
MODEL 7
REMARK VINA RESULT:      -7.6      2.706      4.087
REMARK  Name = 
REMARK  11 active torsions:
REMARK  status: ('A' for Active; 'I' for Inactive)
REMARK    1  A    between atoms: C_1  and  O_2
REMARK    2  A    between atoms: O_2  and  C_3
REMARK    3  A    between atoms: C_8  and  C_9
REMARK    4  A    between atoms: N_11  and  C_12
REMARK    5  A    between atoms: C_13  and  C_14
REMARK    6  A    between atoms: C_13  and  C_15
REMARK    7  A    between atoms: C_19  and  C_20
REMARK    8  A    between atoms: C_22  and  C_23
REMARK    9  A    between atoms: N_24  and  C_25
REMARK   10  A    between atoms: C_25  and  C_26
REMARK   11  A    between atoms: C_26  and  N_27
REMARK                            x       y       z     vdW  Elec       q    Type
REMARK                         _______ _______ _______ _____ _____    ______ ____
ROOT
ATOM      1  C   UNL     1      -0.021  10.802  22.263  0.00  0.00    +0.000 A 
ATOM      2  C   UNL     1      -0.661   9.674  22.804  0.00  0.00    +0.000 A 
ATOM      3  C   UNL     1      -0.615   8.443  22.171  0.00  0.00    +0.000 A 
ATOM      4  C   UNL     1       0.080   8.296  20.976  0.00  0.00    +0.000 A 
ATOM      5  C   UNL     1       0.699   9.411  20.363  0.00  0.00    +0.000 A 
ATOM      6  C   UNL     1       1.476   9.568  19.167  0.00  0.00    +0.000 A 
ATOM      7  C   UNL     1       1.704  10.928  19.019  0.00  0.00    +0.000 A 
ATOM      8  C   UNL     1       2.303  11.595  17.821  0.00  0.00    +0.000 C 
ATOM      9  N   UNL     1       1.296  11.563  20.186  0.00  0.00    +0.000 N 
ATOM     10  C   UNL     1       0.623  10.655  21.005  0.00  0.00    +0.000 A 
ENDROOT
BRANCH   6  11
ATOM     11  C   UNL     1       1.950   8.550  18.223  0.00  0.00    +0.000 C 
ATOM     12  O   UNL     1       2.014   8.742  17.003  0.00  0.00    +0.000 OA
ATOM     13  N   UNL     1       2.271   7.348  18.784  0.00  0.00    +0.000 N 
ATOM     14  H   UNL     1       1.988   7.231  19.746  0.00  0.00    +0.000 HD
BRANCH  13  15
ATOM     15  C   UNL     1       2.660   6.191  18.009  0.00  0.00    +0.000 C 
ATOM     16  C   UNL     1       2.213   4.800  18.604  0.00  0.00    +0.000 C 
ATOM     17  C   UNL     1       1.432   4.825  19.927  0.00  0.00    +0.000 C 
ATOM     18  C   UNL     1       1.320   4.061  17.579  0.00  0.00    +0.000 C 
ATOM     19  C   UNL     1       3.591   4.083  18.762  0.00  0.00    +0.000 C 
ATOM     20  C   UNL     1       4.433   4.725  19.888  0.00  0.00    +0.000 C 
ATOM     21  C   UNL     1       4.878   6.061  19.282  0.00  0.00    +0.000 C 
ATOM     22  C   UNL     1       4.212   6.039  17.888  0.00  0.00    +0.000 C 
ATOM     23  C   UNL     1       4.858   6.975  16.883  0.00  0.00    +0.000 C 
ATOM     24  C   UNL     1       4.365   4.556  17.530  0.00  0.00    +0.000 C 
ENDBRANCH  13  15
ENDBRANCH   6  11
BRANCH   1  26
ATOM     25  C   UNL     1      -1.327  12.627  23.014  0.00  0.00    +0.000 C 
ATOM     26  O   UNL     1      -0.038  12.021  22.901  0.00  0.00    +0.000 OA
ENDBRANCH   1  26
BRANCH   9  27
ATOM     27  C   UNL     1       1.467  12.973  20.512  0.00  0.00    +0.000 C 
BRANCH  27  28
ATOM     28  C   UNL     1       0.396  13.919  19.918  0.00  0.00    +0.000 C 
BRANCH  28  29
ATOM     29  N   UNL     1       0.324  15.290  20.468  0.00  0.00    +0.000 NA
ATOM     30  C   UNL     1       1.594  16.019  20.378  0.00  0.00    +0.000 C 
ATOM     31  C   UNL     1       2.012  16.347  18.953  0.00  0.00    +0.000 C 
ATOM     32  C   UNL     1       0.933  17.161  18.261  0.00  0.00    +0.000 C 
ATOM     33  C   UNL     1      -0.434  16.490  18.384  0.00  0.00    +0.000 C 
ATOM     34  C   UNL     1      -0.745  16.083  19.832  0.00  0.00    +0.000 C 
ENDBRANCH  28  29
ENDBRANCH  27  28
ENDBRANCH   9  27
TORSDOF 6
ENDMDL
MODEL 8
REMARK VINA RESULT:      -7.4      2.691      4.667
REMARK  Name = 
REMARK  11 active torsions:
REMARK  status: ('A' for Active; 'I' for Inactive)
REMARK    1  A    between atoms: C_1  and  O_2
REMARK    2  A    between atoms: O_2  and  C_3
REMARK    3  A    between atoms: C_8  and  C_9
REMARK    4  A    between atoms: N_11  and  C_12
REMARK    5  A    between atoms: C_13  and  C_14
REMARK    6  A    between atoms: C_13  and  C_15
REMARK    7  A    between atoms: C_19  and  C_20
REMARK    8  A    between atoms: C_22  and  C_23
REMARK    9  A    between atoms: N_24  and  C_25
REMARK   10  A    between atoms: C_25  and  C_26
REMARK   11  A    between atoms: C_26  and  N_27
REMARK                            x       y       z     vdW  Elec       q    Type
REMARK                         _______ _______ _______ _____ _____    ______ ____
ROOT
ATOM      1  C   UNL     1      -0.042  10.814  22.259  0.00  0.00    +0.000 A 
ATOM      2  C   UNL     1      -0.595   9.666  22.852  0.00  0.00    +0.000 A 
ATOM      3  C   UNL     1      -0.491   8.421  22.256  0.00  0.00    +0.000 A 
ATOM      4  C   UNL     1       0.179   8.279  21.045  0.00  0.00    +0.000 A 
ATOM      5  C   UNL     1       0.710   9.410  20.381  0.00  0.00    +0.000 A 
ATOM      6  C   UNL     1       1.442   9.575  19.159  0.00  0.00    +0.000 A 
ATOM      7  C   UNL     1       1.581  10.942  18.963  0.00  0.00    +0.000 A 
ATOM      8  C   UNL     1       2.104  11.605  17.728  0.00  0.00    +0.000 C 
ATOM      9  N   UNL     1       1.167  11.587  20.121  0.00  0.00    +0.000 N 
ATOM     10  C   UNL     1       0.575  10.667  20.987  0.00  0.00    +0.000 A 
ENDROOT
BRANCH   6  11
ATOM     11  C   UNL     1       1.952   8.559  18.232  0.00  0.00    +0.000 C 
ATOM     12  O   UNL     1       2.100   8.765  17.022  0.00  0.00    +0.000 OA
ATOM     13  N   UNL     1       2.205   7.341  18.794  0.00  0.00    +0.000 N 
ATOM     14  H   UNL     1       1.857   7.218  19.733  0.00  0.00    +0.000 HD
BRANCH  13  15
ATOM     15  C   UNL     1       2.616   6.185  18.029  0.00  0.00    +0.000 C 
ATOM     16  C   UNL     1       2.166   4.793  18.617  0.00  0.00    +0.000 C 
ATOM     17  C   UNL     1       1.361   4.815  19.925  0.00  0.00    +0.000 C 
ATOM     18  C   UNL     1       1.297   4.047  17.577  0.00  0.00    +0.000 C 
ATOM     19  C   UNL     1       3.545   4.084  18.801  0.00  0.00    +0.000 C 
ATOM     20  C   UNL     1       4.363   4.733  19.943  0.00  0.00    +0.000 C 
ATOM     21  C   UNL     1       4.810   6.070  19.342  0.00  0.00    +0.000 C 
ATOM     22  C   UNL     1       4.171   6.043  17.936  0.00  0.00    +0.000 C 
ATOM     23  C   UNL     1       4.829   6.981  16.942  0.00  0.00    +0.000 C 
ATOM     24  C   UNL     1       4.339   4.560  17.584  0.00  0.00    +0.000 C 
ENDBRANCH  13  15
ENDBRANCH   6  11
BRANCH   1  26
ATOM     25  C   UNL     1      -1.436  12.583  22.984  0.00  0.00    +0.000 C 
ATOM     26  O   UNL     1      -0.117  12.049  22.860  0.00  0.00    +0.000 OA
ENDBRANCH   1  26
BRANCH   9  27
ATOM     27  C   UNL     1       1.260  13.014  20.400  0.00  0.00    +0.000 C 
BRANCH  27  28
ATOM     28  C   UNL     1       2.673  13.520  20.775  0.00  0.00    +0.000 C 
BRANCH  28  29
ATOM     29  N   UNL     1       3.441  14.226  19.726  0.00  0.00    +0.000 NA
ATOM     30  C   UNL     1       2.628  15.163  18.944  0.00  0.00    +0.000 C 
ATOM     31  C   UNL     1       2.141  16.363  19.740  0.00  0.00    +0.000 C 
ATOM     32  C   UNL     1       3.318  17.116  20.333  0.00  0.00    +0.000 C 
ATOM     33  C   UNL     1       4.249  16.178  21.100  0.00  0.00    +0.000 C 
ATOM     34  C   UNL     1       4.611  14.932  20.281  0.00  0.00    +0.000 C 
ENDBRANCH  28  29
ENDBRANCH  27  28
ENDBRANCH   9  27
TORSDOF 6
ENDMDL
MODEL 9
REMARK VINA RESULT:      -7.4      2.702      4.130
REMARK  Name = 
REMARK  11 active torsions:
REMARK  status: ('A' for Active; 'I' for Inactive)
REMARK    1  A    between atoms: C_1  and  O_2
REMARK    2  A    between atoms: O_2  and  C_3
REMARK    3  A    between atoms: C_8  and  C_9
REMARK    4  A    between atoms: N_11  and  C_12
REMARK    5  A    between atoms: C_13  and  C_14
REMARK    6  A    between atoms: C_13  and  C_15
REMARK    7  A    between atoms: C_19  and  C_20
REMARK    8  A    between atoms: C_22  and  C_23
REMARK    9  A    between atoms: N_24  and  C_25
REMARK   10  A    between atoms: C_25  and  C_26
REMARK   11  A    between atoms: C_26  and  N_27
REMARK                            x       y       z     vdW  Elec       q    Type
REMARK                         _______ _______ _______ _____ _____    ______ ____
ROOT
ATOM      1  C   UNL     1      -0.012  10.839  22.240  0.00  0.00    +0.000 A 
ATOM      2  C   UNL     1      -0.647   9.713  22.792  0.00  0.00    +0.000 A 
ATOM      3  C   UNL     1      -0.599   8.478  22.169  0.00  0.00    +0.000 A 
ATOM      4  C   UNL     1       0.095   8.323  20.973  0.00  0.00    +0.000 A 
ATOM      5  C   UNL     1       0.709   9.435  20.351  0.00  0.00    +0.000 A 
ATOM      6  C   UNL     1       1.484   9.584  19.152  0.00  0.00    +0.000 A 
ATOM      7  C   UNL     1       1.708  10.944  18.993  0.00  0.00    +0.000 A 
ATOM      8  C   UNL     1       2.303  11.603  17.788  0.00  0.00    +0.000 C 
ATOM      9  N   UNL     1       1.300  11.587  20.155  0.00  0.00    +0.000 N 
ATOM     10  C   UNL     1       0.631  10.684  20.982  0.00  0.00    +0.000 A 
ENDROOT
BRANCH   6  11
ATOM     11  C   UNL     1       1.959   8.560  18.216  0.00  0.00    +0.000 C 
ATOM     12  O   UNL     1       2.028   8.745  16.995  0.00  0.00    +0.000 OA
ATOM     13  N   UNL     1       2.274   7.360  18.784  0.00  0.00    +0.000 N 
ATOM     14  H   UNL     1       1.987   7.249  19.745  0.00  0.00    +0.000 HD
BRANCH  13  15
ATOM     15  C   UNL     1       2.664   6.198  18.017  0.00  0.00    +0.000 C 
ATOM     16  C   UNL     1       2.206   4.812  18.615  0.00  0.00    +0.000 C 
ATOM     17  C   UNL     1       1.417   4.846  19.932  0.00  0.00    +0.000 C 
ATOM     18  C   UNL     1       1.317   4.072  17.587  0.00  0.00    +0.000 C 
ATOM     19  C   UNL     1       3.580   4.089  18.785  0.00  0.00    +0.000 C 
ATOM     20  C   UNL     1       4.417   4.733  19.915  0.00  0.00    +0.000 C 
ATOM     21  C   UNL     1       4.872   6.064  19.305  0.00  0.00    +0.000 C 
ATOM     22  C   UNL     1       4.215   6.039  17.907  0.00  0.00    +0.000 C 
ATOM     23  C   UNL     1       4.872   6.967  16.903  0.00  0.00    +0.000 C 
ATOM     24  C   UNL     1       4.365   4.553  17.557  0.00  0.00    +0.000 C 
ENDBRANCH  13  15
ENDBRANCH   6  11
BRANCH   1  26
ATOM     25  C   UNL     1      -1.332  12.611  23.087  0.00  0.00    +0.000 C 
ATOM     26  O   UNL     1      -0.031  12.063  22.869  0.00  0.00    +0.000 OA
ENDBRANCH   1  26
BRANCH   9  27
ATOM     27  C   UNL     1       1.467  13.000  20.469  0.00  0.00    +0.000 C 
BRANCH  27  28
ATOM     28  C   UNL     1       0.385  13.936  19.880  0.00  0.00    +0.000 C 
BRANCH  28  29
ATOM     29  N   UNL     1       0.850  15.178  19.223  0.00  0.00    +0.000 NA
ATOM     30  C   UNL     1      -0.242  15.982  18.665  0.00  0.00    +0.000 C 
ATOM     31  C   UNL     1      -1.156  16.589  19.718  0.00  0.00    +0.000 C 
ATOM     32  C   UNL     1      -0.357  17.452  20.677  0.00  0.00    +0.000 C 
ATOM     33  C   UNL     1       0.844  16.693  21.239  0.00  0.00    +0.000 C 
ATOM     34  C   UNL     1       1.660  16.011  20.132  0.00  0.00    +0.000 C 
ENDBRANCH  28  29
ENDBRANCH  27  28
ENDBRANCH   9  27
TORSDOF 6
ENDMDL
