MODEL 1
REMARK VINA RESULT:      -7.8      0.000      0.000
REMARK  Name = 
REMARK  4 active torsions:
REMARK  status: ('A' for Active; 'I' for Inactive)
REMARK    1  A    between atoms: S_2  and  N_4
REMARK    2  A    between atoms: S_2  and  C_15
REMARK    3  A    between atoms: N_4  and  C_5
REMARK    4  A    between atoms: C_7  and  C_8
REMARK                            x       y       z     vdW  Elec       q    Type
REMARK                         _______ _______ _______ _____ _____    ______ ____
ROOT
ATOM      1  N   UNL     1       7.247   4.279  17.704  0.00  0.00    +0.000 N 
ATOM      2  H   UNL     1       6.931   3.343  17.981  0.00  0.00    +0.000 HD
ENDROOT
BRANCH   1   3
ATOM      3  C   UNL     1       7.058   4.388  16.291  0.00  0.00    +0.000 A 
ATOM      4  C   UNL     1       6.291   3.563  15.507  0.00  0.00    +0.000 A 
ATOM      5  C   UNL     1       6.404   4.115  14.211  0.00  0.00    +0.000 A 
ATOM      6  N   UNL     1       7.168   5.216  14.212  0.00  0.00    +0.000 NA
ATOM      7  O   UNL     1       7.560   5.395  15.529  0.00  0.00    +0.000 OA
BRANCH   5   8
ATOM      8  C   UNL     1       5.755   3.583  13.003  0.00  0.00    +0.000 A 
ATOM      9  C   UNL     1       6.342   2.556  12.198  0.00  0.00    +0.000 A 
ATOM     10  C   UNL     1       5.556   2.220  11.116  0.00  0.00    +0.000 A 
ATOM     11  S   UNL     1       4.114   3.139  11.064  0.00  0.00    +0.000 S 
ATOM     12  C   UNL     1       4.535   3.982  12.493  0.00  0.00    +0.000 A 
ENDBRANCH   5   8
ENDBRANCH   1   3
BRANCH   1  14
ATOM     13  O   UNL     1       6.584   5.467  19.922  0.00  0.00    +0.000 OA
ATOM     14  S   UNL     1       6.178   5.321  18.541  0.00  0.00    +0.000 S 
ATOM     15  O   UNL     1       5.967   6.451  17.664  0.00  0.00    +0.000 OA
BRANCH  14  16
ATOM     16  C   UNL     1       4.684   4.358  18.557  0.00  0.00    +0.000 A 
ATOM     17  C   UNL     1       4.647   3.106  19.187  0.00  0.00    +0.000 A 
ATOM     18  C   UNL     1       3.463   2.363  19.170  0.00  0.00    +0.000 A 
ATOM     19  C   UNL     1       2.337   2.875  18.529  0.00  0.00    +0.000 A 
ATOM     20  F   UNL     1       1.202   2.163  18.525  0.00  0.00    +0.000 F 
ATOM     21  C   UNL     1       2.388   4.114  17.896  0.00  0.00    +0.000 A 
ATOM     22  F   UNL     1       1.304   4.598  17.276  0.00  0.00    +0.000 F 
ATOM     23  C   UNL     1       3.558   4.862  17.899  0.00  0.00    +0.000 A 
ENDBRANCH  14  16
ENDBRANCH   1  14
TORSDOF 4
ENDMDL
MODEL 2
REMARK VINA RESULT:      -7.6      1.101      1.361
REMARK  Name = 
REMARK  4 active torsions:
REMARK  status: ('A' for Active; 'I' for Inactive)
REMARK    1  A    between atoms: S_2  and  N_4
REMARK    2  A    between atoms: S_2  and  C_15
REMARK    3  A    between atoms: N_4  and  C_5
REMARK    4  A    between atoms: C_7  and  C_8
REMARK                            x       y       z     vdW  Elec       q    Type
REMARK                         _______ _______ _______ _____ _____    ______ ____
ROOT
ATOM      1  N   UNL     1       5.712   6.116  17.237  0.00  0.00    +0.000 N 
ATOM      2  H   UNL     1       6.342   6.883  17.497  0.00  0.00    +0.000 HD
ENDROOT
BRANCH   1   3
ATOM      3  C   UNL     1       6.193   5.572  16.006  0.00  0.00    +0.000 A 
ATOM      4  C   UNL     1       5.519   4.707  15.181  0.00  0.00    +0.000 A 
ATOM      5  C   UNL     1       6.400   4.509  14.092  0.00  0.00    +0.000 A 
ATOM      6  N   UNL     1       7.522   5.227  14.235  0.00  0.00    +0.000 NA
ATOM      7  O   UNL     1       7.377   5.911  15.432  0.00  0.00    +0.000 OA
BRANCH   5   8
ATOM      8  C   UNL     1       6.131   3.651  12.929  0.00  0.00    +0.000 A 
ATOM      9  C   UNL     1       4.824   3.495  12.367  0.00  0.00    +0.000 A 
ATOM     10  C   UNL     1       4.814   2.639  11.287  0.00  0.00    +0.000 A 
ATOM     11  S   UNL     1       6.372   2.020  10.945  0.00  0.00    +0.000 S 
ATOM     12  C   UNL     1       7.064   2.902  12.239  0.00  0.00    +0.000 A 
ENDBRANCH   5   8
ENDBRANCH   1   3
BRANCH   1  14
ATOM     13  O   UNL     1       6.901   3.997  18.168  0.00  0.00    +0.000 OA
ATOM     14  S   UNL     1       5.910   4.992  18.514  0.00  0.00    +0.000 S 
ATOM     15  O   UNL     1       5.982   5.782  19.722  0.00  0.00    +0.000 OA
BRANCH  14  16
ATOM     16  C   UNL     1       4.339   4.160  18.500  0.00  0.00    +0.000 A 
ATOM     17  C   UNL     1       4.202   2.882  19.059  0.00  0.00    +0.000 A 
ATOM     18  C   UNL     1       2.958   2.245  19.019  0.00  0.00    +0.000 A 
ATOM     19  C   UNL     1       1.873   2.886  18.427  0.00  0.00    +0.000 A 
ATOM     20  F   UNL     1       0.681   2.275  18.401  0.00  0.00    +0.000 F 
ATOM     21  C   UNL     1       2.023   4.151  17.864  0.00  0.00    +0.000 A 
ATOM     22  F   UNL     1       0.978   4.761  17.290  0.00  0.00    +0.000 F 
ATOM     23  C   UNL     1       3.253   4.796  17.890  0.00  0.00    +0.000 A 
ENDBRANCH  14  16
ENDBRANCH   1  14
TORSDOF 4
ENDMDL
MODEL 3
REMARK VINA RESULT:      -7.4      0.837      1.687
REMARK  Name = 
REMARK  4 active torsions:
REMARK  status: ('A' for Active; 'I' for Inactive)
REMARK    1  A    between atoms: S_2  and  N_4
REMARK    2  A    between atoms: S_2  and  C_15
REMARK    3  A    between atoms: N_4  and  C_5
REMARK    4  A    between atoms: C_7  and  C_8
REMARK                            x       y       z     vdW  Elec       q    Type
REMARK                         _______ _______ _______ _____ _____    ______ ____
ROOT
ATOM      1  N   UNL     1       7.525   4.367  17.768  0.00  0.00    +0.000 N 
ATOM      2  H   UNL     1       7.115   3.479  18.077  0.00  0.00    +0.000 HD
ENDROOT
BRANCH   1   3
ATOM      3  C   UNL     1       7.284   4.479  16.364  0.00  0.00    +0.000 A 
ATOM      4  C   UNL     1       6.573   3.599  15.588  0.00  0.00    +0.000 A 
ATOM      5  C   UNL     1       6.595   4.178  14.298  0.00  0.00    +0.000 A 
ATOM      6  N   UNL     1       7.254   5.344  14.297  0.00  0.00    +0.000 NA
ATOM      7  O   UNL     1       7.668   5.540  15.605  0.00  0.00    +0.000 OA
BRANCH   5   8
ATOM      8  C   UNL     1       5.962   3.606  13.101  0.00  0.00    +0.000 A 
ATOM      9  C   UNL     1       4.649   3.976  12.666  0.00  0.00    +0.000 A 
ATOM     10  C   UNL     1       4.264   3.308  11.524  0.00  0.00    +0.000 A 
ATOM     11  S   UNL     1       5.475   2.232  10.972  0.00  0.00    +0.000 S 
ATOM     12  C   UNL     1       6.521   2.665  12.257  0.00  0.00    +0.000 A 
ENDBRANCH   5   8
ENDBRANCH   1   3
BRANCH   1  14
ATOM     13  O   UNL     1       6.987   5.529  20.034  0.00  0.00    +0.000 OA
ATOM     14  S   UNL     1       6.626   5.540  18.633  0.00  0.00    +0.000 S 
ATOM     15  O   UNL     1       6.666   6.738  17.824  0.00  0.00    +0.000 OA
BRANCH  14  16
ATOM     16  C   UNL     1       4.982   4.870  18.533  0.00  0.00    +0.000 A 
ATOM     17  C   UNL     1       3.967   5.564  17.861  0.00  0.00    +0.000 A 
ATOM     18  C   UNL     1       2.679   5.021  17.812  0.00  0.00    +0.000 A 
ATOM     19  C   UNL     1       2.422   3.799  18.430  0.00  0.00    +0.000 A 
ATOM     20  F   UNL     1       1.190   3.279  18.371  0.00  0.00    +0.000 F 
ATOM     21  C   UNL     1       3.436   3.124  19.105  0.00  0.00    +0.000 A 
ATOM     22  F   UNL     1       3.182   1.952  19.703  0.00  0.00    +0.000 F 
ATOM     23  C   UNL     1       4.719   3.652  19.167  0.00  0.00    +0.000 A 
ENDBRANCH  14  16
ENDBRANCH   1  14
TORSDOF 4
ENDMDL
MODEL 4
REMARK VINA RESULT:      -7.4      1.329      1.971
REMARK  Name = 
REMARK  4 active torsions:
REMARK  status: ('A' for Active; 'I' for Inactive)
REMARK    1  A    between atoms: S_2  and  N_4
REMARK    2  A    between atoms: S_2  and  C_15
REMARK    3  A    between atoms: N_4  and  C_5
REMARK    4  A    between atoms: C_7  and  C_8
REMARK                            x       y       z     vdW  Elec       q    Type
REMARK                         _______ _______ _______ _____ _____    ______ ____
ROOT
ATOM      1  N   UNL     1       5.510   6.201  17.189  0.00  0.00    +0.000 N 
ATOM      2  H   UNL     1       6.118   6.977  17.471  0.00  0.00    +0.000 HD
ENDROOT
BRANCH   1   3
ATOM      3  C   UNL     1       6.066   5.639  15.998  0.00  0.00    +0.000 A 
ATOM      4  C   UNL     1       5.441   4.770  15.139  0.00  0.00    +0.000 A 
ATOM      5  C   UNL     1       6.390   4.553  14.114  0.00  0.00    +0.000 A 
ATOM      6  N   UNL     1       7.507   5.261  14.324  0.00  0.00    +0.000 NA
ATOM      7  O   UNL     1       7.290   5.960  15.501  0.00  0.00    +0.000 OA
BRANCH   5   8
ATOM      8  C   UNL     1       6.191   3.684  12.944  0.00  0.00    +0.000 A 
ATOM      9  C   UNL     1       4.895   3.379  12.417  0.00  0.00    +0.000 A 
ATOM     10  C   UNL     1       4.955   2.543  11.323  0.00  0.00    +0.000 A 
ATOM     11  S   UNL     1       6.565   2.120  10.927  0.00  0.00    +0.000 S 
ATOM     12  C   UNL     1       7.186   3.062  12.216  0.00  0.00    +0.000 A 
ENDBRANCH   5   8
ENDBRANCH   1   3
BRANCH   1  14
ATOM     13  O   UNL     1       6.624   4.082  18.209  0.00  0.00    +0.000 OA
ATOM     14  S   UNL     1       5.639   5.102  18.495  0.00  0.00    +0.000 S 
ATOM     15  O   UNL     1       5.678   5.916  19.689  0.00  0.00    +0.000 OA
BRANCH  14  16
ATOM     16  C   UNL     1       4.054   4.296  18.437  0.00  0.00    +0.000 A 
ATOM     17  C   UNL     1       2.896   5.019  18.119  0.00  0.00    +0.000 A 
ATOM     18  C   UNL     1       1.661   4.363  18.097  0.00  0.00    +0.000 A 
ATOM     19  C   UNL     1       1.598   3.003  18.390  0.00  0.00    +0.000 A 
ATOM     20  F   UNL     1       0.414   2.378  18.357  0.00  0.00    +0.000 F 
ATOM     21  C   UNL     1       2.753   2.297  18.716  0.00  0.00    +0.000 A 
ATOM     22  F   UNL     1       2.685   0.991  19.004  0.00  0.00    +0.000 F 
ATOM     23  C   UNL     1       3.986   2.935  18.748  0.00  0.00    +0.000 A 
ENDBRANCH  14  16
ENDBRANCH   1  14
TORSDOF 4
ENDMDL
MODEL 5
REMARK VINA RESULT:      -7.3      0.922      1.316
REMARK  Name = 
REMARK  4 active torsions:
REMARK  status: ('A' for Active; 'I' for Inactive)
REMARK    1  A    between atoms: S_2  and  N_4
REMARK    2  A    between atoms: S_2  and  C_15
REMARK    3  A    between atoms: N_4  and  C_5
REMARK    4  A    between atoms: C_7  and  C_8
REMARK                            x       y       z     vdW  Elec       q    Type
REMARK                         _______ _______ _______ _____ _____    ______ ____
ROOT
ATOM      1  N   UNL     1       7.556   4.359  17.809  0.00  0.00    +0.000 N 
ATOM      2  H   UNL     1       7.071   3.514  18.131  0.00  0.00    +0.000 HD
ENDROOT
BRANCH   1   3
ATOM      3  C   UNL     1       7.304   4.483  16.407  0.00  0.00    +0.000 A 
ATOM      4  C   UNL     1       6.601   3.601  15.626  0.00  0.00    +0.000 A 
ATOM      5  C   UNL     1       6.606   4.196  14.343  0.00  0.00    +0.000 A 
ATOM      6  N   UNL     1       7.248   5.371  14.351  0.00  0.00    +0.000 NA
ATOM      7  O   UNL     1       7.668   5.557  15.658  0.00  0.00    +0.000 OA
BRANCH   5   8
ATOM      8  C   UNL     1       5.974   3.628  13.143  0.00  0.00    +0.000 A 
ATOM      9  C   UNL     1       4.656   3.991  12.716  0.00  0.00    +0.000 A 
ATOM     10  C   UNL     1       4.272   3.328  11.570  0.00  0.00    +0.000 A 
ATOM     11  S   UNL     1       5.491   2.269  11.004  0.00  0.00    +0.000 S 
ATOM     12  C   UNL     1       6.537   2.700  12.290  0.00  0.00    +0.000 A 
ENDBRANCH   5   8
ENDBRANCH   1   3
BRANCH   1  14
ATOM     13  O   UNL     1       7.115   5.543  20.084  0.00  0.00    +0.000 OA
ATOM     14  S   UNL     1       6.782   5.614  18.678  0.00  0.00    +0.000 S 
ATOM     15  O   UNL     1       6.971   6.810  17.888  0.00  0.00    +0.000 OA
BRANCH  14  16
ATOM     16  C   UNL     1       5.074   5.137  18.543  0.00  0.00    +0.000 A 
ATOM     17  C   UNL     1       4.684   3.808  18.761  0.00  0.00    +0.000 A 
ATOM     18  C   UNL     1       3.336   3.458  18.633  0.00  0.00    +0.000 A 
ATOM     19  C   UNL     1       2.400   4.432  18.292  0.00  0.00    +0.000 A 
ATOM     20  F   UNL     1       1.109   4.093  18.180  0.00  0.00    +0.000 F 
ATOM     21  C   UNL     1       2.801   5.746  18.066  0.00  0.00    +0.000 A 
ATOM     22  F   UNL     1       1.898   6.678  17.732  0.00  0.00    +0.000 F 
ATOM     23  C   UNL     1       4.136   6.110  18.184  0.00  0.00    +0.000 A 
ENDBRANCH  14  16
ENDBRANCH   1  14
TORSDOF 4
ENDMDL
MODEL 6
REMARK VINA RESULT:      -7.3      1.458      1.579
REMARK  Name = 
REMARK  4 active torsions:
REMARK  status: ('A' for Active; 'I' for Inactive)
REMARK    1  A    between atoms: S_2  and  N_4
REMARK    2  A    between atoms: S_2  and  C_15
REMARK    3  A    between atoms: N_4  and  C_5
REMARK    4  A    between atoms: C_7  and  C_8
REMARK                            x       y       z     vdW  Elec       q    Type
REMARK                         _______ _______ _______ _____ _____    ______ ____
ROOT
ATOM      1  N   UNL     1       5.287   6.055  17.401  0.00  0.00    +0.000 N 
ATOM      2  H   UNL     1       5.821   6.874  17.712  0.00  0.00    +0.000 HD
ENDROOT
BRANCH   1   3
ATOM      3  C   UNL     1       5.919   5.562  16.217  0.00  0.00    +0.000 A 
ATOM      4  C   UNL     1       5.361   4.719  15.289  0.00  0.00    +0.000 A 
ATOM      5  C   UNL     1       6.367   4.573  14.306  0.00  0.00    +0.000 A 
ATOM      6  N   UNL     1       7.453   5.298  14.605  0.00  0.00    +0.000 NA
ATOM      7  O   UNL     1       7.156   5.936  15.799  0.00  0.00    +0.000 OA
BRANCH   5   8
ATOM      8  C   UNL     1       6.251   3.754  13.089  0.00  0.00    +0.000 A 
ATOM      9  C   UNL     1       7.366   3.473  12.236  0.00  0.00    +0.000 A 
ATOM     10  C   UNL     1       7.018   2.692  11.155  0.00  0.00    +0.000 A 
ATOM     11  S   UNL     1       5.353   2.295  11.162  0.00  0.00    +0.000 S 
ATOM     12  C   UNL     1       5.097   3.163  12.615  0.00  0.00    +0.000 A 
ENDBRANCH   5   8
ENDBRANCH   1   3
BRANCH   1  14
ATOM     13  O   UNL     1       6.484   3.960  18.376  0.00  0.00    +0.000 OA
ATOM     14  S   UNL     1       5.475   4.947  18.693  0.00  0.00    +0.000 S 
ATOM     15  O   UNL     1       5.516   5.751  19.894  0.00  0.00    +0.000 OA
BRANCH  14  16
ATOM     16  C   UNL     1       3.914   4.097  18.660  0.00  0.00    +0.000 A 
ATOM     17  C   UNL     1       3.719   2.993  17.819  0.00  0.00    +0.000 A 
ATOM     18  C   UNL     1       2.476   2.353  17.802  0.00  0.00    +0.000 A 
ATOM     19  C   UNL     1       1.449   2.819  18.620  0.00  0.00    +0.000 A 
ATOM     20  F   UNL     1       0.264   2.196  18.607  0.00  0.00    +0.000 F 
ATOM     21  C   UNL     1       1.650   3.924  19.443  0.00  0.00    +0.000 A 
ATOM     22  F   UNL     1       0.657   4.372  20.222  0.00  0.00    +0.000 F 
ATOM     23  C   UNL     1       2.877   4.574  19.468  0.00  0.00    +0.000 A 
ENDBRANCH  14  16
ENDBRANCH   1  14
TORSDOF 4
ENDMDL
MODEL 7
REMARK VINA RESULT:      -7.2      1.583      1.783
REMARK  Name = 
REMARK  4 active torsions:
REMARK  status: ('A' for Active; 'I' for Inactive)
REMARK    1  A    between atoms: S_2  and  N_4
REMARK    2  A    between atoms: S_2  and  C_15
REMARK    3  A    between atoms: N_4  and  C_5
REMARK    4  A    between atoms: C_7  and  C_8
REMARK                            x       y       z     vdW  Elec       q    Type
REMARK                         _______ _______ _______ _____ _____    ______ ____
ROOT
ATOM      1  N   UNL     1       5.777   6.151  17.405  0.00  0.00    +0.000 N 
ATOM      2  H   UNL     1       6.319   7.003  17.583  0.00  0.00    +0.000 HD
ENDROOT
BRANCH   1   3
ATOM      3  C   UNL     1       6.225   5.616  16.158  0.00  0.00    +0.000 A 
ATOM      4  C   UNL     1       5.514   4.791  15.324  0.00  0.00    +0.000 A 
ATOM      5  C   UNL     1       6.375   4.586  14.222  0.00  0.00    +0.000 A 
ATOM      6  N   UNL     1       7.523   5.261  14.366  0.00  0.00    +0.000 NA
ATOM      7  O   UNL     1       7.414   5.925  15.577  0.00  0.00    +0.000 OA
BRANCH   5   8
ATOM      8  C   UNL     1       6.065   3.761  13.045  0.00  0.00    +0.000 A 
ATOM      9  C   UNL     1       4.753   3.681  12.479  0.00  0.00    +0.000 A 
ATOM     10  C   UNL     1       4.700   2.844  11.385  0.00  0.00    +0.000 A 
ATOM     11  S   UNL     1       6.226   2.151  11.036  0.00  0.00    +0.000 S 
ATOM     12  C   UNL     1       6.960   2.975  12.345  0.00  0.00    +0.000 A 
ENDBRANCH   5   8
ENDBRANCH   1   3
BRANCH   1  14
ATOM     13  O   UNL     1       6.911   3.951  18.208  0.00  0.00    +0.000 OA
ATOM     14  S   UNL     1       6.220   5.122  18.700  0.00  0.00    +0.000 S 
ATOM     15  O   UNL     1       6.774   5.989  19.716  0.00  0.00    +0.000 OA
BRANCH  14  16
ATOM     16  C   UNL     1       4.630   4.563  19.268  0.00  0.00    +0.000 A 
ATOM     17  C   UNL     1       4.335   3.194  19.333  0.00  0.00    +0.000 A 
ATOM     18  C   UNL     1       3.071   2.784  19.769  0.00  0.00    +0.000 A 
ATOM     19  C   UNL     1       2.124   3.738  20.132  0.00  0.00    +0.000 A 
ATOM     20  F   UNL     1       0.918   3.339  20.558  0.00  0.00    +0.000 F 
ATOM     21  C   UNL     1       2.423   5.095  20.053  0.00  0.00    +0.000 A 
ATOM     22  F   UNL     1       1.507   6.009  20.397  0.00  0.00    +0.000 F 
ATOM     23  C   UNL     1       3.672   5.520  19.617  0.00  0.00    +0.000 A 
ENDBRANCH  14  16
ENDBRANCH   1  14
TORSDOF 4
ENDMDL
MODEL 8
REMARK VINA RESULT:      -7.1      5.106      7.366
REMARK  Name = 
REMARK  4 active torsions:
REMARK  status: ('A' for Active; 'I' for Inactive)
REMARK    1  A    between atoms: S_2  and  N_4
REMARK    2  A    between atoms: S_2  and  C_15
REMARK    3  A    between atoms: N_4  and  C_5
REMARK    4  A    between atoms: C_7  and  C_8
REMARK                            x       y       z     vdW  Elec       q    Type
REMARK                         _______ _______ _______ _____ _____    ______ ____
ROOT
ATOM      1  N   UNL     1       3.181   6.233  19.928  0.00  0.00    +0.000 N 
ATOM      2  H   UNL     1       4.200   6.343  19.895  0.00  0.00    +0.000 HD
ENDROOT
BRANCH   1   3
ATOM      3  C   UNL     1       2.614   7.309  19.177  0.00  0.00    +0.000 A 
ATOM      4  C   UNL     1       1.661   8.194  19.616  0.00  0.00    +0.000 A 
ATOM      5  C   UNL     1       1.476   9.074  18.525  0.00  0.00    +0.000 A 
ATOM      6  N   UNL     1       2.281   8.759  17.502  0.00  0.00    +0.000 NA
ATOM      7  O   UNL     1       3.011   7.660  17.926  0.00  0.00    +0.000 OA
BRANCH   5   8
ATOM      8  C   UNL     1       0.544  10.211  18.501  0.00  0.00    +0.000 A 
ATOM      9  C   UNL     1      -0.810  10.092  18.053  0.00  0.00    +0.000 A 
ATOM     10  C   UNL     1      -1.492  11.288  18.115  0.00  0.00    +0.000 A 
ATOM     11  S   UNL     1      -0.509  12.556  18.709  0.00  0.00    +0.000 S 
ATOM     12  C   UNL     1       0.830  11.504  18.890  0.00  0.00    +0.000 A 
ENDBRANCH   5   8
ENDBRANCH   1   3
BRANCH   1  14
ATOM     13  O   UNL     1       3.030   3.639  20.071  0.00  0.00    +0.000 OA
ATOM     14  S   UNL     1       2.919   4.738  19.137  0.00  0.00    +0.000 S 
ATOM     15  O   UNL     1       1.758   4.938  18.298  0.00  0.00    +0.000 OA
BRANCH  14  16
ATOM     16  C   UNL     1       4.345   4.642  18.079  0.00  0.00    +0.000 A 
ATOM     17  C   UNL     1       4.228   4.183  16.760  0.00  0.00    +0.000 A 
ATOM     18  C   UNL     1       5.369   4.103  15.956  0.00  0.00    +0.000 A 
ATOM     19  C   UNL     1       6.605   4.481  16.475  0.00  0.00    +0.000 A 
ATOM     20  F   UNL     1       7.694   4.412  15.697  0.00  0.00    +0.000 F 
ATOM     21  C   UNL     1       6.713   4.924  17.790  0.00  0.00    +0.000 A 
ATOM     22  F   UNL     1       7.905   5.279  18.286  0.00  0.00    +0.000 F 
ATOM     23  C   UNL     1       5.590   5.004  18.604  0.00  0.00    +0.000 A 
ENDBRANCH  14  16
ENDBRANCH   1  14
TORSDOF 4
ENDMDL
MODEL 9
REMARK VINA RESULT:      -7.1      4.268      7.359
REMARK  Name = 
REMARK  4 active torsions:
REMARK  status: ('A' for Active; 'I' for Inactive)
REMARK    1  A    between atoms: S_2  and  N_4
REMARK    2  A    between atoms: S_2  and  C_15
REMARK    3  A    between atoms: N_4  and  C_5
REMARK    4  A    between atoms: C_7  and  C_8
REMARK                            x       y       z     vdW  Elec       q    Type
REMARK                         _______ _______ _______ _____ _____    ______ ____
ROOT
ATOM      1  N   UNL     1       3.307   4.463  18.534  0.00  0.00    +0.000 N 
ATOM      2  H   UNL     1       2.850   3.882  19.245  0.00  0.00    +0.000 HD
ENDROOT
BRANCH   1   3
ATOM      3  C   UNL     1       2.854   5.805  18.729  0.00  0.00    +0.000 A 
ATOM      4  C   UNL     1       2.150   6.277  19.809  0.00  0.00    +0.000 A 
ATOM      5  C   UNL     1       1.986   7.655  19.539  0.00  0.00    +0.000 A 
ATOM      6  N   UNL     1       2.572   8.001  18.385  0.00  0.00    +0.000 NA
ATOM      7  O   UNL     1       3.136   6.836  17.890  0.00  0.00    +0.000 OA
BRANCH   5   8
ATOM      8  C   UNL     1       1.287   8.612  20.410  0.00  0.00    +0.000 A 
ATOM      9  C   UNL     1       0.689   9.815  19.915  0.00  0.00    +0.000 A 
ATOM     10  C   UNL     1       0.095  10.557  20.914  0.00  0.00    +0.000 A 
ATOM     11  S   UNL     1       0.255   9.813  22.446  0.00  0.00    +0.000 S 
ATOM     12  C   UNL     1       1.114   8.492  21.775  0.00  0.00    +0.000 A 
ENDBRANCH   5   8
ENDBRANCH   1   3
BRANCH   1  14
ATOM     13  O   UNL     1       5.414   5.466  19.686  0.00  0.00    +0.000 OA
ATOM     14  S   UNL     1       4.969   4.323  18.918  0.00  0.00    +0.000 S 
ATOM     15  O   UNL     1       5.154   2.960  19.364  0.00  0.00    +0.000 OA
BRANCH  14  16
ATOM     16  C   UNL     1       5.718   4.477  17.313  0.00  0.00    +0.000 A 
ATOM     17  C   UNL     1       7.052   4.889  17.183  0.00  0.00    +0.000 A 
ATOM     18  C   UNL     1       7.610   5.017  15.907  0.00  0.00    +0.000 A 
ATOM     19  C   UNL     1       6.835   4.734  14.784  0.00  0.00    +0.000 A 
ATOM     20  F   UNL     1       7.378   4.848  13.565  0.00  0.00    +0.000 F 
ATOM     21  C   UNL     1       5.508   4.337  14.924  0.00  0.00    +0.000 A 
ATOM     22  F   UNL     1       4.766   4.073  13.841  0.00  0.00    +0.000 F 
ATOM     23  C   UNL     1       4.937   4.210  16.184  0.00  0.00    +0.000 A 
ENDBRANCH  14  16
ENDBRANCH   1  14
TORSDOF 4
ENDMDL
