MODEL 1
REMARK VINA RESULT:      -6.5      0.000      0.000
REMARK  Name = 
REMARK  3 active torsions:
REMARK  status: ('A' for Active; 'I' for Inactive)
REMARK    1  A    between atoms: N_5  and  C_6
REMARK    2  A    between atoms: C_6  and  C_7
REMARK    3  A    between atoms: C_7  and  C_8
REMARK                            x       y       z     vdW  Elec       q    Type
REMARK                         _______ _______ _______ _____ _____    ______ ____
ROOT
ATOM      1  O   UNL     1       6.908   5.565  19.833  0.00  0.00    +0.000 OA
ATOM      2  C   UNL     1       6.291   5.111  18.898  0.00  0.00    +0.000 C 
ATOM      3  C   UNL     1       6.866   4.495  17.601  0.00  0.00    +0.000 C 
ATOM      4  O   UNL     1       8.045   4.397  17.334  0.00  0.00    +0.000 OA
ATOM      5  N   UNL     1       5.761   4.097  16.857  0.00  0.00    +0.000 N 
ATOM      6  C   UNL     1       4.569   4.430  17.526  0.00  0.00    +0.000 A 
ATOM      7  C   UNL     1       3.258   4.246  17.123  0.00  0.00    +0.000 A 
ATOM      8  C   UNL     1       2.237   4.671  17.983  0.00  0.00    +0.000 A 
ATOM      9  C   UNL     1       2.530   5.268  19.224  0.00  0.00    +0.000 A 
ATOM     10  C   UNL     1       3.851   5.456  19.626  0.00  0.00    +0.000 A 
ATOM     11  C   UNL     1       4.837   5.031  18.757  0.00  0.00    +0.000 A 
ENDROOT
BRANCH   5  12
ATOM     12  C   UNL     1       5.852   3.496  15.544  0.00  0.00    +0.000 C 
BRANCH  12  13
ATOM     13  C   UNL     1       5.872   4.514  14.400  0.00  0.00    +0.000 C 
BRANCH  13  14
ATOM     14  C   UNL     1       6.520   3.963  13.142  0.00  0.00    +0.000 C 
ATOM     15 BR   UNL     1       5.153   3.211  11.976  0.00  0.00    +0.000 Br
ENDBRANCH  13  14
ENDBRANCH  12  13
ENDBRANCH   5  12
TORSDOF 3
ENDMDL
MODEL 2
REMARK VINA RESULT:      -6.3      2.780      3.326
REMARK  Name = 
REMARK  3 active torsions:
REMARK  status: ('A' for Active; 'I' for Inactive)
REMARK    1  A    between atoms: N_5  and  C_6
REMARK    2  A    between atoms: C_6  and  C_7
REMARK    3  A    between atoms: C_7  and  C_8
REMARK                            x       y       z     vdW  Elec       q    Type
REMARK                         _______ _______ _______ _____ _____    ______ ____
ROOT
ATOM      1  O   UNL     1       5.034   2.060  20.323  0.00  0.00    +0.000 OA
ATOM      2  C   UNL     1       4.576   2.947  19.641  0.00  0.00    +0.000 C 
ATOM      3  C   UNL     1       5.302   4.214  19.131  0.00  0.00    +0.000 C 
ATOM      4  O   UNL     1       6.456   4.504  19.367  0.00  0.00    +0.000 OA
ATOM      5  N   UNL     1       4.361   4.901  18.372  0.00  0.00    +0.000 N 
ATOM      6  C   UNL     1       3.127   4.225  18.385  0.00  0.00    +0.000 A 
ATOM      7  C   UNL     1       1.928   4.582  17.792  0.00  0.00    +0.000 A 
ATOM      8  C   UNL     1       0.830   3.727  17.957  0.00  0.00    +0.000 A 
ATOM      9  C   UNL     1       0.939   2.536  18.701  0.00  0.00    +0.000 A 
ATOM     10  C   UNL     1       2.147   2.182  19.300  0.00  0.00    +0.000 A 
ATOM     11  C   UNL     1       3.210   3.045  19.124  0.00  0.00    +0.000 A 
ENDROOT
BRANCH   5  12
ATOM     12  C   UNL     1       4.620   6.173  17.732  0.00  0.00    +0.000 C 
BRANCH  12  13
ATOM     13  C   UNL     1       5.173   6.046  16.310  0.00  0.00    +0.000 C 
BRANCH  13  14
ATOM     14  C   UNL     1       6.691   6.004  16.276  0.00  0.00    +0.000 C 
ATOM     15 BR   UNL     1       7.411   7.370  17.465  0.00  0.00    +0.000 Br
ENDBRANCH  13  14
ENDBRANCH  12  13
ENDBRANCH   5  12
TORSDOF 3
ENDMDL
MODEL 3
REMARK VINA RESULT:      -6.2      2.815      4.592
REMARK  Name = 
REMARK  3 active torsions:
REMARK  status: ('A' for Active; 'I' for Inactive)
REMARK    1  A    between atoms: N_5  and  C_6
REMARK    2  A    between atoms: C_6  and  C_7
REMARK    3  A    between atoms: C_7  and  C_8
REMARK                            x       y       z     vdW  Elec       q    Type
REMARK                         _______ _______ _______ _____ _____    ______ ____
ROOT
ATOM      1  O   UNL     1       6.738   5.395  19.825  0.00  0.00    +0.000 OA
ATOM      2  C   UNL     1       5.922   5.061  18.999  0.00  0.00    +0.000 C 
ATOM      3  C   UNL     1       4.418   4.778  19.222  0.00  0.00    +0.000 C 
ATOM      4  O   UNL     1       3.843   4.838  20.289  0.00  0.00    +0.000 OA
ATOM      5  N   UNL     1       3.910   4.457  17.968  0.00  0.00    +0.000 N 
ATOM      6  C   UNL     1       4.933   4.472  17.002  0.00  0.00    +0.000 A 
ATOM      7  C   UNL     1       4.865   4.181  15.651  0.00  0.00    +0.000 A 
ATOM      8  C   UNL     1       6.043   4.270  14.896  0.00  0.00    +0.000 A 
ATOM      9  C   UNL     1       7.263   4.649  15.490  0.00  0.00    +0.000 A 
ATOM     10  C   UNL     1       7.328   4.938  16.852  0.00  0.00    +0.000 A 
ATOM     11  C   UNL     1       6.154   4.837  17.571  0.00  0.00    +0.000 A 
ENDROOT
BRANCH   5  12
ATOM     12  C   UNL     1       2.531   4.087  17.731  0.00  0.00    +0.000 C 
BRANCH  12  13
ATOM     13  C   UNL     1       2.297   2.575  17.691  0.00  0.00    +0.000 C 
BRANCH  13  14
ATOM     14  C   UNL     1       1.945   2.004  19.053  0.00  0.00    +0.000 C 
ATOM     15 BR   UNL     1       0.842   3.277  20.033  0.00  0.00    +0.000 Br
ENDBRANCH  13  14
ENDBRANCH  12  13
ENDBRANCH   5  12
TORSDOF 3
ENDMDL
MODEL 4
REMARK VINA RESULT:      -6.2      2.186      2.833
REMARK  Name = 
REMARK  3 active torsions:
REMARK  status: ('A' for Active; 'I' for Inactive)
REMARK    1  A    between atoms: N_5  and  C_6
REMARK    2  A    between atoms: C_6  and  C_7
REMARK    3  A    between atoms: C_7  and  C_8
REMARK                            x       y       z     vdW  Elec       q    Type
REMARK                         _______ _______ _______ _____ _____    ______ ____
ROOT
ATOM      1  O   UNL     1       5.164   2.178  20.273  0.00  0.00    +0.000 OA
ATOM      2  C   UNL     1       4.691   3.077  19.617  0.00  0.00    +0.000 C 
ATOM      3  C   UNL     1       5.386   4.385  19.172  0.00  0.00    +0.000 C 
ATOM      4  O   UNL     1       6.526   4.701  19.443  0.00  0.00    +0.000 OA
ATOM      5  N   UNL     1       4.438   5.073  18.421  0.00  0.00    +0.000 N 
ATOM      6  C   UNL     1       3.226   4.359  18.383  0.00  0.00    +0.000 A 
ATOM      7  C   UNL     1       2.029   4.701  17.780  0.00  0.00    +0.000 A 
ATOM      8  C   UNL     1       0.955   3.807  17.889  0.00  0.00    +0.000 A 
ATOM      9  C   UNL     1       1.087   2.591  18.588  0.00  0.00    +0.000 A 
ATOM     10  C   UNL     1       2.294   2.251  19.197  0.00  0.00    +0.000 A 
ATOM     11  C   UNL     1       3.333   3.154  19.077  0.00  0.00    +0.000 A 
ENDROOT
BRANCH   5  12
ATOM     12  C   UNL     1       4.669   6.376  17.837  0.00  0.00    +0.000 C 
BRANCH  12  13
ATOM     13  C   UNL     1       5.733   6.379  16.736  0.00  0.00    +0.000 C 
BRANCH  13  14
ATOM     14  C   UNL     1       5.252   5.710  15.460  0.00  0.00    +0.000 C 
ATOM     15 BR   UNL     1       6.090   3.960  15.281  0.00  0.00    +0.000 Br
ENDBRANCH  13  14
ENDBRANCH  12  13
ENDBRANCH   5  12
TORSDOF 3
ENDMDL
MODEL 5
REMARK VINA RESULT:      -6.1      3.039      3.729
REMARK  Name = 
REMARK  3 active torsions:
REMARK  status: ('A' for Active; 'I' for Inactive)
REMARK    1  A    between atoms: N_5  and  C_6
REMARK    2  A    between atoms: C_6  and  C_7
REMARK    3  A    between atoms: C_7  and  C_8
REMARK                            x       y       z     vdW  Elec       q    Type
REMARK                         _______ _______ _______ _____ _____    ______ ____
ROOT
ATOM      1  O   UNL     1       2.107   7.362  19.922  0.00  0.00    +0.000 OA
ATOM      2  C   UNL     1       2.483   6.387  19.317  0.00  0.00    +0.000 C 
ATOM      3  C   UNL     1       3.430   6.344  18.095  0.00  0.00    +0.000 C 
ATOM      4  O   UNL     1       3.923   7.312  17.555  0.00  0.00    +0.000 OA
ATOM      5  N   UNL     1       3.575   4.996  17.784  0.00  0.00    +0.000 N 
ATOM      6  C   UNL     1       2.798   4.203  18.648  0.00  0.00    +0.000 A 
ATOM      7  C   UNL     1       2.629   2.830  18.661  0.00  0.00    +0.000 A 
ATOM      8  C   UNL     1       1.789   2.277  19.637  0.00  0.00    +0.000 A 
ATOM      9  C   UNL     1       1.134   3.091  20.582  0.00  0.00    +0.000 A 
ATOM     10  C   UNL     1       1.303   4.475  20.563  0.00  0.00    +0.000 A 
ATOM     11  C   UNL     1       2.133   4.992  19.588  0.00  0.00    +0.000 A 
ENDROOT
BRANCH   5  12
ATOM     12  C   UNL     1       4.363   4.509  16.672  0.00  0.00    +0.000 C 
BRANCH  12  13
ATOM     13  C   UNL     1       5.849   4.335  16.998  0.00  0.00    +0.000 C 
BRANCH  13  14
ATOM     14  C   UNL     1       6.703   5.460  16.440  0.00  0.00    +0.000 C 
ATOM     15 BR   UNL     1       7.424   6.523  17.906  0.00  0.00    +0.000 Br
ENDBRANCH  13  14
ENDBRANCH  12  13
ENDBRANCH   5  12
TORSDOF 3
ENDMDL
MODEL 6
REMARK VINA RESULT:      -6.0      2.007      2.445
REMARK  Name = 
REMARK  3 active torsions:
REMARK  status: ('A' for Active; 'I' for Inactive)
REMARK    1  A    between atoms: N_5  and  C_6
REMARK    2  A    between atoms: C_6  and  C_7
REMARK    3  A    between atoms: C_7  and  C_8
REMARK                            x       y       z     vdW  Elec       q    Type
REMARK                         _______ _______ _______ _____ _____    ______ ____
ROOT
ATOM      1  O   UNL     1       2.765   7.198  18.728  0.00  0.00    +0.000 OA
ATOM      2  C   UNL     1       3.166   6.169  18.238  0.00  0.00    +0.000 C 
ATOM      3  C   UNL     1       4.377   5.984  17.294  0.00  0.00    +0.000 C 
ATOM      4  O   UNL     1       5.096   6.875  16.893  0.00  0.00    +0.000 OA
ATOM      5  N   UNL     1       4.440   4.620  17.032  0.00  0.00    +0.000 N 
ATOM      6  C   UNL     1       3.385   3.945  17.675  0.00  0.00    +0.000 A 
ATOM      7  C   UNL     1       3.063   2.599  17.647  0.00  0.00    +0.000 A 
ATOM      8  C   UNL     1       1.948   2.173  18.381  0.00  0.00    +0.000 A 
ATOM      9  C   UNL     1       1.176   3.082  19.130  0.00  0.00    +0.000 A 
ATOM     10  C   UNL     1       1.501   4.438  19.151  0.00  0.00    +0.000 A 
ATOM     11  C   UNL     1       2.602   4.830  18.415  0.00  0.00    +0.000 A 
ENDROOT
BRANCH   5  12
ATOM     12  C   UNL     1       5.418   4.015  16.154  0.00  0.00    +0.000 C 
BRANCH  12  13
ATOM     13  C   UNL     1       5.354   4.528  14.713  0.00  0.00    +0.000 C 
BRANCH  13  14
ATOM     14  C   UNL     1       6.453   3.949  13.839  0.00  0.00    +0.000 C 
ATOM     15 BR   UNL     1       5.681   3.255  12.190  0.00  0.00    +0.000 Br
ENDBRANCH  13  14
ENDBRANCH  12  13
ENDBRANCH   5  12
TORSDOF 3
ENDMDL
MODEL 7
REMARK VINA RESULT:      -6.0      1.948      2.240
REMARK  Name = 
REMARK  3 active torsions:
REMARK  status: ('A' for Active; 'I' for Inactive)
REMARK    1  A    between atoms: N_5  and  C_6
REMARK    2  A    between atoms: C_6  and  C_7
REMARK    3  A    between atoms: C_7  and  C_8
REMARK                            x       y       z     vdW  Elec       q    Type
REMARK                         _______ _______ _______ _____ _____    ______ ____
ROOT
ATOM      1  O   UNL     1       3.465   7.931  17.809  0.00  0.00    +0.000 OA
ATOM      2  C   UNL     1       3.907   6.826  17.601  0.00  0.00    +0.000 C 
ATOM      3  C   UNL     1       5.311   6.458  17.066  0.00  0.00    +0.000 C 
ATOM      4  O   UNL     1       6.174   7.252  16.758  0.00  0.00    +0.000 OA
ATOM      5  N   UNL     1       5.342   5.068  17.029  0.00  0.00    +0.000 N 
ATOM      6  C   UNL     1       4.108   4.535  17.444  0.00  0.00    +0.000 A 
ATOM      7  C   UNL     1       3.708   3.213  17.521  0.00  0.00    +0.000 A 
ATOM      8  C   UNL     1       2.409   2.941  17.971  0.00  0.00    +0.000 A 
ATOM      9  C   UNL     1       1.532   3.980  18.338  0.00  0.00    +0.000 A 
ATOM     10  C   UNL     1       1.937   5.312  18.255  0.00  0.00    +0.000 A 
ATOM     11  C   UNL     1       3.220   5.549  17.805  0.00  0.00    +0.000 A 
ENDROOT
BRANCH   5  12
ATOM     12  C   UNL     1       6.475   4.303  16.553  0.00  0.00    +0.000 C 
BRANCH  12  13
ATOM     13  C   UNL     1       6.238   3.629  15.199  0.00  0.00    +0.000 C 
BRANCH  13  14
ATOM     14  C   UNL     1       6.634   4.514  14.030  0.00  0.00    +0.000 C 
ATOM     15 BR   UNL     1       6.249   3.598  12.354  0.00  0.00    +0.000 Br
ENDBRANCH  13  14
ENDBRANCH  12  13
ENDBRANCH   5  12
TORSDOF 3
ENDMDL
MODEL 8
REMARK VINA RESULT:      -6.0      3.031      4.168
REMARK  Name = 
REMARK  3 active torsions:
REMARK  status: ('A' for Active; 'I' for Inactive)
REMARK    1  A    between atoms: N_5  and  C_6
REMARK    2  A    between atoms: C_6  and  C_7
REMARK    3  A    between atoms: C_7  and  C_8
REMARK                            x       y       z     vdW  Elec       q    Type
REMARK                         _______ _______ _______ _____ _____    ______ ____
ROOT
ATOM      1  O   UNL     1       2.439   2.232  16.761  0.00  0.00    +0.000 OA
ATOM      2  C   UNL     1       2.893   3.157  17.391  0.00  0.00    +0.000 C 
ATOM      3  C   UNL     1       4.193   3.944  17.104  0.00  0.00    +0.000 C 
ATOM      4  O   UNL     1       4.962   3.721  16.193  0.00  0.00    +0.000 OA
ATOM      5  N   UNL     1       4.261   4.922  18.092  0.00  0.00    +0.000 N 
ATOM      6  C   UNL     1       3.173   4.806  18.977  0.00  0.00    +0.000 A 
ATOM      7  C   UNL     1       2.882   5.551  20.106  0.00  0.00    +0.000 A 
ATOM      8  C   UNL     1       1.723   5.232  20.827  0.00  0.00    +0.000 A 
ATOM      9  C   UNL     1       0.874   4.186  20.416  0.00  0.00    +0.000 A 
ATOM     10  C   UNL     1       1.173   3.436  19.280  0.00  0.00    +0.000 A 
ATOM     11  C   UNL     1       2.323   3.770  18.592  0.00  0.00    +0.000 A 
ENDROOT
BRANCH   5  12
ATOM     12  C   UNL     1       5.351   5.865  18.213  0.00  0.00    +0.000 C 
BRANCH  12  13
ATOM     13  C   UNL     1       6.459   5.409  19.167  0.00  0.00    +0.000 C 
BRANCH  13  14
ATOM     14  C   UNL     1       7.797   6.058  18.859  0.00  0.00    +0.000 C 
ATOM     15 BR   UNL     1       7.549   7.487  17.559  0.00  0.00    +0.000 Br
ENDBRANCH  13  14
ENDBRANCH  12  13
ENDBRANCH   5  12
TORSDOF 3
ENDMDL
MODEL 9
REMARK VINA RESULT:      -6.0      2.457      3.214
REMARK  Name = 
REMARK  3 active torsions:
REMARK  status: ('A' for Active; 'I' for Inactive)
REMARK    1  A    between atoms: N_5  and  C_6
REMARK    2  A    between atoms: C_6  and  C_7
REMARK    3  A    between atoms: C_7  and  C_8
REMARK                            x       y       z     vdW  Elec       q    Type
REMARK                         _______ _______ _______ _____ _____    ______ ____
ROOT
ATOM      1  O   UNL     1       2.148   7.594  19.507  0.00  0.00    +0.000 OA
ATOM      2  C   UNL     1       2.580   6.542  19.098  0.00  0.00    +0.000 C 
ATOM      3  C   UNL     1       3.642   6.326  17.994  0.00  0.00    +0.000 C 
ATOM      4  O   UNL     1       4.187   7.206  17.362  0.00  0.00    +0.000 OA
ATOM      5  N   UNL     1       3.815   4.948  17.910  0.00  0.00    +0.000 N 
ATOM      6  C   UNL     1       2.956   4.287  18.808  0.00  0.00    +0.000 A 
ATOM      7  C   UNL     1       2.785   2.930  19.016  0.00  0.00    +0.000 A 
ATOM      8  C   UNL     1       1.853   2.522  19.979  0.00  0.00    +0.000 A 
ATOM      9  C   UNL     1       1.111   3.462  20.720  0.00  0.00    +0.000 A 
ATOM     10  C   UNL     1       1.282   4.828  20.505  0.00  0.00    +0.000 A 
ATOM     11  C   UNL     1       2.204   5.201  19.546  0.00  0.00    +0.000 A 
ENDROOT
BRANCH   5  12
ATOM     12  C   UNL     1       4.706   4.307  16.968  0.00  0.00    +0.000 C 
BRANCH  12  13
ATOM     13  C   UNL     1       6.188   4.580  17.237  0.00  0.00    +0.000 C 
BRANCH  13  14
ATOM     14  C   UNL     1       7.025   4.554  15.970  0.00  0.00    +0.000 C 
ATOM     15 BR   UNL     1       5.866   4.304  14.424  0.00  0.00    +0.000 Br
ENDBRANCH  13  14
ENDBRANCH  12  13
ENDBRANCH   5  12
TORSDOF 3
ENDMDL
