MODEL 1
REMARK VINA RESULT:      -8.3      0.000      0.000
REMARK  Name = 
REMARK  4 active torsions:
REMARK  status: ('A' for Active; 'I' for Inactive)
REMARK    1  A    between atoms: N_2  and  C_4
REMARK    2  A    between atoms: C_7  and  N_8
REMARK    3  A    between atoms: N_8  and  C_9
REMARK    4  A    between atoms: C_9  and  N_11
REMARK                            x       y       z     vdW  Elec       q    Type
REMARK                         _______ _______ _______ _____ _____    ______ ____
ROOT
ATOM      1  N   UNL     1       5.802   7.156  16.664  0.00  0.00    +0.000 N 
ATOM      2  C   UNL     1       4.778   6.744  17.468  0.00  0.00    +0.000 A 
ATOM      3  N   UNL     1       4.813   5.664  18.186  0.00  0.00    +0.000 NA
ATOM      4  C   UNL     1       3.675   5.594  18.968  0.00  0.00    +0.000 A 
ATOM      5  C   UNL     1       2.866   6.734  18.937  0.00  0.00    +0.000 A 
ATOM      6  C   UNL     1       1.797   6.887  19.833  0.00  0.00    +0.000 A 
ATOM      7  C   UNL     1       1.552   5.854  20.762  0.00  0.00    +0.000 A 
ATOM      8  C   UNL     1       2.292   4.658  20.751  0.00  0.00    +0.000 A 
ATOM      9  C   UNL     1       2.056   3.580  21.622  0.00  0.00    +0.000 A 
ATOM     10  C   UNL     1       2.779   2.387  21.498  0.00  0.00    +0.000 A 
ATOM     11  C   UNL     1       3.750   2.241  20.516  0.00  0.00    +0.000 A 
ATOM     12  C   UNL     1       4.045   3.312  19.678  0.00  0.00    +0.000 A 
ATOM     13  C   UNL     1       3.329   4.514  19.810  0.00  0.00    +0.000 A 
ATOM     14  S   UNL     1       3.428   7.761  17.653  0.00  0.00    +0.000 S 
ATOM     15  H   UNL     1       5.588   7.683  15.827  0.00  0.00    +0.000 HD
ENDROOT
BRANCH   1  16
ATOM     16  C   UNL     1       7.111   6.759  16.896  0.00  0.00    +0.000 C 
ATOM     17  S   UNL     1       8.039   7.701  17.912  0.00  0.00    +0.000 S 
BRANCH  16  18
ATOM     18  N   UNL     1       7.378   5.488  16.378  0.00  0.00    +0.000 N 
ATOM     19  H   UNL     1       8.276   5.128  16.671  0.00  0.00    +0.000 HD
BRANCH  18  23
ATOM     20  C   UNL     1       5.870   3.570  12.942  0.00  0.00    +0.000 A 
ATOM     21  C   UNL     1       5.267   3.396  14.188  0.00  0.00    +0.000 A 
ATOM     22  C   UNL     1       5.773   4.087  15.293  0.00  0.00    +0.000 A 
ATOM     23  C   UNL     1       6.901   4.919  15.177  0.00  0.00    +0.000 A 
ATOM     24  C   UNL     1       7.474   5.102  13.921  0.00  0.00    +0.000 A 
ATOM     25  C   UNL     1       6.962   4.436  12.798  0.00  0.00    +0.000 A 
BRANCH  20  27
ATOM     26  O   UNL     1       4.287   3.220  11.283  0.00  0.00    +0.000 OA
ATOM     27  N   UNL     1       5.362   2.840  11.775  0.00  0.00    +0.000 N 
ATOM     28  O   UNL     1       6.030   1.887  11.352  0.00  0.00    +0.000 OA
ENDBRANCH  20  27
ENDBRANCH  18  23
ENDBRANCH  16  18
ENDBRANCH   1  16
TORSDOF 4
ENDMDL
MODEL 2
REMARK VINA RESULT:      -8.0      0.257      1.151
REMARK  Name = 
REMARK  4 active torsions:
REMARK  status: ('A' for Active; 'I' for Inactive)
REMARK    1  A    between atoms: N_2  and  C_4
REMARK    2  A    between atoms: C_7  and  N_8
REMARK    3  A    between atoms: N_8  and  C_9
REMARK    4  A    between atoms: C_9  and  N_11
REMARK                            x       y       z     vdW  Elec       q    Type
REMARK                         _______ _______ _______ _____ _____    ______ ____
ROOT
ATOM      1  N   UNL     1       5.716   7.325  16.748  0.00  0.00    +0.000 N 
ATOM      2  C   UNL     1       4.703   6.859  17.535  0.00  0.00    +0.000 A 
ATOM      3  N   UNL     1       4.781   5.775  18.244  0.00  0.00    +0.000 NA
ATOM      4  C   UNL     1       3.638   5.644  19.012  0.00  0.00    +0.000 A 
ATOM      5  C   UNL     1       2.777   6.745  18.981  0.00  0.00    +0.000 A 
ATOM      6  C   UNL     1       1.691   6.839  19.864  0.00  0.00    +0.000 A 
ATOM      7  C   UNL     1       1.484   5.788  20.781  0.00  0.00    +0.000 A 
ATOM      8  C   UNL     1       2.279   4.628  20.770  0.00  0.00    +0.000 A 
ATOM      9  C   UNL     1       2.083   3.532  21.628  0.00  0.00    +0.000 A 
ATOM     10  C   UNL     1       2.863   2.376  21.502  0.00  0.00    +0.000 A 
ATOM     11  C   UNL     1       3.852   2.285  20.532  0.00  0.00    +0.000 A 
ATOM     12  C   UNL     1       4.106   3.375  19.707  0.00  0.00    +0.000 A 
ATOM     13  C   UNL     1       3.332   4.541  19.840  0.00  0.00    +0.000 A 
ATOM     14  S   UNL     1       3.306   7.809  17.713  0.00  0.00    +0.000 S 
ATOM     15  H   UNL     1       5.488   7.850  15.913  0.00  0.00    +0.000 HD
ENDROOT
BRANCH   1  16
ATOM     16  C   UNL     1       7.040   6.988  16.993  0.00  0.00    +0.000 C 
ATOM     17  S   UNL     1       7.984   8.093  17.812  0.00  0.00    +0.000 S 
BRANCH  16  18
ATOM     18  N   UNL     1       7.313   5.654  16.676  0.00  0.00    +0.000 N 
ATOM     19  H   UNL     1       8.204   5.341  17.037  0.00  0.00    +0.000 HD
BRANCH  18  23
ATOM     20  C   UNL     1       6.011   3.663  13.198  0.00  0.00    +0.000 A 
ATOM     21  C   UNL     1       7.029   4.615  13.144  0.00  0.00    +0.000 A 
ATOM     22  C   UNL     1       7.461   5.218  14.330  0.00  0.00    +0.000 A 
ATOM     23  C   UNL     1       6.859   4.913  15.563  0.00  0.00    +0.000 A 
ATOM     24  C   UNL     1       5.862   3.941  15.601  0.00  0.00    +0.000 A 
ATOM     25  C   UNL     1       5.436   3.308  14.425  0.00  0.00    +0.000 A 
BRANCH  20  27
ATOM     26  O   UNL     1       6.294   2.227  11.397  0.00  0.00    +0.000 OA
ATOM     27  N   UNL     1       5.534   3.032  11.961  0.00  0.00    +0.000 N 
ATOM     28  O   UNL     1       4.407   3.341  11.550  0.00  0.00    +0.000 OA
ENDBRANCH  20  27
ENDBRANCH  18  23
ENDBRANCH  16  18
ENDBRANCH   1  16
TORSDOF 4
ENDMDL
MODEL 3
REMARK VINA RESULT:      -8.0      1.209      1.367
REMARK  Name = 
REMARK  4 active torsions:
REMARK  status: ('A' for Active; 'I' for Inactive)
REMARK    1  A    between atoms: N_2  and  C_4
REMARK    2  A    between atoms: C_7  and  N_8
REMARK    3  A    between atoms: N_8  and  C_9
REMARK    4  A    between atoms: C_9  and  N_11
REMARK                            x       y       z     vdW  Elec       q    Type
REMARK                         _______ _______ _______ _____ _____    ______ ____
ROOT
ATOM      1  N   UNL     1       6.054   6.811  16.652  0.00  0.00    +0.000 N 
ATOM      2  C   UNL     1       4.908   6.520  17.334  0.00  0.00    +0.000 A 
ATOM      3  N   UNL     1       4.510   5.313  17.595  0.00  0.00    +0.000 NA
ATOM      4  C   UNL     1       3.383   5.363  18.394  0.00  0.00    +0.000 A 
ATOM      5  C   UNL     1       3.044   6.637  18.859  0.00  0.00    +0.000 A 
ATOM      6  C   UNL     1       2.054   6.811  19.838  0.00  0.00    +0.000 A 
ATOM      7  C   UNL     1       1.401   5.664  20.337  0.00  0.00    +0.000 A 
ATOM      8  C   UNL     1       1.657   4.382  19.819  0.00  0.00    +0.000 A 
ATOM      9  C   UNL     1       0.999   3.216  20.247  0.00  0.00    +0.000 A 
ATOM     10  C   UNL     1       1.248   1.985  19.626  0.00  0.00    +0.000 A 
ATOM     11  C   UNL     1       2.154   1.884  18.578  0.00  0.00    +0.000 A 
ATOM     12  C   UNL     1       2.861   3.011  18.173  0.00  0.00    +0.000 A 
ATOM     13  C   UNL     1       2.622   4.245  18.804  0.00  0.00    +0.000 A 
ATOM     14  S   UNL     1       4.010   7.799  18.001  0.00  0.00    +0.000 S 
ATOM     15  H   UNL     1       6.092   7.653  16.092  0.00  0.00    +0.000 HD
ENDROOT
BRANCH   1  16
ATOM     16  C   UNL     1       7.116   5.919  16.604  0.00  0.00    +0.000 C 
ATOM     17  S   UNL     1       7.470   5.058  17.988  0.00  0.00    +0.000 S 
BRANCH  16  18
ATOM     18  N   UNL     1       7.601   5.744  15.304  0.00  0.00    +0.000 N 
ATOM     19  H   UNL     1       8.151   6.531  14.984  0.00  0.00    +0.000 HD
BRANCH  18  23
ATOM     20  C   UNL     1       5.805   3.302  12.378  0.00  0.00    +0.000 A 
ATOM     21  C   UNL     1       5.194   3.513  13.615  0.00  0.00    +0.000 A 
ATOM     22  C   UNL     1       5.804   4.368  14.539  0.00  0.00    +0.000 A 
ATOM     23  C   UNL     1       7.038   4.981  14.259  0.00  0.00    +0.000 A 
ATOM     24  C   UNL     1       7.620   4.780  13.010  0.00  0.00    +0.000 A 
ATOM     25  C   UNL     1       7.008   3.946  12.063  0.00  0.00    +0.000 A 
BRANCH  20  27
ATOM     26  O   UNL     1       5.816   1.369  11.094  0.00  0.00    +0.000 OA
ATOM     27  N   UNL     1       5.187   2.395  11.403  0.00  0.00    +0.000 N 
ATOM     28  O   UNL     1       4.081   2.707  10.942  0.00  0.00    +0.000 OA
ENDBRANCH  20  27
ENDBRANCH  18  23
ENDBRANCH  16  18
ENDBRANCH   1  16
TORSDOF 4
ENDMDL
MODEL 4
REMARK VINA RESULT:      -7.9      3.457      5.369
REMARK  Name = 
REMARK  4 active torsions:
REMARK  status: ('A' for Active; 'I' for Inactive)
REMARK    1  A    between atoms: N_2  and  C_4
REMARK    2  A    between atoms: C_7  and  N_8
REMARK    3  A    between atoms: N_8  and  C_9
REMARK    4  A    between atoms: C_9  and  N_11
REMARK                            x       y       z     vdW  Elec       q    Type
REMARK                         _______ _______ _______ _____ _____    ______ ____
ROOT
ATOM      1  N   UNL     1       2.696   6.429  18.608  0.00  0.00    +0.000 N 
ATOM      2  C   UNL     1       2.065   7.611  18.870  0.00  0.00    +0.000 A 
ATOM      3  N   UNL     1       1.540   7.911  20.018  0.00  0.00    +0.000 NA
ATOM      4  C   UNL     1       1.085   9.216  19.988  0.00  0.00    +0.000 A 
ATOM      5  C   UNL     1       1.432   9.937  18.842  0.00  0.00    +0.000 A 
ATOM      6  C   UNL     1       1.219  11.322  18.766  0.00  0.00    +0.000 A 
ATOM      7  C   UNL     1       0.636  11.969  19.875  0.00  0.00    +0.000 A 
ATOM      8  C   UNL     1       0.193  11.253  21.002  0.00  0.00    +0.000 A 
ATOM      9  C   UNL     1      -0.438  11.843  22.110  0.00  0.00    +0.000 A 
ATOM     10  C   UNL     1      -0.927  11.055  23.160  0.00  0.00    +0.000 A 
ATOM     11  C   UNL     1      -0.796   9.672  23.134  0.00  0.00    +0.000 A 
ATOM     12  C   UNL     1      -0.125   9.067  22.077  0.00  0.00    +0.000 A 
ATOM     13  C   UNL     1       0.378   9.858  21.030  0.00  0.00    +0.000 A 
ATOM     14  S   UNL     1       2.077   8.822  17.677  0.00  0.00    +0.000 S 
ATOM     15  H   UNL     1       2.670   6.056  17.668  0.00  0.00    +0.000 HD
ENDROOT
BRANCH   1  16
ATOM     16  C   UNL     1       3.257   5.666  19.623  0.00  0.00    +0.000 C 
ATOM     17  S   UNL     1       2.235   5.053  20.790  0.00  0.00    +0.000 S 
BRANCH  16  18
ATOM     18  N   UNL     1       4.601   5.368  19.378  0.00  0.00    +0.000 N 
ATOM     19  H   UNL     1       5.220   5.751  20.081  0.00  0.00    +0.000 HD
BRANCH  18  23
ATOM     20  C   UNL     1       6.506   4.934  15.645  0.00  0.00    +0.000 A 
ATOM     21  C   UNL     1       6.840   5.978  16.507  0.00  0.00    +0.000 A 
ATOM     22  C   UNL     1       6.215   6.058  17.756  0.00  0.00    +0.000 A 
ATOM     23  C   UNL     1       5.229   5.130  18.136  0.00  0.00    +0.000 A 
ATOM     24  C   UNL     1       4.927   4.079  17.274  0.00  0.00    +0.000 A 
ATOM     25  C   UNL     1       5.564   3.970  16.030  0.00  0.00    +0.000 A 
BRANCH  20  27
ATOM     26  O   UNL     1       8.101   5.598  14.096  0.00  0.00    +0.000 OA
ATOM     27  N   UNL     1       7.140   4.844  14.324  0.00  0.00    +0.000 N 
ATOM     28  O   UNL     1       6.679   4.028  13.515  0.00  0.00    +0.000 OA
ENDBRANCH  20  27
ENDBRANCH  18  23
ENDBRANCH  16  18
ENDBRANCH   1  16
TORSDOF 4
ENDMDL
MODEL 5
REMARK VINA RESULT:      -7.7      4.141      6.348
REMARK  Name = 
REMARK  4 active torsions:
REMARK  status: ('A' for Active; 'I' for Inactive)
REMARK    1  A    between atoms: N_2  and  C_4
REMARK    2  A    between atoms: C_7  and  N_8
REMARK    3  A    between atoms: N_8  and  C_9
REMARK    4  A    between atoms: C_9  and  N_11
REMARK                            x       y       z     vdW  Elec       q    Type
REMARK                         _______ _______ _______ _____ _____    ______ ____
ROOT
ATOM      1  N   UNL     1       2.425   7.148  20.631  0.00  0.00    +0.000 N 
ATOM      2  C   UNL     1       1.625   8.254  20.683  0.00  0.00    +0.000 A 
ATOM      3  N   UNL     1       0.814   8.604  19.732  0.00  0.00    +0.000 NA
ATOM      4  C   UNL     1       0.071   9.695  20.141  0.00  0.00    +0.000 A 
ATOM      5  C   UNL     1       0.231  10.050  21.483  0.00  0.00    +0.000 A 
ATOM      6  C   UNL     1      -0.608  11.000  22.086  0.00  0.00    +0.000 A 
ATOM      7  C   UNL     1      -1.615  11.596  21.298  0.00  0.00    +0.000 A 
ATOM      8  C   UNL     1      -1.737  11.325  19.923  0.00  0.00    +0.000 A 
ATOM      9  C   UNL     1      -2.690  11.929  19.085  0.00  0.00    +0.000 A 
ATOM     10  C   UNL     1      -2.697  11.673  17.708  0.00  0.00    +0.000 A 
ATOM     11  C   UNL     1      -1.768  10.812  17.138  0.00  0.00    +0.000 A 
ATOM     12  C   UNL     1      -0.851  10.156  17.952  0.00  0.00    +0.000 A 
ATOM     13  C   UNL     1      -0.850  10.403  19.336  0.00  0.00    +0.000 A 
ATOM     14  S   UNL     1       1.579   9.159  22.121  0.00  0.00    +0.000 S 
ATOM     15  H   UNL     1       3.312   7.160  21.117  0.00  0.00    +0.000 HD
ENDROOT
BRANCH   1  16
ATOM     16  C   UNL     1       2.111   6.064  19.824  0.00  0.00    +0.000 C 
ATOM     17  S   UNL     1       1.299   4.786  20.522  0.00  0.00    +0.000 S 
BRANCH  16  18
ATOM     18  N   UNL     1       2.364   6.320  18.473  0.00  0.00    +0.000 N 
ATOM     19  H   UNL     1       1.521   6.514  17.948  0.00  0.00    +0.000 HD
BRANCH  18  23
ATOM     20  C   UNL     1       5.528   5.131  15.956  0.00  0.00    +0.000 A 
ATOM     21  C   UNL     1       5.308   6.477  16.250  0.00  0.00    +0.000 A 
ATOM     22  C   UNL     1       4.274   6.823  17.127  0.00  0.00    +0.000 A 
ATOM     23  C   UNL     1       3.430   5.843  17.680  0.00  0.00    +0.000 A 
ATOM     24  C   UNL     1       3.681   4.503  17.396  0.00  0.00    +0.000 A 
ATOM     25  C   UNL     1       4.730   4.138  16.541  0.00  0.00    +0.000 A 
BRANCH  20  27
ATOM     26  O   UNL     1       7.637   5.432  15.038  0.00  0.00    +0.000 OA
ATOM     27  N   UNL     1       6.598   4.751  15.026  0.00  0.00    +0.000 N 
ATOM     28  O   UNL     1       6.402   3.780  14.284  0.00  0.00    +0.000 OA
ENDBRANCH  20  27
ENDBRANCH  18  23
ENDBRANCH  16  18
ENDBRANCH   1  16
TORSDOF 4
ENDMDL
MODEL 6
REMARK VINA RESULT:      -7.7      5.973      8.431
REMARK  Name = 
REMARK  4 active torsions:
REMARK  status: ('A' for Active; 'I' for Inactive)
REMARK    1  A    between atoms: N_2  and  C_4
REMARK    2  A    between atoms: C_7  and  N_8
REMARK    3  A    between atoms: N_8  and  C_9
REMARK    4  A    between atoms: C_9  and  N_11
REMARK                            x       y       z     vdW  Elec       q    Type
REMARK                         _______ _______ _______ _____ _____    ______ ____
ROOT
ATOM      1  N   UNL     1       2.276   9.279  18.439  0.00  0.00    +0.000 N 
ATOM      2  C   UNL     1       2.662   7.970  18.393  0.00  0.00    +0.000 A 
ATOM      3  N   UNL     1       2.137   7.037  19.128  0.00  0.00    +0.000 NA
ATOM      4  C   UNL     1       2.665   5.812  18.761  0.00  0.00    +0.000 A 
ATOM      5  C   UNL     1       3.475   5.835  17.622  0.00  0.00    +0.000 A 
ATOM      6  C   UNL     1       3.908   4.646  17.017  0.00  0.00    +0.000 A 
ATOM      7  C   UNL     1       3.510   3.421  17.594  0.00  0.00    +0.000 A 
ATOM      8  C   UNL     1       2.774   3.371  18.792  0.00  0.00    +0.000 A 
ATOM      9  C   UNL     1       2.397   2.179  19.433  0.00  0.00    +0.000 A 
ATOM     10  C   UNL     1       1.736   2.208  20.667  0.00  0.00    +0.000 A 
ATOM     11  C   UNL     1       1.433   3.414  21.286  0.00  0.00    +0.000 A 
ATOM     12  C   UNL     1       1.743   4.610  20.646  0.00  0.00    +0.000 A 
ATOM     13  C   UNL     1       2.395   4.582  19.401  0.00  0.00    +0.000 A 
ATOM     14  S   UNL     1       3.796   7.495  17.221  0.00  0.00    +0.000 S 
ATOM     15  H   UNL     1       2.957   9.999  18.236  0.00  0.00    +0.000 HD
ENDROOT
BRANCH   1  16
ATOM     16  C   UNL     1       1.013   9.648  18.882  0.00  0.00    +0.000 C 
ATOM     17  S   UNL     1       0.735   9.645  20.526  0.00  0.00    +0.000 S 
BRANCH  16  18
ATOM     18  N   UNL     1       0.223  10.165  17.851  0.00  0.00    +0.000 N 
ATOM     19  H   UNL     1       0.758  10.696  17.178  0.00  0.00    +0.000 HD
BRANCH  18  23
ATOM     20  C   UNL     1      -3.876  11.131  17.707  0.00  0.00    +0.000 A 
ATOM     21  C   UNL     1      -3.352  10.096  16.932  0.00  0.00    +0.000 A 
ATOM     22  C   UNL     1      -1.995   9.780  17.045  0.00  0.00    +0.000 A 
ATOM     23  C   UNL     1      -1.145  10.513  17.893  0.00  0.00    +0.000 A 
ATOM     24  C   UNL     1      -1.690  11.526  18.678  0.00  0.00    +0.000 A 
ATOM     25  C   UNL     1      -3.055  11.837  18.596  0.00  0.00    +0.000 A 
BRANCH  20  27
ATOM     26  O   UNL     1      -6.118  10.776  18.190  0.00  0.00    +0.000 OA
ATOM     27  N   UNL     1      -5.296  11.487  17.589  0.00  0.00    +0.000 N 
ATOM     28  O   UNL     1      -5.590  12.470  16.896  0.00  0.00    +0.000 OA
ENDBRANCH  20  27
ENDBRANCH  18  23
ENDBRANCH  16  18
ENDBRANCH   1  16
TORSDOF 4
ENDMDL
MODEL 7
REMARK VINA RESULT:      -7.6      3.426      5.286
REMARK  Name = 
REMARK  4 active torsions:
REMARK  status: ('A' for Active; 'I' for Inactive)
REMARK    1  A    between atoms: N_2  and  C_4
REMARK    2  A    between atoms: C_7  and  N_8
REMARK    3  A    between atoms: N_8  and  C_9
REMARK    4  A    between atoms: C_9  and  N_11
REMARK                            x       y       z     vdW  Elec       q    Type
REMARK                         _______ _______ _______ _____ _____    ______ ____
ROOT
ATOM      1  N   UNL     1       2.654   6.315  18.640  0.00  0.00    +0.000 N 
ATOM      2  C   UNL     1       2.026   7.499  18.903  0.00  0.00    +0.000 A 
ATOM      3  N   UNL     1       1.518   7.806  20.057  0.00  0.00    +0.000 NA
ATOM      4  C   UNL     1       1.061   9.111  20.026  0.00  0.00    +0.000 A 
ATOM      5  C   UNL     1       1.391   9.825  18.870  0.00  0.00    +0.000 A 
ATOM      6  C   UNL     1       1.175  11.209  18.788  0.00  0.00    +0.000 A 
ATOM      7  C   UNL     1       0.608  11.862  19.902  0.00  0.00    +0.000 A 
ATOM      8  C   UNL     1       0.182  11.153  21.040  0.00  0.00    +0.000 A 
ATOM      9  C   UNL     1      -0.433  11.750  22.153  0.00  0.00    +0.000 A 
ATOM     10  C   UNL     1      -0.906  10.968  23.215  0.00  0.00    +0.000 A 
ATOM     11  C   UNL     1      -0.775   9.585  23.196  0.00  0.00    +0.000 A 
ATOM     12  C   UNL     1      -0.118   8.973  22.133  0.00  0.00    +0.000 A 
ATOM     13  C   UNL     1       0.368   9.758  21.073  0.00  0.00    +0.000 A 
ATOM     14  S   UNL     1       2.019   8.702  17.702  0.00  0.00    +0.000 S 
ATOM     15  H   UNL     1       2.615   5.937  17.703  0.00  0.00    +0.000 HD
ENDROOT
BRANCH   1  16
ATOM     16  C   UNL     1       3.230   5.560  19.651  0.00  0.00    +0.000 C 
ATOM     17  S   UNL     1       2.239   5.020  20.879  0.00  0.00    +0.000 S 
BRANCH  16  18
ATOM     18  N   UNL     1       4.550   5.203  19.357  0.00  0.00    +0.000 N 
ATOM     19  H   UNL     1       5.173   5.329  20.143  0.00  0.00    +0.000 HD
BRANCH  18  23
ATOM     20  C   UNL     1       6.476   5.007  15.614  0.00  0.00    +0.000 A 
ATOM     21  C   UNL     1       5.500   4.077  15.972  0.00  0.00    +0.000 A 
ATOM     22  C   UNL     1       4.854   4.206  17.206  0.00  0.00    +0.000 A 
ATOM     23  C   UNL     1       5.201   5.230  18.105  0.00  0.00    +0.000 A 
ATOM     24  C   UNL     1       6.159   6.165  17.720  0.00  0.00    +0.000 A 
ATOM     25  C   UNL     1       6.797   6.064  16.476  0.00  0.00    +0.000 A 
BRANCH  20  27
ATOM     26  O   UNL     1       6.721   4.062  13.509  0.00  0.00    +0.000 OA
ATOM     27  N   UNL     1       7.175   4.876  14.330  0.00  0.00    +0.000 N 
ATOM     28  O   UNL     1       8.176   5.580  14.142  0.00  0.00    +0.000 OA
ENDBRANCH  20  27
ENDBRANCH  18  23
ENDBRANCH  16  18
ENDBRANCH   1  16
TORSDOF 4
ENDMDL
MODEL 8
REMARK VINA RESULT:      -7.5      4.207      6.402
REMARK  Name = 
REMARK  4 active torsions:
REMARK  status: ('A' for Active; 'I' for Inactive)
REMARK    1  A    between atoms: N_2  and  C_4
REMARK    2  A    between atoms: C_7  and  N_8
REMARK    3  A    between atoms: N_8  and  C_9
REMARK    4  A    between atoms: C_9  and  N_11
REMARK                            x       y       z     vdW  Elec       q    Type
REMARK                         _______ _______ _______ _____ _____    ______ ____
ROOT
ATOM      1  N   UNL     1       2.372   7.142  20.763  0.00  0.00    +0.000 N 
ATOM      2  C   UNL     1       1.578   8.252  20.814  0.00  0.00    +0.000 A 
ATOM      3  N   UNL     1       0.793   8.622  19.849  0.00  0.00    +0.000 NA
ATOM      4  C   UNL     1       0.046   9.712  20.258  0.00  0.00    +0.000 A 
ATOM      5  C   UNL     1       0.177  10.045  21.609  0.00  0.00    +0.000 A 
ATOM      6  C   UNL     1      -0.670  10.990  22.207  0.00  0.00    +0.000 A 
ATOM      7  C   UNL     1      -1.654  11.605  21.405  0.00  0.00    +0.000 A 
ATOM      8  C   UNL     1      -1.745  11.358  20.023  0.00  0.00    +0.000 A 
ATOM      9  C   UNL     1      -2.673  11.981  19.172  0.00  0.00    +0.000 A 
ATOM     10  C   UNL     1      -2.650  11.747  17.792  0.00  0.00    +0.000 A 
ATOM     11  C   UNL     1      -1.712  10.889  17.230  0.00  0.00    +0.000 A 
ATOM     12  C   UNL     1      -0.819  10.215  18.056  0.00  0.00    +0.000 A 
ATOM     13  C   UNL     1      -0.850  10.439  19.443  0.00  0.00    +0.000 A 
ATOM     14  S   UNL     1       1.503   9.134  22.264  0.00  0.00    +0.000 S 
ATOM     15  H   UNL     1       3.247   7.140  21.270  0.00  0.00    +0.000 HD
ENDROOT
BRANCH   1  16
ATOM     16  C   UNL     1       2.070   6.073  19.931  0.00  0.00    +0.000 C 
ATOM     17  S   UNL     1       1.381   4.721  20.623  0.00  0.00    +0.000 S 
BRANCH  16  18
ATOM     18  N   UNL     1       2.220   6.396  18.579  0.00  0.00    +0.000 N 
ATOM     19  H   UNL     1       1.335   6.471  18.095  0.00  0.00    +0.000 HD
BRANCH  18  23
ATOM     20  C   UNL     1       5.497   5.289  16.172  0.00  0.00    +0.000 A 
ATOM     21  C   UNL     1       4.605   4.334  16.659  0.00  0.00    +0.000 A 
ATOM     22  C   UNL     1       3.506   4.750  17.417  0.00  0.00    +0.000 A 
ATOM     23  C   UNL     1       3.310   6.107  17.729  0.00  0.00    +0.000 A 
ATOM     24  C   UNL     1       4.195   7.050  17.212  0.00  0.00    +0.000 A 
ATOM     25  C   UNL     1       5.287   6.651  16.429  0.00  0.00    +0.000 A 
BRANCH  20  27
ATOM     26  O   UNL     1       6.603   3.772  14.810  0.00  0.00    +0.000 OA
ATOM     27  N   UNL     1       6.665   4.869  15.389  0.00  0.00    +0.000 N 
ATOM     28  O   UNL     1       7.644   5.627  15.356  0.00  0.00    +0.000 OA
ENDBRANCH  20  27
ENDBRANCH  18  23
ENDBRANCH  16  18
ENDBRANCH   1  16
TORSDOF 4
ENDMDL
MODEL 9
REMARK VINA RESULT:      -7.5      6.008      8.488
REMARK  Name = 
REMARK  4 active torsions:
REMARK  status: ('A' for Active; 'I' for Inactive)
REMARK    1  A    between atoms: N_2  and  C_4
REMARK    2  A    between atoms: C_7  and  N_8
REMARK    3  A    between atoms: N_8  and  C_9
REMARK    4  A    between atoms: C_9  and  N_11
REMARK                            x       y       z     vdW  Elec       q    Type
REMARK                         _______ _______ _______ _____ _____    ______ ____
ROOT
ATOM      1  N   UNL     1       2.264   9.262  18.398  0.00  0.00    +0.000 N 
ATOM      2  C   UNL     1       2.664   7.956  18.378  0.00  0.00    +0.000 A 
ATOM      3  N   UNL     1       2.144   7.031  19.125  0.00  0.00    +0.000 NA
ATOM      4  C   UNL     1       2.687   5.806  18.783  0.00  0.00    +0.000 A 
ATOM      5  C   UNL     1       3.505   5.817  17.649  0.00  0.00    +0.000 A 
ATOM      6  C   UNL     1       3.954   4.621  17.069  0.00  0.00    +0.000 A 
ATOM      7  C   UNL     1       3.566   3.404  17.665  0.00  0.00    +0.000 A 
ATOM      8  C   UNL     1       2.822   3.367  18.858  0.00  0.00    +0.000 A 
ATOM      9  C   UNL     1       2.453   2.182  19.518  0.00  0.00    +0.000 A 
ATOM     10  C   UNL     1       1.783   2.226  20.747  0.00  0.00    +0.000 A 
ATOM     11  C   UNL     1       1.463   3.440  21.342  0.00  0.00    +0.000 A 
ATOM     12  C   UNL     1       1.765   4.627  20.684  0.00  0.00    +0.000 A 
ATOM     13  C   UNL     1       2.426   4.584  19.443  0.00  0.00    +0.000 A 
ATOM     14  S   UNL     1       3.811   7.473  17.221  0.00  0.00    +0.000 S 
ATOM     15  H   UNL     1       2.939   9.985  18.186  0.00  0.00    +0.000 HD
ENDROOT
BRANCH   1  16
ATOM     16  C   UNL     1       0.995   9.625  18.825  0.00  0.00    +0.000 C 
ATOM     17  S   UNL     1       0.675   9.551  20.460  0.00  0.00    +0.000 S 
BRANCH  16  18
ATOM     18  N   UNL     1       0.236  10.197  17.800  0.00  0.00    +0.000 N 
ATOM     19  H   UNL     1       0.779  10.812  17.209  0.00  0.00    +0.000 HD
BRANCH  18  23
ATOM     20  C   UNL     1      -3.867  11.130  18.035  0.00  0.00    +0.000 A 
ATOM     21  C   UNL     1      -2.914  11.897  18.706  0.00  0.00    +0.000 A 
ATOM     22  C   UNL     1      -1.559  11.579  18.563  0.00  0.00    +0.000 A 
ATOM     23  C   UNL     1      -1.148  10.477  17.792  0.00  0.00    +0.000 A 
ATOM     24  C   UNL     1      -2.111   9.739  17.108  0.00  0.00    +0.000 A 
ATOM     25  C   UNL     1      -3.471  10.062  17.220  0.00  0.00    +0.000 A 
BRANCH  20  27
ATOM     26  O   UNL     1      -5.633  12.633  18.109  0.00  0.00    +0.000 OA
ATOM     27  N   UNL     1      -5.294  11.440  18.187  0.00  0.00    +0.000 N 
ATOM     28  O   UNL     1      -6.072  10.499  18.387  0.00  0.00    +0.000 OA
ENDBRANCH  20  27
ENDBRANCH  18  23
ENDBRANCH  16  18
ENDBRANCH   1  16
TORSDOF 4
ENDMDL
