MODEL 1
REMARK VINA RESULT:      -7.5      0.000      0.000
REMARK  Name = 
REMARK  4 active torsions:
REMARK  status: ('A' for Active; 'I' for Inactive)
REMARK    1  A    between atoms: C_1  and  C_2
REMARK    2  A    between atoms: C_6  and  C_7
REMARK    3  A    between atoms: C_16  and  C_17
REMARK    4  A    between atoms: C_17  and  N_18
REMARK                            x       y       z     vdW  Elec       q    Type
REMARK                         _______ _______ _______ _____ _____    ______ ____
ROOT
ATOM      1  C   UNL     1      -4.129  12.976  22.987  0.00  0.00    +0.000 C 
ATOM      2  O   UNL     1      -3.509  11.918  23.086  0.00  0.00    +0.000 OA
ATOM      3  N   UNL     1      -3.441  14.194  22.865  0.00  0.00    +0.000 N 
ATOM      4  C   UNL     1      -4.015  15.466  22.398  0.00  0.00    +0.000 C 
ATOM      5  C   UNL     1      -3.443  16.004  21.077  0.00  0.00    +0.000 C 
ATOM      6  O   UNL     1      -2.034  16.236  21.096  0.00  0.00    +0.000 OA
ATOM      7  C   UNL     1      -1.341  15.079  20.850  0.00  0.00    +0.000 A 
ATOM      8  C   UNL     1      -0.707  14.927  19.617  0.00  0.00    +0.000 A 
ATOM      9  C   UNL     1       0.086  13.801  19.371  0.00  0.00    +0.000 A 
ATOM     10  C   UNL     1       0.295  12.848  20.378  0.00  0.00    +0.000 A 
ATOM     11  C   UNL     1      -0.335  13.037  21.621  0.00  0.00    +0.000 A 
ATOM     12  C   UNL     1      -1.204  14.115  21.848  0.00  0.00    +0.000 A 
ATOM     13  C   UNL     1      -1.997  14.202  23.121  0.00  0.00    +0.000 C 
ENDROOT
BRANCH   1  19
ATOM     14  C   UNL     1      -6.409  12.258  20.664  0.00  0.00    +0.000 C 
ATOM     15  C   UNL     1      -6.550  12.671  22.079  0.00  0.00    +0.000 A 
ATOM     16  N   UNL     1      -7.808  12.807  22.631  0.00  0.00    +0.000 NA
ATOM     17  C   UNL     1      -7.566  13.126  23.879  0.00  0.00    +0.000 A 
ATOM     18  O   UNL     1      -6.256  13.215  24.206  0.00  0.00    +0.000 OA
ATOM     19  C   UNL     1      -5.584  12.978  23.026  0.00  0.00    +0.000 A 
ENDBRANCH   1  19
BRANCH  10  20
ATOM     20  C   UNL     1       1.193  11.634  20.152  0.00  0.00    +0.000 C 
BRANCH  20  21
ATOM     21  N   UNL     1       0.431  10.469  19.697  0.00  0.00    +0.000 NA
ATOM     22  C   UNL     1       0.692  10.095  18.294  0.00  0.00    +0.000 C 
ATOM     23  C   UNL     1       1.943   9.228  18.044  0.00  0.00    +0.000 C 
ATOM     24  N   UNL     1       1.943   8.058  18.921  0.00  0.00    +0.000 N 
ATOM     25  C   UNL     1       2.680   6.925  18.612  0.00  0.00    +0.000 A 
ATOM     26  C   UNL     1       3.679   6.924  17.636  0.00  0.00    +0.000 A 
ATOM     27  C   UNL     1       4.319   5.737  17.274  0.00  0.00    +0.000 A 
ATOM     28  C   UNL     1       3.940   4.554  17.884  0.00  0.00    +0.000 A 
ATOM     29  C   UNL     1       2.962   4.625  18.858  0.00  0.00    +0.000 A 
ATOM     30  N   UNL     1       2.356   5.773  19.242  0.00  0.00    +0.000 NA
ATOM     31  C   UNL     1       1.734   8.333  20.348  0.00  0.00    +0.000 C 
ATOM     32  C   UNL     1       0.531   9.283  20.568  0.00  0.00    +0.000 C 
ENDBRANCH  20  21
ENDBRANCH  10  20
TORSDOF 3
ENDMDL
MODEL 2
REMARK VINA RESULT:      -7.2      3.095      5.615
REMARK  Name = 
REMARK  4 active torsions:
REMARK  status: ('A' for Active; 'I' for Inactive)
REMARK    1  A    between atoms: C_1  and  C_2
REMARK    2  A    between atoms: C_6  and  C_7
REMARK    3  A    between atoms: C_16  and  C_17
REMARK    4  A    between atoms: C_17  and  N_18
REMARK                            x       y       z     vdW  Elec       q    Type
REMARK                         _______ _______ _______ _____ _____    ______ ____
ROOT
ATOM      1  C   UNL     1       0.468  13.478  19.049  0.00  0.00    +0.000 C 
ATOM      2  O   UNL     1       1.216  12.748  18.398  0.00  0.00    +0.000 OA
ATOM      3  N   UNL     1      -0.623  12.937  19.747  0.00  0.00    +0.000 N 
ATOM      4  C   UNL     1      -1.377  13.603  20.820  0.00  0.00    +0.000 C 
ATOM      5  C   UNL     1      -1.273  12.948  22.207  0.00  0.00    +0.000 C 
ATOM      6  O   UNL     1      -1.716  11.591  22.251  0.00  0.00    +0.000 OA
ATOM      7  C   UNL     1      -0.726  10.736  21.844  0.00  0.00    +0.000 A 
ATOM      8  C   UNL     1      -0.090   9.944  22.800  0.00  0.00    +0.000 A 
ATOM      9  C   UNL     1       0.858   8.994  22.404  0.00  0.00    +0.000 A 
ATOM     10  C   UNL     1       1.134   8.791  21.044  0.00  0.00    +0.000 A 
ATOM     11  C   UNL     1       0.459   9.585  20.098  0.00  0.00    +0.000 A 
ATOM     12  C   UNL     1      -0.425  10.601  20.489  0.00  0.00    +0.000 A 
ATOM     13  C   UNL     1      -0.999  11.546  19.473  0.00  0.00    +0.000 C 
ENDROOT
BRANCH   1  19
ATOM     14  C   UNL     1       3.038  15.302  20.135  0.00  0.00    +0.000 C 
ATOM     15  C   UNL     1       1.755  15.695  19.509  0.00  0.00    +0.000 A 
ATOM     16  N   UNL     1       1.480  17.029  19.288  0.00  0.00    +0.000 NA
ATOM     17  C   UNL     1       0.315  17.011  18.690  0.00  0.00    +0.000 A 
ATOM     18  O   UNL     1      -0.211  15.779  18.493  0.00  0.00    +0.000 OA
ATOM     19  C   UNL     1       0.692  14.916  19.075  0.00  0.00    +0.000 A 
ENDBRANCH   1  19
BRANCH  10  20
ATOM     20  C   UNL     1       2.128   7.729  20.582  0.00  0.00    +0.000 C 
BRANCH  20  21
ATOM     21  N   UNL     1       1.730   7.126  19.308  0.00  0.00    +0.000 NA
ATOM     22  C   UNL     1       2.287   7.808  18.125  0.00  0.00    +0.000 C 
ATOM     23  C   UNL     1       3.724   7.415  17.728  0.00  0.00    +0.000 C 
ATOM     24  N   UNL     1       3.850   5.962  17.620  0.00  0.00    +0.000 N 
ATOM     25  C   UNL     1       4.862   5.380  16.873  0.00  0.00    +0.000 A 
ATOM     26  C   UNL     1       5.977   6.098  16.433  0.00  0.00    +0.000 A 
ATOM     27  C   UNL     1       6.917   5.505  15.588  0.00  0.00    +0.000 A 
ATOM     28  C   UNL     1       6.723   4.197  15.176  0.00  0.00    +0.000 A 
ATOM     29  C   UNL     1       5.614   3.534  15.666  0.00  0.00    +0.000 A 
ATOM     30  N   UNL     1       4.713   4.085  16.511  0.00  0.00    +0.000 NA
ATOM     31  C   UNL     1       3.363   5.194  18.772  0.00  0.00    +0.000 C 
ATOM     32  C   UNL     1       1.957   5.672  19.214  0.00  0.00    +0.000 C 
ENDBRANCH  20  21
ENDBRANCH  10  20
TORSDOF 3
ENDMDL
MODEL 3
REMARK VINA RESULT:      -7.2      5.053     12.085
REMARK  Name = 
REMARK  4 active torsions:
REMARK  status: ('A' for Active; 'I' for Inactive)
REMARK    1  A    between atoms: C_1  and  C_2
REMARK    2  A    between atoms: C_6  and  C_7
REMARK    3  A    between atoms: C_16  and  C_17
REMARK    4  A    between atoms: C_17  and  N_18
REMARK                            x       y       z     vdW  Elec       q    Type
REMARK                         _______ _______ _______ _____ _____    ______ ____
ROOT
ATOM      1  C   UNL     1       5.597   5.676  14.882  0.00  0.00    +0.000 C 
ATOM      2  O   UNL     1       5.271   6.841  14.652  0.00  0.00    +0.000 OA
ATOM      3  N   UNL     1       5.653   5.201  16.202  0.00  0.00    +0.000 N 
ATOM      4  C   UNL     1       5.680   3.788  16.610  0.00  0.00    +0.000 C 
ATOM      5  C   UNL     1       4.456   3.305  17.404  0.00  0.00    +0.000 C 
ATOM      6  O   UNL     1       4.222   4.021  18.618  0.00  0.00    +0.000 OA
ATOM      7  C   UNL     1       3.531   5.180  18.381  0.00  0.00    +0.000 A 
ATOM      8  C   UNL     1       2.193   5.252  18.768  0.00  0.00    +0.000 A 
ATOM      9  C   UNL     1       1.487   6.452  18.627  0.00  0.00    +0.000 A 
ATOM     10  C   UNL     1       2.132   7.602  18.150  0.00  0.00    +0.000 A 
ATOM     11  C   UNL     1       3.489   7.509  17.790  0.00  0.00    +0.000 A 
ATOM     12  C   UNL     1       4.180   6.290  17.843  0.00  0.00    +0.000 A 
ATOM     13  C   UNL     1       5.574   6.178  17.293  0.00  0.00    +0.000 C 
ENDROOT
BRANCH   1  19
ATOM     14  C   UNL     1       8.316   5.516  12.961  0.00  0.00    +0.000 C 
ATOM     15  C   UNL     1       7.084   4.694  12.984  0.00  0.00    +0.000 A 
ATOM     16  N   UNL     1       6.941   3.649  12.094  0.00  0.00    +0.000 NA
ATOM     17  C   UNL     1       5.787   3.121  12.418  0.00  0.00    +0.000 A 
ATOM     18  O   UNL     1       5.148   3.725  13.448  0.00  0.00    +0.000 OA
ATOM     19  C   UNL     1       5.957   4.788  13.786  0.00  0.00    +0.000 A 
ENDBRANCH   1  19
BRANCH  10  20
ATOM     20  C   UNL     1       1.398   8.936  18.030  0.00  0.00    +0.000 C 
BRANCH  20  21
ATOM     21  N   UNL     1       1.703   9.829  19.149  0.00  0.00    +0.000 NA
ATOM     22  C   UNL     1       1.391  11.247  18.884  0.00  0.00    +0.000 C 
ATOM     23  C   UNL     1      -0.077  11.670  19.099  0.00  0.00    +0.000 C 
ATOM     24  N   UNL     1      -0.545  11.253  20.420  0.00  0.00    +0.000 N 
ATOM     25  C   UNL     1      -1.629  11.869  21.027  0.00  0.00    +0.000 A 
ATOM     26  C   UNL     1      -2.512  12.694  20.327  0.00  0.00    +0.000 A 
ATOM     27  C   UNL     1      -3.523  13.386  20.997  0.00  0.00    +0.000 A 
ATOM     28  C   UNL     1      -3.631  13.257  22.371  0.00  0.00    +0.000 A 
ATOM     29  C   UNL     1      -2.742  12.407  23.002  0.00  0.00    +0.000 A 
ATOM     30  N   UNL     1      -1.779  11.706  22.362  0.00  0.00    +0.000 NA
ATOM     31  C   UNL     1      -0.319   9.844  20.760  0.00  0.00    +0.000 C 
ATOM     32  C   UNL     1       1.136   9.415  20.445  0.00  0.00    +0.000 C 
ENDBRANCH  20  21
ENDBRANCH  10  20
TORSDOF 3
ENDMDL
MODEL 4
REMARK VINA RESULT:      -7.1      8.314     11.759
REMARK  Name = 
REMARK  4 active torsions:
REMARK  status: ('A' for Active; 'I' for Inactive)
REMARK    1  A    between atoms: C_1  and  C_2
REMARK    2  A    between atoms: C_6  and  C_7
REMARK    3  A    between atoms: C_16  and  C_17
REMARK    4  A    between atoms: C_17  and  N_18
REMARK                            x       y       z     vdW  Elec       q    Type
REMARK                         _______ _______ _______ _____ _____    ______ ____
ROOT
ATOM      1  C   UNL     1       3.477   6.300  18.234  0.00  0.00    +0.000 C 
ATOM      2  O   UNL     1       3.364   7.496  17.968  0.00  0.00    +0.000 OA
ATOM      3  N   UNL     1       4.596   5.575  17.794  0.00  0.00    +0.000 N 
ATOM      4  C   UNL     1       5.037   4.270  18.310  0.00  0.00    +0.000 C 
ATOM      5  C   UNL     1       6.397   4.268  19.025  0.00  0.00    +0.000 C 
ATOM      6  O   UNL     1       7.487   4.718  18.218  0.00  0.00    +0.000 OA
ATOM      7  C   UNL     1       7.565   6.086  18.214  0.00  0.00    +0.000 A 
ATOM      8  C   UNL     1       8.599   6.700  18.919  0.00  0.00    +0.000 A 
ATOM      9  C   UNL     1       8.762   8.089  18.856  0.00  0.00    +0.000 A 
ATOM     10  C   UNL     1       7.924   8.865  18.042  0.00  0.00    +0.000 A 
ATOM     11  C   UNL     1       6.904   8.217  17.320  0.00  0.00    +0.000 A 
ATOM     12  C   UNL     1       6.677   6.839  17.447  0.00  0.00    +0.000 A 
ATOM     13  C   UNL     1       5.479   6.200  16.804  0.00  0.00    +0.000 C 
ENDROOT
BRANCH   1  19
ATOM     14  C   UNL     1       1.557   3.681  17.480  0.00  0.00    +0.000 C 
ATOM     15  C   UNL     1       1.632   4.521  18.697  0.00  0.00    +0.000 A 
ATOM     16  N   UNL     1       0.805   4.251  19.768  0.00  0.00    +0.000 NA
ATOM     17  C   UNL     1       1.164   5.132  20.668  0.00  0.00    +0.000 A 
ATOM     18  O   UNL     1       2.160   5.967  20.289  0.00  0.00    +0.000 OA
ATOM     19  C   UNL     1       2.433   5.617  18.984  0.00  0.00    +0.000 A 
ENDBRANCH   1  19
BRANCH  10  20
ATOM     20  C   UNL     1       8.108  10.375  17.918  0.00  0.00    +0.000 C 
BRANCH  20  21
ATOM     21  N   UNL     1       9.288  10.843  18.650  0.00  0.00    +0.000 NA
ATOM     22  C   UNL     1      10.348  11.393  17.785  0.00  0.00    +0.000 C 
ATOM     23  C   UNL     1      10.178  12.864  17.353  0.00  0.00    +0.000 C 
ATOM     24  N   UNL     1       9.935  13.717  18.516  0.00  0.00    +0.000 N 
ATOM     25  C   UNL     1      10.184  15.080  18.473  0.00  0.00    +0.000 A 
ATOM     26  C   UNL     1      10.386  15.768  17.274  0.00  0.00    +0.000 A 
ATOM     27  C   UNL     1      10.746  17.117  17.280  0.00  0.00    +0.000 A 
ATOM     28  C   UNL     1      10.916  17.764  18.493  0.00  0.00    +0.000 A 
ATOM     29  C   UNL     1      10.678  17.035  19.642  0.00  0.00    +0.000 A 
ATOM     30  N   UNL     1      10.297  15.736  19.650  0.00  0.00    +0.000 NA
ATOM     31  C   UNL     1       8.864  13.275  19.417  0.00  0.00    +0.000 C 
ATOM     32  C   UNL     1       9.001  11.771  19.759  0.00  0.00    +0.000 C 
ENDBRANCH  20  21
ENDBRANCH  10  20
TORSDOF 3
ENDMDL
MODEL 5
REMARK VINA RESULT:      -7.0      3.323      5.722
REMARK  Name = 
REMARK  4 active torsions:
REMARK  status: ('A' for Active; 'I' for Inactive)
REMARK    1  A    between atoms: C_1  and  C_2
REMARK    2  A    between atoms: C_6  and  C_7
REMARK    3  A    between atoms: C_16  and  C_17
REMARK    4  A    between atoms: C_17  and  N_18
REMARK                            x       y       z     vdW  Elec       q    Type
REMARK                         _______ _______ _______ _____ _____    ______ ____
ROOT
ATOM      1  C   UNL     1       1.171  13.620  19.323  0.00  0.00    +0.000 C 
ATOM      2  O   UNL     1       1.912  12.872  18.683  0.00  0.00    +0.000 OA
ATOM      3  N   UNL     1      -0.039  13.141  19.850  0.00  0.00    +0.000 N 
ATOM      4  C   UNL     1      -0.838  13.790  20.900  0.00  0.00    +0.000 C 
ATOM      5  C   UNL     1      -0.954  13.011  22.220  0.00  0.00    +0.000 C 
ATOM      6  O   UNL     1      -1.530  11.711  22.087  0.00  0.00    +0.000 OA
ATOM      7  C   UNL     1      -0.589  10.792  21.702  0.00  0.00    +0.000 A 
ATOM      8  C   UNL     1      -0.144   9.858  22.637  0.00  0.00    +0.000 A 
ATOM      9  C   UNL     1       0.744   8.848  22.249  0.00  0.00    +0.000 A 
ATOM     10  C   UNL     1       1.148   8.734  20.912  0.00  0.00    +0.000 A 
ATOM     11  C   UNL     1       0.664   9.674  19.983  0.00  0.00    +0.000 A 
ATOM     12  C   UNL     1      -0.154  10.743  20.379  0.00  0.00    +0.000 A 
ATOM     13  C   UNL     1      -0.516  11.828  19.405  0.00  0.00    +0.000 C 
ENDROOT
BRANCH   1  19
ATOM     14  C   UNL     1      -0.300  16.440  18.326  0.00  0.00    +0.000 C 
ATOM     15  C   UNL     1       0.929  16.204  19.118  0.00  0.00    +0.000 A 
ATOM     16  N   UNL     1       1.666  17.278  19.576  0.00  0.00    +0.000 NA
ATOM     17  C   UNL     1       2.632  16.721  20.263  0.00  0.00    +0.000 A 
ATOM     18  O   UNL     1       2.603  15.368  20.303  0.00  0.00    +0.000 OA
ATOM     19  C   UNL     1       1.531  15.018  19.511  0.00  0.00    +0.000 A 
ENDBRANCH   1  19
BRANCH  10  20
ATOM     20  C   UNL     1       2.080   7.615  20.453  0.00  0.00    +0.000 C 
BRANCH  20  21
ATOM     21  N   UNL     1       1.749   7.148  19.104  0.00  0.00    +0.000 NA
ATOM     22  C   UNL     1       2.446   7.882  18.031  0.00  0.00    +0.000 C 
ATOM     23  C   UNL     1       3.882   7.417  17.713  0.00  0.00    +0.000 C 
ATOM     24  N   UNL     1       3.918   5.972  17.489  0.00  0.00    +0.000 N 
ATOM     25  C   UNL     1       4.948   5.379  16.774  0.00  0.00    +0.000 A 
ATOM     26  C   UNL     1       6.141   6.046  16.485  0.00  0.00    +0.000 A 
ATOM     27  C   UNL     1       7.106   5.456  15.667  0.00  0.00    +0.000 A 
ATOM     28  C   UNL     1       6.859   4.204  15.129  0.00  0.00    +0.000 A 
ATOM     29  C   UNL     1       5.671   3.587  15.473  0.00  0.00    +0.000 A 
ATOM     30  N   UNL     1       4.742   4.133  16.290  0.00  0.00    +0.000 NA
ATOM     31  C   UNL     1       3.287   5.151  18.529  0.00  0.00    +0.000 C 
ATOM     32  C   UNL     1       1.885   5.694  18.901  0.00  0.00    +0.000 C 
ENDBRANCH  20  21
ENDBRANCH  10  20
TORSDOF 3
ENDMDL
MODEL 6
REMARK VINA RESULT:      -7.0      8.225     10.130
REMARK  Name = 
REMARK  4 active torsions:
REMARK  status: ('A' for Active; 'I' for Inactive)
REMARK    1  A    between atoms: C_1  and  C_2
REMARK    2  A    between atoms: C_6  and  C_7
REMARK    3  A    between atoms: C_16  and  C_17
REMARK    4  A    between atoms: C_17  and  N_18
REMARK                            x       y       z     vdW  Elec       q    Type
REMARK                         _______ _______ _______ _____ _____    ______ ____
ROOT
ATOM      1  C   UNL     1       8.500  12.269  22.513  0.00  0.00    +0.000 C 
ATOM      2  O   UNL     1       8.355  11.077  22.783  0.00  0.00    +0.000 OA
ATOM      3  N   UNL     1       9.284  12.660  21.416  0.00  0.00    +0.000 N 
ATOM      4  C   UNL     1       9.270  13.983  20.773  0.00  0.00    +0.000 C 
ATOM      5  C   UNL     1       8.768  14.005  19.320  0.00  0.00    +0.000 C 
ATOM      6  O   UNL     1       9.520  13.183  18.425  0.00  0.00    +0.000 OA
ATOM      7  C   UNL     1       9.098  11.880  18.482  0.00  0.00    +0.000 A 
ATOM      8  C   UNL     1       8.369  11.365  17.411  0.00  0.00    +0.000 A 
ATOM      9  C   UNL     1       8.006  10.014  17.396  0.00  0.00    +0.000 A 
ATOM     10  C   UNL     1       8.420   9.157  18.426  0.00  0.00    +0.000 A 
ATOM     11  C   UNL     1       9.177   9.697  19.483  0.00  0.00    +0.000 A 
ATOM     12  C   UNL     1       9.468  11.067  19.552  0.00  0.00    +0.000 A 
ATOM     13  C   UNL     1      10.126  11.647  20.772  0.00  0.00    +0.000 C 
ENDROOT
BRANCH   1  19
ATOM     14  C   UNL     1       5.448  13.609  22.485  0.00  0.00    +0.000 C 
ATOM     15  C   UNL     1       6.614  13.850  23.365  0.00  0.00    +0.000 A 
ATOM     16  N   UNL     1       6.521  14.771  24.389  0.00  0.00    +0.000 NA
ATOM     17  C   UNL     1       7.687  14.695  24.981  0.00  0.00    +0.000 A 
ATOM     18  O   UNL     1       8.549  13.803  24.440  0.00  0.00    +0.000 OA
ATOM     19  C   UNL     1       7.882  13.288  23.350  0.00  0.00    +0.000 A 
ENDBRANCH   1  19
BRANCH  10  20
ATOM     20  C   UNL     1       8.078   7.670  18.412  0.00  0.00    +0.000 C 
BRANCH  20  21
ATOM     21  N   UNL     1       7.266   7.307  17.248  0.00  0.00    +0.000 NA
ATOM     22  C   UNL     1       7.444   5.911  16.807  0.00  0.00    +0.000 C 
ATOM     23  C   UNL     1       6.620   4.850  17.565  0.00  0.00    +0.000 C 
ATOM     24  N   UNL     1       5.207   5.226  17.605  0.00  0.00    +0.000 N 
ATOM     25  C   UNL     1       4.216   4.281  17.818  0.00  0.00    +0.000 A 
ATOM     26  C   UNL     1       4.493   2.998  18.295  0.00  0.00    +0.000 A 
ATOM     27  C   UNL     1       3.482   2.039  18.388  0.00  0.00    +0.000 A 
ATOM     28  C   UNL     1       2.200   2.371  17.984  0.00  0.00    +0.000 A 
ATOM     29  C   UNL     1       1.986   3.663  17.545  0.00  0.00    +0.000 A 
ATOM     30  N   UNL     1       2.948   4.612  17.480  0.00  0.00    +0.000 NA
ATOM     31  C   UNL     1       4.925   6.587  18.074  0.00  0.00    +0.000 C 
ATOM     32  C   UNL     1       5.832   7.626  17.369  0.00  0.00    +0.000 C 
ENDBRANCH  20  21
ENDBRANCH  10  20
TORSDOF 3
ENDMDL
MODEL 7
REMARK VINA RESULT:      -7.0      3.656      6.369
REMARK  Name = 
REMARK  4 active torsions:
REMARK  status: ('A' for Active; 'I' for Inactive)
REMARK    1  A    between atoms: C_1  and  C_2
REMARK    2  A    between atoms: C_6  and  C_7
REMARK    3  A    between atoms: C_16  and  C_17
REMARK    4  A    between atoms: C_17  and  N_18
REMARK                            x       y       z     vdW  Elec       q    Type
REMARK                         _______ _______ _______ _____ _____    ______ ____
ROOT
ATOM      1  C   UNL     1       2.334  14.232  18.579  0.00  0.00    +0.000 C 
ATOM      2  O   UNL     1       2.584  13.153  18.041  0.00  0.00    +0.000 OA
ATOM      3  N   UNL     1       1.056  14.486  19.102  0.00  0.00    +0.000 N 
ATOM      4  C   UNL     1       0.710  15.551  20.056  0.00  0.00    +0.000 C 
ATOM      5  C   UNL     1       0.235  15.073  21.437  0.00  0.00    +0.000 C 
ATOM      6  O   UNL     1      -0.923  14.236  21.404  0.00  0.00    +0.000 OA
ATOM      7  C   UNL     1      -0.582  12.935  21.143  0.00  0.00    +0.000 A 
ATOM      8  C   UNL     1      -0.658  12.002  22.177  0.00  0.00    +0.000 A 
ATOM      9  C   UNL     1      -0.409  10.649  21.919  0.00  0.00    +0.000 A 
ATOM     10  C   UNL     1      -0.138  10.214  20.614  0.00  0.00    +0.000 A 
ATOM     11  C   UNL     1      -0.092  11.172  19.585  0.00  0.00    +0.000 A 
ATOM     12  C   UNL     1      -0.251  12.540  19.847  0.00  0.00    +0.000 A 
ATOM     13  C   UNL     1      -0.027  13.557  18.764  0.00  0.00    +0.000 C 
ENDROOT
BRANCH   1  19
ATOM     14  C   UNL     1       2.652  17.142  16.986  0.00  0.00    +0.000 C 
ATOM     15  C   UNL     1       3.501  16.489  18.009  0.00  0.00    +0.000 A 
ATOM     16  N   UNL     1       4.648  17.116  18.451  0.00  0.00    +0.000 NA
ATOM     17  C   UNL     1       5.114  16.303  19.365  0.00  0.00    +0.000 A 
ATOM     18  O   UNL     1       4.377  15.186  19.570  0.00  0.00    +0.000 OA
ATOM     19  C   UNL     1       3.354  15.268  18.650  0.00  0.00    +0.000 A 
ENDBRANCH   1  19
BRANCH  10  20
ATOM     20  C   UNL     1       0.092   8.738  20.298  0.00  0.00    +0.000 C 
BRANCH  20  21
ATOM     21  N   UNL     1       1.514   8.391  20.319  0.00  0.00    +0.000 NA
ATOM     22  C   UNL     1       1.838   7.252  21.200  0.00  0.00    +0.000 C 
ATOM     23  C   UNL     1       1.624   5.847  20.600  0.00  0.00    +0.000 C 
ATOM     24  N   UNL     1       2.292   5.732  19.304  0.00  0.00    +0.000 N 
ATOM     25  C   UNL     1       2.630   4.497  18.775  0.00  0.00    +0.000 A 
ATOM     26  C   UNL     1       2.108   3.300  19.272  0.00  0.00    +0.000 A 
ATOM     27  C   UNL     1       2.560   2.071  18.787  0.00  0.00    +0.000 A 
ATOM     28  C   UNL     1       3.547   2.051  17.816  0.00  0.00    +0.000 A 
ATOM     29  C   UNL     1       4.004   3.268  17.350  0.00  0.00    +0.000 A 
ATOM     30  N   UNL     1       3.553   4.466  17.786  0.00  0.00    +0.000 NA
ATOM     31  C   UNL     1       1.997   6.799  18.340  0.00  0.00    +0.000 C 
ATOM     32  C   UNL     1       2.125   8.198  18.991  0.00  0.00    +0.000 C 
ENDBRANCH  20  21
ENDBRANCH  10  20
TORSDOF 3
ENDMDL
MODEL 8
REMARK VINA RESULT:      -7.0      3.060      5.250
REMARK  Name = 
REMARK  4 active torsions:
REMARK  status: ('A' for Active; 'I' for Inactive)
REMARK    1  A    between atoms: C_1  and  C_2
REMARK    2  A    between atoms: C_6  and  C_7
REMARK    3  A    between atoms: C_16  and  C_17
REMARK    4  A    between atoms: C_17  and  N_18
REMARK                            x       y       z     vdW  Elec       q    Type
REMARK                         _______ _______ _______ _____ _____    ______ ____
ROOT
ATOM      1  C   UNL     1       1.254  14.610  21.324  0.00  0.00    +0.000 C 
ATOM      2  O   UNL     1       2.144  13.980  20.752  0.00  0.00    +0.000 OA
ATOM      3  N   UNL     1      -0.051  14.097  21.389  0.00  0.00    +0.000 N 
ATOM      4  C   UNL     1      -1.109  14.545  22.307  0.00  0.00    +0.000 C 
ATOM      5  C   UNL     1      -1.574  13.504  23.338  0.00  0.00    +0.000 C 
ATOM      6  O   UNL     1      -2.086  12.299  22.767  0.00  0.00    +0.000 OA
ATOM      7  C   UNL     1      -1.071  11.435  22.449  0.00  0.00    +0.000 A 
ATOM      8  C   UNL     1      -0.891  10.295  23.233  0.00  0.00    +0.000 A 
ATOM      9  C   UNL     1       0.074   9.346  22.878  0.00  0.00    +0.000 A 
ATOM     10  C   UNL     1       0.826   9.504  21.705  0.00  0.00    +0.000 A 
ATOM     11  C   UNL     1       0.608  10.651  20.919  0.00  0.00    +0.000 A 
ATOM     12  C   UNL     1      -0.293  11.651  21.313  0.00  0.00    +0.000 A 
ATOM     13  C   UNL     1      -0.383  12.942  20.549  0.00  0.00    +0.000 C 
ENDROOT
BRANCH   1  19
ATOM     14  C   UNL     1       0.824  17.707  20.168  0.00  0.00    +0.000 C 
ATOM     15  C   UNL     1       1.360  17.208  21.456  0.00  0.00    +0.000 A 
ATOM     16  N   UNL     1       1.779  18.105  22.417  0.00  0.00    +0.000 NA
ATOM     17  C   UNL     1       2.136  17.342  23.420  0.00  0.00    +0.000 A 
ATOM     18  O   UNL     1       1.991  16.012  23.209  0.00  0.00    +0.000 OA
ATOM     19  C   UNL     1       1.542  15.911  21.911  0.00  0.00    +0.000 A 
ENDBRANCH   1  19
BRANCH  10  20
ATOM     20  C   UNL     1       1.853   8.462  21.270  0.00  0.00    +0.000 C 
BRANCH  20  21
ATOM     21  N   UNL     1       1.307   7.543  20.269  0.00  0.00    +0.000 NA
ATOM     22  C   UNL     1       1.463   8.012  18.879  0.00  0.00    +0.000 C 
ATOM     23  C   UNL     1       2.829   7.734  18.218  0.00  0.00    +0.000 C 
ATOM     24  N   UNL     1       3.190   6.323  18.354  0.00  0.00    +0.000 N 
ATOM     25  C   UNL     1       4.106   5.729  17.501  0.00  0.00    +0.000 A 
ATOM     26  C   UNL     1       4.952   6.471  16.673  0.00  0.00    +0.000 A 
ATOM     27  C   UNL     1       5.780   5.835  15.747  0.00  0.00    +0.000 A 
ATOM     28  C   UNL     1       5.742   4.454  15.646  0.00  0.00    +0.000 A 
ATOM     29  C   UNL     1       4.903   3.776  16.509  0.00  0.00    +0.000 A 
ATOM     30  N   UNL     1       4.119   4.378  17.434  0.00  0.00    +0.000 NA
ATOM     31  C   UNL     1       3.108   5.774  19.713  0.00  0.00    +0.000 C 
ATOM     32  C   UNL     1       1.768   6.147  20.392  0.00  0.00    +0.000 C 
ENDBRANCH  20  21
ENDBRANCH  10  20
TORSDOF 3
ENDMDL
MODEL 9
REMARK VINA RESULT:      -6.9      1.524      1.742
REMARK  Name = 
REMARK  4 active torsions:
REMARK  status: ('A' for Active; 'I' for Inactive)
REMARK    1  A    between atoms: C_1  and  C_2
REMARK    2  A    between atoms: C_6  and  C_7
REMARK    3  A    between atoms: C_16  and  C_17
REMARK    4  A    between atoms: C_17  and  N_18
REMARK                            x       y       z     vdW  Elec       q    Type
REMARK                         _______ _______ _______ _____ _____    ______ ____
ROOT
ATOM      1  C   UNL     1      -4.572  13.021  21.847  0.00  0.00    +0.000 C 
ATOM      2  O   UNL     1      -4.290  12.130  21.045  0.00  0.00    +0.000 OA
ATOM      3  N   UNL     1      -3.706  13.322  22.910  0.00  0.00    +0.000 N 
ATOM      4  C   UNL     1      -3.727  14.550  23.719  0.00  0.00    +0.000 C 
ATOM      5  C   UNL     1      -2.487  15.448  23.591  0.00  0.00    +0.000 C 
ATOM      6  O   UNL     1      -1.259  14.810  23.946  0.00  0.00    +0.000 OA
ATOM      7  C   UNL     1      -0.761  14.083  22.898  0.00  0.00    +0.000 A 
ATOM      8  C   UNL     1       0.362  14.562  22.224  0.00  0.00    +0.000 A 
ATOM      9  C   UNL     1       0.951  13.796  21.211  0.00  0.00    +0.000 A 
ATOM     10  C   UNL     1       0.454  12.522  20.906  0.00  0.00    +0.000 A 
ATOM     11  C   UNL     1      -0.665  12.051  21.618  0.00  0.00    +0.000 A 
ATOM     12  C   UNL     1      -1.317  12.847  22.571  0.00  0.00    +0.000 A 
ATOM     13  C   UNL     1      -2.607  12.392  23.192  0.00  0.00    +0.000 C 
ENDROOT
BRANCH   1  19
ATOM     14  C   UNL     1      -7.492  12.709  23.424  0.00  0.00    +0.000 C 
ATOM     15  C   UNL     1      -7.045  13.647  22.369  0.00  0.00    +0.000 A 
ATOM     16  N   UNL     1      -7.916  14.603  21.889  0.00  0.00    +0.000 NA
ATOM     17  C   UNL     1      -7.195  15.275  21.026  0.00  0.00    +0.000 A 
ATOM     18  O   UNL     1      -5.918  14.848  20.889  0.00  0.00    +0.000 OA
ATOM     19  C   UNL     1      -5.825  13.750  21.717  0.00  0.00    +0.000 A 
ENDBRANCH   1  19
BRANCH  10  20
ATOM     20  C   UNL     1       1.105  11.646  19.838  0.00  0.00    +0.000 C 
BRANCH  20  21
ATOM     21  N   UNL     1       0.353  10.410  19.612  0.00  0.00    +0.000 NA
ATOM     22  C   UNL     1       0.483   9.873  18.244  0.00  0.00    +0.000 C 
ATOM     23  C   UNL     1       1.739   9.021  17.966  0.00  0.00    +0.000 C 
ATOM     24  N   UNL     1       1.883   7.970  18.973  0.00  0.00    +0.000 N 
ATOM     25  C   UNL     1       2.633   6.832  18.723  0.00  0.00    +0.000 A 
ATOM     26  C   UNL     1       3.524   6.741  17.651  0.00  0.00    +0.000 A 
ATOM     27  C   UNL     1       4.175   5.539  17.367  0.00  0.00    +0.000 A 
ATOM     28  C   UNL     1       3.915   4.429  18.154  0.00  0.00    +0.000 A 
ATOM     29  C   UNL     1       3.042   4.591  19.212  0.00  0.00    +0.000 A 
ATOM     30  N   UNL     1       2.429   5.757  19.519  0.00  0.00    +0.000 NA
ATOM     31  C   UNL     1       1.811   8.414  20.370  0.00  0.00    +0.000 C 
ATOM     32  C   UNL     1       0.597   9.346  20.604  0.00  0.00    +0.000 C 
ENDBRANCH  20  21
ENDBRANCH  10  20
TORSDOF 3
ENDMDL
