MODEL 1
REMARK VINA RESULT:      -7.2      0.000      0.000
REMARK  Name = 
REMARK  7 active torsions:
REMARK  status: ('A' for Active; 'I' for Inactive)
REMARK    1  A    between atoms: C_1  and  C_2
REMARK    2  A    between atoms: C_2  and  C_3
REMARK    3  A    between atoms: C_2  and  C_4
REMARK    4  A    between atoms: C_4  and  C_5
REMARK    5  A    between atoms: C_16  and  C_17
REMARK    6  A    between atoms: C_17  and  C_18
REMARK    7  A    between atoms: N_28  and  C_29
REMARK                            x       y       z     vdW  Elec       q    Type
REMARK                         _______ _______ _______ _____ _____    ______ ____
ROOT
ATOM      1  C   UNL     1       0.067  14.922  19.055  0.00  0.00    +0.000 C 
ATOM      2  N   UNL     1      -1.238  14.875  19.742  0.00  0.00    +0.000 N 
ATOM      3  C   UNL     1      -1.324  14.628  21.095  0.00  0.00    +0.000 C 
ATOM      4  O   UNL     1      -0.655  15.220  21.930  0.00  0.00    +0.000 OA
ATOM      5  C   UNL     1      -2.284  13.500  21.433  0.00  0.00    +0.000 C 
ATOM      6  C   UNL     1      -2.188  13.085  22.903  0.00  0.00    +0.000 C 
ATOM      7  C   UNL     1      -2.349  11.575  23.133  0.00  0.00    +0.000 C 
ATOM      8  C   UNL     1      -1.013  10.834  23.241  0.00  0.00    +0.000 C 
ATOM      9  N   UNL     1      -0.646  10.117  22.041  0.00  0.00    +0.000 N 
ATOM     10  C   UNL     1       0.583   9.471  21.967  0.00  0.00    +0.000 C 
ATOM     11  O   UNL     1       1.418   9.553  22.864  0.00  0.00    +0.000 OA
ATOM     12  C   UNL     1       0.867   8.875  20.571  0.00  0.00    +0.000 C 
ATOM     13  N   UNL     1       0.925  10.084  19.761  0.00  0.00    +0.000 N 
ATOM     14  C   UNL     1       1.091  10.154  18.405  0.00  0.00    +0.000 C 
ATOM     15  O   UNL     1       1.039   9.159  17.688  0.00  0.00    +0.000 OA
ATOM     16  C   UNL     1       1.560  11.526  17.897  0.00  0.00    +0.000 C 
ATOM     17  N   UNL     1       1.376  12.691  18.793  0.00  0.00    +0.000 N 
ATOM     18  C   UNL     1       2.184  12.741  20.018  0.00  0.00    +0.000 C 
ATOM     19  C   UNL     1       0.255  13.460  18.550  0.00  0.00    +0.000 C 
ATOM     20  O   UNL     1      -0.685  12.972  17.896  0.00  0.00    +0.000 OA
ATOM     21  H   UNL     1      -1.940  14.411  19.170  0.00  0.00    +0.000 HD
ATOM     22  H   UNL     1      -1.340   9.920  21.328  0.00  0.00    +0.000 HD
ATOM     23  H   UNL     1       0.863  10.955  20.261  0.00  0.00    +0.000 HD
ENDROOT
BRANCH   1  24
ATOM     24  C   UNL     1       1.190  15.675  19.772  0.00  0.00    +0.000 C 
BRANCH  24  26
ATOM     25  C   UNL     1       3.092  16.343  18.167  0.00  0.00    +0.000 C 
ATOM     26  C   UNL     1       1.872  16.795  18.951  0.00  0.00    +0.000 C 
ATOM     27  C   UNL     1       0.834  17.467  18.042  0.00  0.00    +0.000 C 
ENDBRANCH  24  26
ENDBRANCH   1  24
BRANCH  12  28
ATOM     28  C   UNL     1       2.195   8.100  20.524  0.00  0.00    +0.000 C 
BRANCH  28  29
ATOM     29  C   UNL     1       2.040   6.697  19.999  0.00  0.00    +0.000 A 
ATOM     30  C   UNL     1       2.461   6.359  18.709  0.00  0.00    +0.000 A 
ATOM     31  C   UNL     1       2.227   5.083  18.201  0.00  0.00    +0.000 A 
ATOM     32  C   UNL     1       1.591   4.123  18.988  0.00  0.00    +0.000 A 
ATOM     33  C   UNL     1       1.196   4.436  20.284  0.00  0.00    +0.000 A 
ATOM     34  C   UNL     1       1.433   5.713  20.792  0.00  0.00    +0.000 A 
ENDBRANCH  28  29
ENDBRANCH  12  28
TORSDOF 4
ENDMDL
MODEL 2
REMARK VINA RESULT:      -7.0      0.419      1.092
REMARK  Name = 
REMARK  7 active torsions:
REMARK  status: ('A' for Active; 'I' for Inactive)
REMARK    1  A    between atoms: C_1  and  C_2
REMARK    2  A    between atoms: C_2  and  C_3
REMARK    3  A    between atoms: C_2  and  C_4
REMARK    4  A    between atoms: C_4  and  C_5
REMARK    5  A    between atoms: C_16  and  C_17
REMARK    6  A    between atoms: C_17  and  C_18
REMARK    7  A    between atoms: N_28  and  C_29
REMARK                            x       y       z     vdW  Elec       q    Type
REMARK                         _______ _______ _______ _____ _____    ______ ____
ROOT
ATOM      1  C   UNL     1       0.157  15.052  19.097  0.00  0.00    +0.000 C 
ATOM      2  N   UNL     1      -1.177  15.033  19.728  0.00  0.00    +0.000 N 
ATOM      3  C   UNL     1      -1.325  14.790  21.077  0.00  0.00    +0.000 C 
ATOM      4  O   UNL     1      -0.679  15.370  21.939  0.00  0.00    +0.000 OA
ATOM      5  C   UNL     1      -2.320  13.682  21.375  0.00  0.00    +0.000 C 
ATOM      6  C   UNL     1      -2.295  13.269  22.848  0.00  0.00    +0.000 C 
ATOM      7  C   UNL     1      -2.496  11.763  23.073  0.00  0.00    +0.000 C 
ATOM      8  C   UNL     1      -1.180  10.995  23.237  0.00  0.00    +0.000 C 
ATOM      9  N   UNL     1      -0.779  10.268  22.054  0.00  0.00    +0.000 N 
ATOM     10  C   UNL     1       0.440   9.597  22.032  0.00  0.00    +0.000 C 
ATOM     11  O   UNL     1       1.237   9.664  22.963  0.00  0.00    +0.000 OA
ATOM     12  C   UNL     1       0.770   8.993  20.650  0.00  0.00    +0.000 C 
ATOM     13  N   UNL     1       0.885  10.200  19.842  0.00  0.00    +0.000 N 
ATOM     14  C   UNL     1       1.110  10.264  18.494  0.00  0.00    +0.000 C 
ATOM     15  O   UNL     1       1.068   9.269  17.777  0.00  0.00    +0.000 OA
ATOM     16  C   UNL     1       1.627  11.625  18.005  0.00  0.00    +0.000 C 
ATOM     17  N   UNL     1       1.430  12.795  18.891  0.00  0.00    +0.000 N 
ATOM     18  C   UNL     1       2.186  12.831  20.150  0.00  0.00    +0.000 C 
ATOM     19  C   UNL     1       0.335  13.586  18.601  0.00  0.00    +0.000 C 
ATOM     20  O   UNL     1      -0.586  13.116  17.908  0.00  0.00    +0.000 OA
ATOM     21  H   UNL     1      -1.863  14.583  19.128  0.00  0.00    +0.000 HD
ATOM     22  H   UNL     1      -1.446  10.084  21.312  0.00  0.00    +0.000 HD
ATOM     23  H   UNL     1       0.821  11.073  20.339  0.00  0.00    +0.000 HD
ENDROOT
BRANCH   1  24
ATOM     24  C   UNL     1       1.263  15.784  19.859  0.00  0.00    +0.000 C 
BRANCH  24  26
ATOM     25  C   UNL     1       0.948  17.547  18.006  0.00  0.00    +0.000 C 
ATOM     26  C   UNL     1       1.675  17.160  19.282  0.00  0.00    +0.000 C 
ATOM     27  C   UNL     1       1.522  18.234  20.367  0.00  0.00    +0.000 C 
ENDBRANCH  24  26
ENDBRANCH   1  24
BRANCH  12  28
ATOM     28  C   UNL     1       2.082   8.191  20.659  0.00  0.00    +0.000 C 
BRANCH  28  29
ATOM     29  C   UNL     1       1.934   6.812  20.074  0.00  0.00    +0.000 A 
ATOM     30  C   UNL     1       1.364   5.772  20.813  0.00  0.00    +0.000 A 
ATOM     31  C   UNL     1       1.319   4.479  20.296  0.00  0.00    +0.000 A 
ATOM     32  C   UNL     1       1.820   4.218  19.021  0.00  0.00    +0.000 A 
ATOM     33  C   UNL     1       2.362   5.250  18.261  0.00  0.00    +0.000 A 
ATOM     34  C   UNL     1       2.404   6.544  18.780  0.00  0.00    +0.000 A 
ENDBRANCH  28  29
ENDBRANCH  12  28
TORSDOF 4
ENDMDL
MODEL 3
REMARK VINA RESULT:      -6.7      2.565      5.501
REMARK  Name = 
REMARK  7 active torsions:
REMARK  status: ('A' for Active; 'I' for Inactive)
REMARK    1  A    between atoms: C_1  and  C_2
REMARK    2  A    between atoms: C_2  and  C_3
REMARK    3  A    between atoms: C_2  and  C_4
REMARK    4  A    between atoms: C_4  and  C_5
REMARK    5  A    between atoms: C_16  and  C_17
REMARK    6  A    between atoms: C_17  and  C_18
REMARK    7  A    between atoms: N_28  and  C_29
REMARK                            x       y       z     vdW  Elec       q    Type
REMARK                         _______ _______ _______ _____ _____    ______ ____
ROOT
ATOM      1  C   UNL     1      -2.641  16.167  23.640  0.00  0.00    +0.000 C 
ATOM      2  N   UNL     1      -1.526  17.096  23.374  0.00  0.00    +0.000 N 
ATOM      3  C   UNL     1      -1.229  17.506  22.091  0.00  0.00    +0.000 C 
ATOM      4  O   UNL     1      -2.068  17.936  21.312  0.00  0.00    +0.000 OA
ATOM      5  C   UNL     1       0.232  17.302  21.726  0.00  0.00    +0.000 C 
ATOM      6  C   UNL     1       0.489  17.538  20.236  0.00  0.00    +0.000 C 
ATOM      7  C   UNL     1       1.529  16.587  19.628  0.00  0.00    +0.000 C 
ATOM      8  C   UNL     1       0.905  15.374  18.929  0.00  0.00    +0.000 C 
ATOM      9  N   UNL     1       0.967  14.158  19.708  0.00  0.00    +0.000 N 
ATOM     10  C   UNL     1       0.361  12.999  19.234  0.00  0.00    +0.000 C 
ATOM     11  O   UNL     1      -0.304  12.987  18.202  0.00  0.00    +0.000 OA
ATOM     12  C   UNL     1       0.404  11.838  20.251  0.00  0.00    +0.000 C 
ATOM     13  N   UNL     1      -0.409  12.384  21.329  0.00  0.00    +0.000 N 
ATOM     14  C   UNL     1      -0.665  11.799  22.539  0.00  0.00    +0.000 C 
ATOM     15  O   UNL     1      -0.074  10.791  22.915  0.00  0.00    +0.000 OA
ATOM     16  C   UNL     1      -1.887  12.373  23.271  0.00  0.00    +0.000 C 
ATOM     17  N   UNL     1      -2.379  13.704  22.849  0.00  0.00    +0.000 N 
ATOM     18  C   UNL     1      -2.983  13.815  21.516  0.00  0.00    +0.000 C 
ATOM     19  C   UNL     1      -1.952  14.770  23.618  0.00  0.00    +0.000 C 
ATOM     20  O   UNL     1      -0.947  14.633  24.339  0.00  0.00    +0.000 OA
ATOM     21  H   UNL     1      -0.721  16.886  23.959  0.00  0.00    +0.000 HD
ATOM     22  H   UNL     1       1.598  14.085  20.500  0.00  0.00    +0.000 HD
ATOM     23  H   UNL     1      -0.848  13.271  21.147  0.00  0.00    +0.000 HD
ENDROOT
BRANCH   1  24
ATOM     24  C   UNL     1      -3.946  16.433  22.888  0.00  0.00    +0.000 C 
BRANCH  24  26
ATOM     25  C   UNL     1      -6.253  15.709  23.781  0.00  0.00    +0.000 C 
ATOM     26  C   UNL     1      -5.170  16.774  23.771  0.00  0.00    +0.000 C 
ATOM     27  C   UNL     1      -4.695  17.109  25.192  0.00  0.00    +0.000 C 
ENDBRANCH  24  26
ENDBRANCH   1  24
BRANCH  12  28
ATOM     28  C   UNL     1      -0.201  10.542  19.687  0.00  0.00    +0.000 C 
BRANCH  28  29
ATOM     29  C   UNL     1       0.837   9.513  19.327  0.00  0.00    +0.000 A 
ATOM     30  C   UNL     1       1.409   9.481  18.052  0.00  0.00    +0.000 A 
ATOM     31  C   UNL     1       2.298   8.468  17.701  0.00  0.00    +0.000 A 
ATOM     32  C   UNL     1       2.646   7.489  18.632  0.00  0.00    +0.000 A 
ATOM     33  C   UNL     1       2.109   7.528  19.915  0.00  0.00    +0.000 A 
ATOM     34  C   UNL     1       1.221   8.544  20.265  0.00  0.00    +0.000 A 
ENDBRANCH  28  29
ENDBRANCH  12  28
TORSDOF 4
ENDMDL
MODEL 4
REMARK VINA RESULT:      -6.5      4.248      7.716
REMARK  Name = 
REMARK  7 active torsions:
REMARK  status: ('A' for Active; 'I' for Inactive)
REMARK    1  A    between atoms: C_1  and  C_2
REMARK    2  A    between atoms: C_2  and  C_3
REMARK    3  A    between atoms: C_2  and  C_4
REMARK    4  A    between atoms: C_4  and  C_5
REMARK    5  A    between atoms: C_16  and  C_17
REMARK    6  A    between atoms: C_17  and  C_18
REMARK    7  A    between atoms: N_28  and  C_29
REMARK                            x       y       z     vdW  Elec       q    Type
REMARK                         _______ _______ _______ _____ _____    ______ ____
ROOT
ATOM      1  C   UNL     1      -6.256  13.566  21.073  0.00  0.00    +0.000 C 
ATOM      2  N   UNL     1      -6.680  13.247  19.696  0.00  0.00    +0.000 N 
ATOM      3  C   UNL     1      -6.262  12.091  19.070  0.00  0.00    +0.000 C 
ATOM      4  O   UNL     1      -6.333  10.984  19.587  0.00  0.00    +0.000 OA
ATOM      5  C   UNL     1      -5.645  12.344  17.706  0.00  0.00    +0.000 C 
ATOM      6  C   UNL     1      -4.978  11.090  17.136  0.00  0.00    +0.000 C 
ATOM      7  C   UNL     1      -3.687  11.374  16.355  0.00  0.00    +0.000 C 
ATOM      8  C   UNL     1      -2.419  11.192  17.195  0.00  0.00    +0.000 C 
ATOM      9  N   UNL     1      -1.839  12.435  17.649  0.00  0.00    +0.000 N 
ATOM     10  C   UNL     1      -0.734  12.418  18.495  0.00  0.00    +0.000 C 
ATOM     11  O   UNL     1      -0.274  11.372  18.942  0.00  0.00    +0.000 OA
ATOM     12  C   UNL     1      -0.332  13.824  18.990  0.00  0.00    +0.000 C 
ATOM     13  N   UNL     1      -1.509  14.191  19.766  0.00  0.00    +0.000 N 
ATOM     14  C   UNL     1      -1.736  15.384  20.395  0.00  0.00    +0.000 C 
ATOM     15  O   UNL     1      -1.014  16.361  20.221  0.00  0.00    +0.000 OA
ATOM     16  C   UNL     1      -2.817  15.328  21.484  0.00  0.00    +0.000 C 
ATOM     17  N   UNL     1      -3.761  14.187  21.458  0.00  0.00    +0.000 N 
ATOM     18  C   UNL     1      -3.226  12.853  21.759  0.00  0.00    +0.000 C 
ATOM     19  C   UNL     1      -4.981  14.435  20.859  0.00  0.00    +0.000 C 
ATOM     20  O   UNL     1      -5.091  15.405  20.087  0.00  0.00    +0.000 OA
ATOM     21  H   UNL     1      -6.689  14.078  19.110  0.00  0.00    +0.000 HD
ATOM     22  H   UNL     1      -2.104  13.315  17.218  0.00  0.00    +0.000 HD
ATOM     23  H   UNL     1      -2.211  13.477  19.869  0.00  0.00    +0.000 HD
ENDROOT
BRANCH   1  24
ATOM     24  C   UNL     1      -6.286  12.416  22.081  0.00  0.00    +0.000 C 
BRANCH  24  26
ATOM     25  C   UNL     1      -5.466  12.705  24.507  0.00  0.00    +0.000 C 
ATOM     26  C   UNL     1      -6.630  12.811  23.537  0.00  0.00    +0.000 C 
ATOM     27  C   UNL     1      -7.249  14.215  23.551  0.00  0.00    +0.000 C 
ENDBRANCH  24  26
ENDBRANCH   1  24
BRANCH  12  28
ATOM     28  C   UNL     1       0.934  13.798  19.862  0.00  0.00    +0.000 C 
BRANCH  28  29
ATOM     29  C   UNL     1       2.021  14.705  19.351  0.00  0.00    +0.000 A 
ATOM     30  C   UNL     1       2.400  15.848  20.061  0.00  0.00    +0.000 A 
ATOM     31  C   UNL     1       3.340  16.729  19.531  0.00  0.00    +0.000 A 
ATOM     32  C   UNL     1       3.931  16.464  18.296  0.00  0.00    +0.000 A 
ATOM     33  C   UNL     1       3.586  15.313  17.594  0.00  0.00    +0.000 A 
ATOM     34  C   UNL     1       2.647  14.431  18.126  0.00  0.00    +0.000 A 
ENDBRANCH  28  29
ENDBRANCH  12  28
TORSDOF 4
ENDMDL
MODEL 5
REMARK VINA RESULT:      -6.5      2.626      5.596
REMARK  Name = 
REMARK  7 active torsions:
REMARK  status: ('A' for Active; 'I' for Inactive)
REMARK    1  A    between atoms: C_1  and  C_2
REMARK    2  A    between atoms: C_2  and  C_3
REMARK    3  A    between atoms: C_2  and  C_4
REMARK    4  A    between atoms: C_4  and  C_5
REMARK    5  A    between atoms: C_16  and  C_17
REMARK    6  A    between atoms: C_17  and  C_18
REMARK    7  A    between atoms: N_28  and  C_29
REMARK                            x       y       z     vdW  Elec       q    Type
REMARK                         _______ _______ _______ _____ _____    ______ ____
ROOT
ATOM      1  C   UNL     1      -2.206  16.670  23.685  0.00  0.00    +0.000 C 
ATOM      2  N   UNL     1      -0.962  17.442  23.505  0.00  0.00    +0.000 N 
ATOM      3  C   UNL     1      -0.536  17.826  22.251  0.00  0.00    +0.000 C 
ATOM      4  O   UNL     1      -1.261  18.378  21.434  0.00  0.00    +0.000 OA
ATOM      5  C   UNL     1       0.903  17.431  21.966  0.00  0.00    +0.000 C 
ATOM      6  C   UNL     1       1.280  17.651  20.499  0.00  0.00    +0.000 C 
ATOM      7  C   UNL     1       2.217  16.576  19.931  0.00  0.00    +0.000 C 
ATOM      8  C   UNL     1       1.478  15.470  19.171  0.00  0.00    +0.000 C 
ATOM      9  N   UNL     1       1.328  14.245  19.925  0.00  0.00    +0.000 N 
ATOM     10  C   UNL     1       0.601  13.187  19.391  0.00  0.00    +0.000 C 
ATOM     11  O   UNL     1       0.004  13.280  18.322  0.00  0.00    +0.000 OA
ATOM     12  C   UNL     1       0.426  12.016  20.382  0.00  0.00    +0.000 C 
ATOM     13  N   UNL     1      -0.370  12.652  21.424  0.00  0.00    +0.000 N 
ATOM     14  C   UNL     1      -0.775  12.090  22.603  0.00  0.00    +0.000 C 
ATOM     15  O   UNL     1      -0.350  11.006  22.990  0.00  0.00    +0.000 OA
ATOM     16  C   UNL     1      -1.950  12.814  23.276  0.00  0.00    +0.000 C 
ATOM     17  N   UNL     1      -2.232  14.206  22.856  0.00  0.00    +0.000 N 
ATOM     18  C   UNL     1      -2.734  14.417  21.492  0.00  0.00    +0.000 C 
ATOM     19  C   UNL     1      -1.712  15.193  23.671  0.00  0.00    +0.000 C 
ATOM     20  O   UNL     1      -0.780  14.910  24.447  0.00  0.00    +0.000 OA
ATOM     21  H   UNL     1      -0.230  17.116  24.131  0.00  0.00    +0.000 HD
ATOM     22  H   UNL     1       1.894  14.076  20.750  0.00  0.00    +0.000 HD
ATOM     23  H   UNL     1      -0.674  13.593  21.236  0.00  0.00    +0.000 HD
ENDROOT
BRANCH   1  24
ATOM     24  C   UNL     1      -3.416  17.122  22.864  0.00  0.00    +0.000 C 
BRANCH  24  26
ATOM     25  C   UNL     1      -5.636  15.913  23.370  0.00  0.00    +0.000 C 
ATOM     26  C   UNL     1      -4.767  17.135  23.618  0.00  0.00    +0.000 C 
ATOM     27  C   UNL     1      -4.514  17.353  25.115  0.00  0.00    +0.000 C 
ENDBRANCH  24  26
ENDBRANCH   1  24
BRANCH  12  28
ATOM     28  C   UNL     1      -0.314  10.822  19.755  0.00  0.00    +0.000 C 
BRANCH  28  29
ATOM     29  C   UNL     1       0.600   9.679  19.407  0.00  0.00    +0.000 A 
ATOM     30  C   UNL     1       1.030   8.775  20.383  0.00  0.00    +0.000 A 
ATOM     31  C   UNL     1       1.950   7.778  20.067  0.00  0.00    +0.000 A 
ATOM     32  C   UNL     1       2.432   7.657  18.764  0.00  0.00    +0.000 A 
ATOM     33  C   UNL     1       1.988   8.530  17.775  0.00  0.00    +0.000 A 
ATOM     34  C   UNL     1       1.065   9.525  18.092  0.00  0.00    +0.000 A 
ENDBRANCH  28  29
ENDBRANCH  12  28
TORSDOF 4
ENDMDL
MODEL 6
REMARK VINA RESULT:      -6.4      2.882      5.850
REMARK  Name = 
REMARK  7 active torsions:
REMARK  status: ('A' for Active; 'I' for Inactive)
REMARK    1  A    between atoms: C_1  and  C_2
REMARK    2  A    between atoms: C_2  and  C_3
REMARK    3  A    between atoms: C_2  and  C_4
REMARK    4  A    between atoms: C_4  and  C_5
REMARK    5  A    between atoms: C_16  and  C_17
REMARK    6  A    between atoms: C_17  and  C_18
REMARK    7  A    between atoms: N_28  and  C_29
REMARK                            x       y       z     vdW  Elec       q    Type
REMARK                         _______ _______ _______ _____ _____    ______ ____
ROOT
ATOM      1  C   UNL     1      -3.633  16.034  23.880  0.00  0.00    +0.000 C 
ATOM      2  N   UNL     1      -2.542  17.013  23.709  0.00  0.00    +0.000 N 
ATOM      3  C   UNL     1      -2.184  17.470  22.459  0.00  0.00    +0.000 C 
ATOM      4  O   UNL     1      -2.990  17.889  21.640  0.00  0.00    +0.000 OA
ATOM      5  C   UNL     1      -0.696  17.335  22.181  0.00  0.00    +0.000 C 
ATOM      6  C   UNL     1      -0.357  17.624  20.718  0.00  0.00    +0.000 C 
ATOM      7  C   UNL     1       0.758  16.731  20.152  0.00  0.00    +0.000 C 
ATOM      8  C   UNL     1       0.229  15.516  19.384  0.00  0.00    +0.000 C 
ATOM      9  N   UNL     1       0.292  14.281  20.134  0.00  0.00    +0.000 N 
ATOM     10  C   UNL     1      -0.235  13.114  19.592  0.00  0.00    +0.000 C 
ATOM     11  O   UNL     1      -0.833  13.104  18.520  0.00  0.00    +0.000 OA
ATOM     12  C   UNL     1      -0.207  11.926  20.579  0.00  0.00    +0.000 C 
ATOM     13  N   UNL     1      -1.108  12.409  21.618  0.00  0.00    +0.000 N 
ATOM     14  C   UNL     1      -1.414  11.780  22.794  0.00  0.00    +0.000 C 
ATOM     15  O   UNL     1      -0.807  10.786  23.179  0.00  0.00    +0.000 OA
ATOM     16  C   UNL     1      -2.702  12.284  23.462  0.00  0.00    +0.000 C 
ATOM     17  N   UNL     1      -3.221  13.606  23.044  0.00  0.00    +0.000 N 
ATOM     18  C   UNL     1      -3.745  13.732  21.678  0.00  0.00    +0.000 C 
ATOM     19  C   UNL     1      -2.887  14.666  23.865  0.00  0.00    +0.000 C 
ATOM     20  O   UNL     1      -1.924  14.548  24.645  0.00  0.00    +0.000 OA
ATOM     21  H   UNL     1      -1.768  16.818  24.338  0.00  0.00    +0.000 HD
ATOM     22  H   UNL     1       0.875  14.211  20.961  0.00  0.00    +0.000 HD
ATOM     23  H   UNL     1      -1.571  13.283  21.431  0.00  0.00    +0.000 HD
ENDROOT
BRANCH   1  24
ATOM     24  C   UNL     1      -4.899  16.269  23.054  0.00  0.00    +0.000 C 
BRANCH  24  26
ATOM     25  C   UNL     1      -7.274  17.219  23.363  0.00  0.00    +0.000 C 
ATOM     26  C   UNL     1      -6.229  16.225  23.842  0.00  0.00    +0.000 C 
ATOM     27  C   UNL     1      -6.775  14.791  23.843  0.00  0.00    +0.000 C 
ENDBRANCH  24  26
ENDBRANCH   1  24
BRANCH  12  28
ATOM     28  C   UNL     1      -0.723  10.624  19.944  0.00  0.00    +0.000 C 
BRANCH  28  29
ATOM     29  C   UNL     1       0.384   9.698  19.517  0.00  0.00    +0.000 A 
ATOM     30  C   UNL     1       0.843   9.682  18.197  0.00  0.00    +0.000 A 
ATOM     31  C   UNL     1       1.801   8.756  17.792  0.00  0.00    +0.000 A 
ATOM     32  C   UNL     1       2.331   7.851  18.711  0.00  0.00    +0.000 A 
ATOM     33  C   UNL     1       1.907   7.876  20.036  0.00  0.00    +0.000 A 
ATOM     34  C   UNL     1       0.950   8.805  20.439  0.00  0.00    +0.000 A 
ENDBRANCH  28  29
ENDBRANCH  12  28
TORSDOF 4
ENDMDL
MODEL 7
REMARK VINA RESULT:      -6.4      6.869      9.260
REMARK  Name = 
REMARK  7 active torsions:
REMARK  status: ('A' for Active; 'I' for Inactive)
REMARK    1  A    between atoms: C_1  and  C_2
REMARK    2  A    between atoms: C_2  and  C_3
REMARK    3  A    between atoms: C_2  and  C_4
REMARK    4  A    between atoms: C_4  and  C_5
REMARK    5  A    between atoms: C_16  and  C_17
REMARK    6  A    between atoms: C_17  and  C_18
REMARK    7  A    between atoms: N_28  and  C_29
REMARK                            x       y       z     vdW  Elec       q    Type
REMARK                         _______ _______ _______ _____ _____    ______ ____
ROOT
ATOM      1  C   UNL     1       9.927  13.801  18.467  0.00  0.00    +0.000 C 
ATOM      2  N   UNL     1       8.721  13.864  17.619  0.00  0.00    +0.000 N 
ATOM      3  C   UNL     1       7.821  14.902  17.734  0.00  0.00    +0.000 C 
ATOM      4  O   UNL     1       8.150  16.080  17.740  0.00  0.00    +0.000 OA
ATOM      5  C   UNL     1       6.390  14.428  17.922  0.00  0.00    +0.000 C 
ATOM      6  C   UNL     1       5.447  15.578  18.283  0.00  0.00    +0.000 C 
ATOM      7  C   UNL     1       4.355  15.192  19.291  0.00  0.00    +0.000 C 
ATOM      8  C   UNL     1       4.713  15.548  20.737  0.00  0.00    +0.000 C 
ATOM      9  N   UNL     1       5.153  14.418  21.523  0.00  0.00    +0.000 N 
ATOM     10  C   UNL     1       5.594  14.610  22.828  0.00  0.00    +0.000 C 
ATOM     11  O   UNL     1       5.701  15.729  23.322  0.00  0.00    +0.000 OA
ATOM     12  C   UNL     1       6.155  13.323  23.471  0.00  0.00    +0.000 C 
ATOM     13  N   UNL     1       7.310  13.070  22.620  0.00  0.00    +0.000 N 
ATOM     14  C   UNL     1       8.160  12.000  22.689  0.00  0.00    +0.000 C 
ATOM     15  O   UNL     1       7.925  11.025  23.396  0.00  0.00    +0.000 OA
ATOM     16  C   UNL     1       9.510  12.222  21.993  0.00  0.00    +0.000 C 
ATOM     17  N   UNL     1       9.601  13.318  21.001  0.00  0.00    +0.000 N 
ATOM     18  C   UNL     1       9.502  14.696  21.497  0.00  0.00    +0.000 C 
ATOM     19  C   UNL     1       9.465  12.939  19.679  0.00  0.00    +0.000 C 
ATOM     20  O   UNL     1       8.931  11.846  19.413  0.00  0.00    +0.000 OA
ATOM     21  H   UNL     1       8.309  12.943  17.495  0.00  0.00    +0.000 HD
ATOM     22  H   UNL     1       4.974  13.471  21.208  0.00  0.00    +0.000 HD
ATOM     23  H   UNL     1       7.514  13.774  21.930  0.00  0.00    +0.000 HD
ENDROOT
BRANCH   1  24
ATOM     24  C   UNL     1      10.697  15.110  18.658  0.00  0.00    +0.000 C 
BRANCH  24  26
ATOM     25  C   UNL     1      12.333  14.045  16.976  0.00  0.00    +0.000 C 
ATOM     26  C   UNL     1      11.954  15.282  17.773  0.00  0.00    +0.000 C 
ATOM     27  C   UNL     1      11.775  16.505  16.864  0.00  0.00    +0.000 C 
ENDBRANCH  24  26
ENDBRANCH   1  24
BRANCH  12  28
ATOM     28  C   UNL     1       6.568  13.532  24.937  0.00  0.00    +0.000 C 
BRANCH  28  29
ATOM     29  C   UNL     1       5.754  12.712  25.902  0.00  0.00    +0.000 A 
ATOM     30  C   UNL     1       5.586  11.336  25.717  0.00  0.00    +0.000 A 
ATOM     31  C   UNL     1       4.754  10.606  26.562  0.00  0.00    +0.000 A 
ATOM     32  C   UNL     1       4.099  11.239  27.618  0.00  0.00    +0.000 A 
ATOM     33  C   UNL     1       4.282  12.602  27.833  0.00  0.00    +0.000 A 
ATOM     34  C   UNL     1       5.118  13.330  26.988  0.00  0.00    +0.000 A 
ENDBRANCH  28  29
ENDBRANCH  12  28
TORSDOF 4
ENDMDL
MODEL 8
REMARK VINA RESULT:      -6.2      2.511      5.510
REMARK  Name = 
REMARK  7 active torsions:
REMARK  status: ('A' for Active; 'I' for Inactive)
REMARK    1  A    between atoms: C_1  and  C_2
REMARK    2  A    between atoms: C_2  and  C_3
REMARK    3  A    between atoms: C_2  and  C_4
REMARK    4  A    between atoms: C_4  and  C_5
REMARK    5  A    between atoms: C_16  and  C_17
REMARK    6  A    between atoms: C_17  and  C_18
REMARK    7  A    between atoms: N_28  and  C_29
REMARK                            x       y       z     vdW  Elec       q    Type
REMARK                         _______ _______ _______ _____ _____    ______ ____
ROOT
ATOM      1  C   UNL     1      -3.438  15.327  23.406  0.00  0.00    +0.000 C 
ATOM      2  N   UNL     1      -2.514  16.384  22.952  0.00  0.00    +0.000 N 
ATOM      3  C   UNL     1      -2.362  16.673  21.612  0.00  0.00    +0.000 C 
ATOM      4  O   UNL     1      -3.304  16.859  20.854  0.00  0.00    +0.000 OA
ATOM      5  C   UNL     1      -0.911  16.667  21.165  0.00  0.00    +0.000 C 
ATOM      6  C   UNL     1      -0.779  16.754  19.643  0.00  0.00    +0.000 C 
ATOM      7  C   UNL     1       0.375  15.916  19.072  0.00  0.00    +0.000 C 
ATOM      8  C   UNL     1      -0.069  14.540  18.565  0.00  0.00    +0.000 C 
ATOM      9  N   UNL     1       0.242  13.458  19.471  0.00  0.00    +0.000 N 
ATOM     10  C   UNL     1      -0.181  12.165  19.179  0.00  0.00    +0.000 C 
ATOM     11  O   UNL     1      -0.889  11.915  18.208  0.00  0.00    +0.000 OA
ATOM     12  C   UNL     1       0.116  11.164  20.316  0.00  0.00    +0.000 C 
ATOM     13  N   UNL     1      -0.719  11.700  21.383  0.00  0.00    +0.000 N 
ATOM     14  C   UNL     1      -0.805  11.237  22.667  0.00  0.00    +0.000 C 
ATOM     15  O   UNL     1      -0.031  10.394  23.110  0.00  0.00    +0.000 OA
ATOM     16  C   UNL     1      -2.066  11.691  23.418  0.00  0.00    +0.000 C 
ATOM     17  N   UNL     1      -2.801  12.860  22.884  0.00  0.00    +0.000 N 
ATOM     18  C   UNL     1      -3.487  12.703  21.595  0.00  0.00    +0.000 C 
ATOM     19  C   UNL     1      -2.522  14.069  23.492  0.00  0.00    +0.000 C 
ATOM     20  O   UNL     1      -1.470  14.190  24.147  0.00  0.00    +0.000 OA
ATOM     21  H   UNL     1      -1.655  16.383  23.496  0.00  0.00    +0.000 HD
ATOM     22  H   UNL     1       0.918  13.589  20.216  0.00  0.00    +0.000 HD
ATOM     23  H   UNL     1      -1.313  12.473  21.133  0.00  0.00    +0.000 HD
ENDROOT
BRANCH   1  24
ATOM     24  C   UNL     1      -4.808  15.278  22.727  0.00  0.00    +0.000 C 
BRANCH  24  26
ATOM     25  C   UNL     1      -6.773  16.929  22.965  0.00  0.00    +0.000 C 
ATOM     26  C   UNL     1      -5.996  15.779  23.583  0.00  0.00    +0.000 C 
ATOM     27  C   UNL     1      -6.913  14.597  23.923  0.00  0.00    +0.000 C 
ENDBRANCH  24  26
ENDBRANCH   1  24
BRANCH  12  28
ATOM     28  C   UNL     1      -0.289   9.725  19.951  0.00  0.00    +0.000 C 
BRANCH  28  29
ATOM     29  C   UNL     1       0.847   8.921  19.378  0.00  0.00    +0.000 A 
ATOM     30  C   UNL     1       1.432   7.880  20.105  0.00  0.00    +0.000 A 
ATOM     31  C   UNL     1       2.543   7.205  19.603  0.00  0.00    +0.000 A 
ATOM     32  C   UNL     1       3.066   7.548  18.357  0.00  0.00    +0.000 A 
ATOM     33  C   UNL     1       2.474   8.561  17.609  0.00  0.00    +0.000 A 
ATOM     34  C   UNL     1       1.361   9.233  18.111  0.00  0.00    +0.000 A 
ENDBRANCH  28  29
ENDBRANCH  12  28
TORSDOF 4
ENDMDL
MODEL 9
REMARK VINA RESULT:      -6.2      2.124      4.984
REMARK  Name = 
REMARK  7 active torsions:
REMARK  status: ('A' for Active; 'I' for Inactive)
REMARK    1  A    between atoms: C_1  and  C_2
REMARK    2  A    between atoms: C_2  and  C_3
REMARK    3  A    between atoms: C_2  and  C_4
REMARK    4  A    between atoms: C_4  and  C_5
REMARK    5  A    between atoms: C_16  and  C_17
REMARK    6  A    between atoms: C_17  and  C_18
REMARK    7  A    between atoms: N_28  and  C_29
REMARK                            x       y       z     vdW  Elec       q    Type
REMARK                         _______ _______ _______ _____ _____    ______ ____
ROOT
ATOM      1  C   UNL     1      -2.848  15.377  22.748  0.00  0.00    +0.000 C 
ATOM      2  N   UNL     1      -1.758  16.319  22.428  0.00  0.00    +0.000 N 
ATOM      3  C   UNL     1      -1.349  16.521  21.126  0.00  0.00    +0.000 C 
ATOM      4  O   UNL     1      -2.121  16.753  20.207  0.00  0.00    +0.000 OA
ATOM      5  C   UNL     1       0.150  16.356  20.943  0.00  0.00    +0.000 C 
ATOM      6  C   UNL     1       0.551  16.349  19.467  0.00  0.00    +0.000 C 
ATOM      7  C   UNL     1       1.696  15.379  19.139  0.00  0.00    +0.000 C 
ATOM      8  C   UNL     1       1.209  14.026  18.611  0.00  0.00    +0.000 C 
ATOM      9  N   UNL     1       1.249  12.969  19.596  0.00  0.00    +0.000 N 
ATOM     10  C   UNL     1       0.754  11.707  19.281  0.00  0.00    +0.000 C 
ATOM     11  O   UNL     1       0.203  11.473  18.209  0.00  0.00    +0.000 OA
ATOM     12  C   UNL     1       0.748  10.744  20.487  0.00  0.00    +0.000 C 
ATOM     13  N   UNL     1      -0.200  11.411  21.369  0.00  0.00    +0.000 N 
ATOM     14  C   UNL     1      -0.553  11.027  22.634  0.00  0.00    +0.000 C 
ATOM     15  O   UNL     1       0.044  10.141  23.237  0.00  0.00    +0.000 OA
ATOM     16  C   UNL     1      -1.872  11.635  23.133  0.00  0.00    +0.000 C 
ATOM     17  N   UNL     1      -2.382  12.837  22.436  0.00  0.00    +0.000 N 
ATOM     18  C   UNL     1      -2.848  12.677  21.053  0.00  0.00    +0.000 C 
ATOM     19  C   UNL     1      -2.092  14.046  23.039  0.00  0.00    +0.000 C 
ATOM     20  O   UNL     1      -1.163  14.102  23.866  0.00  0.00    +0.000 OA
ATOM     21  H   UNL     1      -1.010  16.267  23.114  0.00  0.00    +0.000 HD
ATOM     22  H   UNL     1       1.796  13.076  20.444  0.00  0.00    +0.000 HD
ATOM     23  H   UNL     1      -0.661  12.222  20.991  0.00  0.00    +0.000 HD
ENDROOT
BRANCH   1  24
ATOM     24  C   UNL     1      -4.078  15.420  21.840  0.00  0.00    +0.000 C 
BRANCH  24  26
ATOM     25  C   UNL     1      -5.495  15.746  23.967  0.00  0.00    +0.000 C 
ATOM     26  C   UNL     1      -5.438  15.211  22.546  0.00  0.00    +0.000 C 
ATOM     27  C   UNL     1      -6.560  15.797  21.678  0.00  0.00    +0.000 C 
ENDBRANCH  24  26
ENDBRANCH   1  24
BRANCH  12  28
ATOM     28  C   UNL     1       0.270   9.332  20.107  0.00  0.00    +0.000 C 
BRANCH  28  29
ATOM     29  C   UNL     1       1.369   8.467  19.551  0.00  0.00    +0.000 A 
ATOM     30  C   UNL     1       1.920   8.723  18.292  0.00  0.00    +0.000 A 
ATOM     31  C   UNL     1       2.869   7.861  17.748  0.00  0.00    +0.000 A 
ATOM     32  C   UNL     1       3.297   6.746  18.469  0.00  0.00    +0.000 A 
ATOM     33  C   UNL     1       2.780   6.497  19.736  0.00  0.00    +0.000 A 
ATOM     34  C   UNL     1       1.832   7.363  20.280  0.00  0.00    +0.000 A 
ENDBRANCH  28  29
ENDBRANCH  12  28
TORSDOF 4
ENDMDL
