MODEL 1
REMARK VINA RESULT:      -7.8      0.000      0.000
REMARK  Name = 
REMARK  10 active torsions:
REMARK  status: ('A' for Active; 'I' for Inactive)
REMARK    1  A    between atoms: C_1  and  C_2
REMARK    2  A    between atoms: C_2  and  O_3
REMARK    3  A    between atoms: O_3  and  C_4
REMARK    4  A    between atoms: C_9  and  C_10
REMARK    5  A    between atoms: C_10  and  N_11
REMARK    6  A    between atoms: C_17  and  C_18
REMARK    7  A    between atoms: C_18  and  C_19
REMARK    8  A    between atoms: N_21  and  C_22
REMARK    9  A    between atoms: N_21  and  C_23
REMARK   10  A    between atoms: C_23  and  C_24
REMARK                            x       y       z     vdW  Elec       q    Type
REMARK                         _______ _______ _______ _____ _____    ______ ____
ROOT
ATOM      1  N   UNL     1       3.181   4.208  17.874  0.00  0.00    +0.000 NA
ATOM      2  C   UNL     1       2.706   2.837  17.640  0.00  0.00    +0.000 C 
ATOM      3  C   UNL     1       2.155   2.094  18.856  0.00  0.00    +0.000 C 
ATOM      4  N   UNL     1       1.369   2.924  19.722  0.00  0.00    +0.000 N 
ATOM      5  C   UNL     1       1.475   4.281  19.792  0.00  0.00    +0.000 C 
ATOM      6  O   UNL     1       0.765   4.855  20.616  0.00  0.00    +0.000 OA
ATOM      7  C   UNL     1       2.306   5.044  18.741  0.00  0.00    +0.000 C 
ATOM      8  H   UNL     1       0.808   2.507  20.456  0.00  0.00    +0.000 HD
ENDROOT
BRANCH   1   9
ATOM      9  C   UNL     1       4.609   4.358  18.125  0.00  0.00    +0.000 C 
BRANCH   9  15
ATOM     10  C   UNL     1       6.800   4.868  16.953  0.00  0.00    +0.000 A 
ATOM     11  C   UNL     1       7.501   5.076  15.768  0.00  0.00    +0.000 A 
ATOM     12  C   UNL     1       6.888   4.792  14.540  0.00  0.00    +0.000 A 
ATOM     13  C   UNL     1       5.587   4.298  14.475  0.00  0.00    +0.000 A 
ATOM     14  C   UNL     1       4.857   4.173  15.655  0.00  0.00    +0.000 A 
ATOM     15  C   UNL     1       5.446   4.492  16.888  0.00  0.00    +0.000 A 
BRANCH  10  16
ATOM     16  O   UNL     1       7.514   4.551  18.084  0.00  0.00    +0.000 OA
BRANCH  16  18
ATOM     17  C   UNL     1       7.864   6.859  18.355  0.00  0.00    +0.000 C 
ATOM     18  C   UNL     1       7.708   5.531  19.101  0.00  0.00    +0.000 C 
ENDBRANCH  16  18
ENDBRANCH  10  16
ENDBRANCH   9  15
ENDBRANCH   1   9
BRANCH   7  19
ATOM     19  C   UNL     1       2.883   6.387  19.287  0.00  0.00    +0.000 C 
BRANCH  19  20
ATOM     20  C   UNL     1       2.369   7.704  18.668  0.00  0.00    +0.000 C 
ATOM     21  O   UNL     1       2.556   7.939  17.469  0.00  0.00    +0.000 OA
ATOM     22  N   UNL     1       1.718   8.642  19.437  0.00  0.00    +0.000 N 
ATOM     23  C   UNL     1       1.103   8.395  20.726  0.00  0.00    +0.000 C 
BRANCH  22  24
ATOM     24  C   UNL     1       1.540   9.991  18.886  0.00  0.00    +0.000 C 
BRANCH  24  25
ATOM     25  C   UNL     1       0.087  10.326  18.637  0.00  0.00    +0.000 A 
ATOM     26  C   UNL     1      -0.573  11.274  19.417  0.00  0.00    +0.000 A 
ATOM     27  N   UNL     1      -1.879  11.602  19.239  0.00  0.00    +0.000 NA
ATOM     28  C   UNL     1      -2.500  10.944  18.239  0.00  0.00    +0.000 A 
ATOM     29  C   UNL     1      -1.862   9.989  17.466  0.00  0.00    +0.000 A 
ATOM     30  N   UNL     1      -0.565   9.656  17.645  0.00  0.00    +0.000 NA
ENDBRANCH  24  25
ENDBRANCH  22  24
ENDBRANCH  19  20
ENDBRANCH   7  19
TORSDOF 8
ENDMDL
MODEL 2
REMARK VINA RESULT:      -7.6      0.949      1.280
REMARK  Name = 
REMARK  10 active torsions:
REMARK  status: ('A' for Active; 'I' for Inactive)
REMARK    1  A    between atoms: C_1  and  C_2
REMARK    2  A    between atoms: C_2  and  O_3
REMARK    3  A    between atoms: O_3  and  C_4
REMARK    4  A    between atoms: C_9  and  C_10
REMARK    5  A    between atoms: C_10  and  N_11
REMARK    6  A    between atoms: C_17  and  C_18
REMARK    7  A    between atoms: C_18  and  C_19
REMARK    8  A    between atoms: N_21  and  C_22
REMARK    9  A    between atoms: N_21  and  C_23
REMARK   10  A    between atoms: C_23  and  C_24
REMARK                            x       y       z     vdW  Elec       q    Type
REMARK                         _______ _______ _______ _____ _____    ______ ____
ROOT
ATOM      1  N   UNL     1       3.027   4.395  17.723  0.00  0.00    +0.000 NA
ATOM      2  C   UNL     1       2.567   3.039  17.392  0.00  0.00    +0.000 C 
ATOM      3  C   UNL     1       2.098   2.177  18.563  0.00  0.00    +0.000 C 
ATOM      4  N   UNL     1       1.346   2.908  19.542  0.00  0.00    +0.000 N 
ATOM      5  C   UNL     1       1.429   4.255  19.727  0.00  0.00    +0.000 C 
ATOM      6  O   UNL     1       0.754   4.737  20.636  0.00  0.00    +0.000 OA
ATOM      7  C   UNL     1       2.185   5.129  18.707  0.00  0.00    +0.000 C 
ATOM      8  H   UNL     1       0.835   2.414  20.264  0.00  0.00    +0.000 HD
ENDROOT
BRANCH   1   9
ATOM      9  C   UNL     1       4.463   4.557  17.909  0.00  0.00    +0.000 C 
BRANCH   9  15
ATOM     10  C   UNL     1       5.685   6.023  16.237  0.00  0.00    +0.000 A 
ATOM     11  C   UNL     1       6.308   6.159  15.000  0.00  0.00    +0.000 A 
ATOM     12  C   UNL     1       6.587   5.019  14.233  0.00  0.00    +0.000 A 
ATOM     13  C   UNL     1       6.258   3.743  14.685  0.00  0.00    +0.000 A 
ATOM     14  C   UNL     1       5.556   3.614  15.881  0.00  0.00    +0.000 A 
ATOM     15  C   UNL     1       5.236   4.751  16.639  0.00  0.00    +0.000 A 
BRANCH  10  16
ATOM     16  O   UNL     1       5.952   6.959  17.207  0.00  0.00    +0.000 OA
BRANCH  16  18
ATOM     17  C   UNL     1       7.761   6.413  18.606  0.00  0.00    +0.000 C 
ATOM     18  C   UNL     1       7.299   7.339  17.477  0.00  0.00    +0.000 C 
ENDBRANCH  16  18
ENDBRANCH  10  16
ENDBRANCH   9  15
ENDBRANCH   1   9
BRANCH   7  19
ATOM     19  C   UNL     1       2.764   6.432  19.339  0.00  0.00    +0.000 C 
BRANCH  19  20
ATOM     20  C   UNL     1       2.276   7.788  18.788  0.00  0.00    +0.000 C 
ATOM     21  O   UNL     1       2.491   8.091  17.609  0.00  0.00    +0.000 OA
ATOM     22  N   UNL     1       1.615   8.685  19.596  0.00  0.00    +0.000 N 
ATOM     23  C   UNL     1       0.970   8.369  20.855  0.00  0.00    +0.000 C 
BRANCH  22  24
ATOM     24  C   UNL     1       1.461  10.066  19.121  0.00  0.00    +0.000 C 
BRANCH  24  25
ATOM     25  C   UNL     1       0.021  10.416  18.821  0.00  0.00    +0.000 A 
ATOM     26  C   UNL     1      -0.645   9.842  17.738  0.00  0.00    +0.000 A 
ATOM     27  N   UNL     1      -1.933  10.132  17.422  0.00  0.00    +0.000 NA
ATOM     28  C   UNL     1      -2.535  11.019  18.240  0.00  0.00    +0.000 A 
ATOM     29  C   UNL     1      -1.882  11.609  19.309  0.00  0.00    +0.000 A 
ATOM     30  N   UNL     1      -0.598  11.327  19.623  0.00  0.00    +0.000 NA
ENDBRANCH  24  25
ENDBRANCH  22  24
ENDBRANCH  19  20
ENDBRANCH   7  19
TORSDOF 8
ENDMDL
MODEL 3
REMARK VINA RESULT:      -7.4      1.745      2.251
REMARK  Name = 
REMARK  10 active torsions:
REMARK  status: ('A' for Active; 'I' for Inactive)
REMARK    1  A    between atoms: C_1  and  C_2
REMARK    2  A    between atoms: C_2  and  O_3
REMARK    3  A    between atoms: O_3  and  C_4
REMARK    4  A    between atoms: C_9  and  C_10
REMARK    5  A    between atoms: C_10  and  N_11
REMARK    6  A    between atoms: C_17  and  C_18
REMARK    7  A    between atoms: C_18  and  C_19
REMARK    8  A    between atoms: N_21  and  C_22
REMARK    9  A    between atoms: N_21  and  C_23
REMARK   10  A    between atoms: C_23  and  C_24
REMARK                            x       y       z     vdW  Elec       q    Type
REMARK                         _______ _______ _______ _____ _____    ______ ____
ROOT
ATOM      1  N   UNL     1       2.967   4.687  17.813  0.00  0.00    +0.000 NA
ATOM      2  C   UNL     1       2.511   3.415  17.238  0.00  0.00    +0.000 C 
ATOM      3  C   UNL     1       2.051   2.347  18.230  0.00  0.00    +0.000 C 
ATOM      4  N   UNL     1       1.300   2.880  19.330  0.00  0.00    +0.000 N 
ATOM      5  C   UNL     1       1.378   4.169  19.762  0.00  0.00    +0.000 C 
ATOM      6  O   UNL     1       0.706   4.470  20.748  0.00  0.00    +0.000 OA
ATOM      7  C   UNL     1       2.126   5.221  18.920  0.00  0.00    +0.000 C 
ATOM      8  H   UNL     1       0.794   2.257  19.949  0.00  0.00    +0.000 HD
ENDROOT
BRANCH   1   9
ATOM      9  C   UNL     1       4.403   4.819  18.021  0.00  0.00    +0.000 C 
BRANCH   9  15
ATOM     10  C   UNL     1       5.730   6.091  16.272  0.00  0.00    +0.000 A 
ATOM     11  C   UNL     1       6.385   6.101  15.044  0.00  0.00    +0.000 A 
ATOM     12  C   UNL     1       6.622   4.893  14.373  0.00  0.00    +0.000 A 
ATOM     13  C   UNL     1       6.222   3.673  14.913  0.00  0.00    +0.000 A 
ATOM     14  C   UNL     1       5.490   3.671  16.099  0.00  0.00    +0.000 A 
ATOM     15  C   UNL     1       5.211   4.876  16.759  0.00  0.00    +0.000 A 
BRANCH  10  16
ATOM     16  O   UNL     1       6.023   7.085  17.175  0.00  0.00    +0.000 OA
BRANCH  16  18
ATOM     17  C   UNL     1       7.777   6.476  18.616  0.00  0.00    +0.000 C 
ATOM     18  C   UNL     1       7.382   7.405  17.464  0.00  0.00    +0.000 C 
ENDBRANCH  16  18
ENDBRANCH  10  16
ENDBRANCH   9  15
ENDBRANCH   1   9
BRANCH   7  19
ATOM     19  C   UNL     1       2.703   6.386  19.781  0.00  0.00    +0.000 C 
BRANCH  19  20
ATOM     20  C   UNL     1       1.865   7.675  19.919  0.00  0.00    +0.000 C 
ATOM     21  O   UNL     1       1.290   7.929  20.983  0.00  0.00    +0.000 OA
ATOM     22  N   UNL     1       1.728   8.547  18.862  0.00  0.00    +0.000 N 
ATOM     23  C   UNL     1       2.592   8.607  17.701  0.00  0.00    +0.000 C 
BRANCH  22  24
ATOM     24  C   UNL     1       0.679   9.571  18.939  0.00  0.00    +0.000 C 
BRANCH  24  25
ATOM     25  C   UNL     1       1.206  10.904  19.419  0.00  0.00    +0.000 A 
ATOM     26  C   UNL     1       1.040  11.304  20.745  0.00  0.00    +0.000 A 
ATOM     27  N   UNL     1       1.485  12.495  21.221  0.00  0.00    +0.000 NA
ATOM     28  C   UNL     1       2.114  13.271  20.315  0.00  0.00    +0.000 A 
ATOM     29  C   UNL     1       2.273  12.894  18.993  0.00  0.00    +0.000 A 
ATOM     30  N   UNL     1       1.825  11.713  18.514  0.00  0.00    +0.000 NA
ENDBRANCH  24  25
ENDBRANCH  22  24
ENDBRANCH  19  20
ENDBRANCH   7  19
TORSDOF 8
ENDMDL
MODEL 4
REMARK VINA RESULT:      -7.3      1.104      1.443
REMARK  Name = 
REMARK  10 active torsions:
REMARK  status: ('A' for Active; 'I' for Inactive)
REMARK    1  A    between atoms: C_1  and  C_2
REMARK    2  A    between atoms: C_2  and  O_3
REMARK    3  A    between atoms: O_3  and  C_4
REMARK    4  A    between atoms: C_9  and  C_10
REMARK    5  A    between atoms: C_10  and  N_11
REMARK    6  A    between atoms: C_17  and  C_18
REMARK    7  A    between atoms: C_18  and  C_19
REMARK    8  A    between atoms: N_21  and  C_22
REMARK    9  A    between atoms: N_21  and  C_23
REMARK   10  A    between atoms: C_23  and  C_24
REMARK                            x       y       z     vdW  Elec       q    Type
REMARK                         _______ _______ _______ _____ _____    ______ ____
ROOT
ATOM      1  N   UNL     1       3.147   5.596  17.748  0.00  0.00    +0.000 NA
ATOM      2  C   UNL     1       3.148   4.142  17.536  0.00  0.00    +0.000 C 
ATOM      3  C   UNL     1       3.313   3.275  18.784  0.00  0.00    +0.000 C 
ATOM      4  N   UNL     1       2.598   3.776  19.923  0.00  0.00    +0.000 N 
ATOM      5  C   UNL     1       2.226   5.076  20.087  0.00  0.00    +0.000 C 
ATOM      6  O   UNL     1       1.656   5.365  21.138  0.00  0.00    +0.000 OA
ATOM      7  C   UNL     1       2.352   6.067  18.914  0.00  0.00    +0.000 C 
ATOM      8  H   UNL     1       2.486   3.197  20.747  0.00  0.00    +0.000 HD
ENDROOT
BRANCH   1   9
ATOM      9  C   UNL     1       4.427   6.270  17.570  0.00  0.00    +0.000 C 
BRANCH   9  15
ATOM     10  C   UNL     1       6.623   5.112  17.050  0.00  0.00    +0.000 A 
ATOM     11  C   UNL     1       7.495   4.570  16.110  0.00  0.00    +0.000 A 
ATOM     12  C   UNL     1       7.065   4.391  14.787  0.00  0.00    +0.000 A 
ATOM     13  C   UNL     1       5.775   4.737  14.390  0.00  0.00    +0.000 A 
ATOM     14  C   UNL     1       4.934   5.359  15.310  0.00  0.00    +0.000 A 
ATOM     15  C   UNL     1       5.366   5.580  16.626  0.00  0.00    +0.000 A 
BRANCH  10  16
ATOM     16  O   UNL     1       6.773   4.741  18.366  0.00  0.00    +0.000 OA
BRANCH  16  18
ATOM     17  C   UNL     1       7.963   6.727  18.774  0.00  0.00    +0.000 C 
ATOM     18  C   UNL     1       7.874   5.239  19.124  0.00  0.00    +0.000 C 
ENDBRANCH  16  18
ENDBRANCH  10  16
ENDBRANCH   9  15
ENDBRANCH   1   9
BRANCH   7  19
ATOM     19  C   UNL     1       2.549   7.541  19.387  0.00  0.00    +0.000 C 
BRANCH  19  20
ATOM     20  C   UNL     1       1.792   8.655  18.633  0.00  0.00    +0.000 C 
ATOM     21  O   UNL     1       1.932   8.781  17.412  0.00  0.00    +0.000 OA
ATOM     22  N   UNL     1       0.971   9.534  19.304  0.00  0.00    +0.000 N 
ATOM     23  C   UNL     1       0.413   9.324  20.625  0.00  0.00    +0.000 C 
BRANCH  22  24
ATOM     24  C   UNL     1       0.538  10.750  18.606  0.00  0.00    +0.000 C 
BRANCH  24  25
ATOM     25  C   UNL     1      -0.949  10.761  18.331  0.00  0.00    +0.000 A 
ATOM     26  C   UNL     1      -1.518   9.855  17.437  0.00  0.00    +0.000 A 
ATOM     27  N   UNL     1      -2.845   9.833  17.149  0.00  0.00    +0.000 NA
ATOM     28  C   UNL     1      -3.586  10.752  17.801  0.00  0.00    +0.000 A 
ATOM     29  C   UNL     1      -3.032  11.667  18.681  0.00  0.00    +0.000 A 
ATOM     30  N   UNL     1      -1.711  11.697  18.963  0.00  0.00    +0.000 NA
ENDBRANCH  24  25
ENDBRANCH  22  24
ENDBRANCH  19  20
ENDBRANCH   7  19
TORSDOF 8
ENDMDL
MODEL 5
REMARK VINA RESULT:      -7.2      1.400      2.461
REMARK  Name = 
REMARK  10 active torsions:
REMARK  status: ('A' for Active; 'I' for Inactive)
REMARK    1  A    between atoms: C_1  and  C_2
REMARK    2  A    between atoms: C_2  and  O_3
REMARK    3  A    between atoms: O_3  and  C_4
REMARK    4  A    between atoms: C_9  and  C_10
REMARK    5  A    between atoms: C_10  and  N_11
REMARK    6  A    between atoms: C_17  and  C_18
REMARK    7  A    between atoms: C_18  and  C_19
REMARK    8  A    between atoms: N_21  and  C_22
REMARK    9  A    between atoms: N_21  and  C_23
REMARK   10  A    between atoms: C_23  and  C_24
REMARK                            x       y       z     vdW  Elec       q    Type
REMARK                         _______ _______ _______ _____ _____    ______ ____
ROOT
ATOM      1  N   UNL     1       3.058   5.795  17.560  0.00  0.00    +0.000 NA
ATOM      2  C   UNL     1       3.145   4.356  17.281  0.00  0.00    +0.000 C 
ATOM      3  C   UNL     1       3.551   3.461  18.451  0.00  0.00    +0.000 C 
ATOM      4  N   UNL     1       2.965   3.857  19.699  0.00  0.00    +0.000 N 
ATOM      5  C   UNL     1       2.518   5.114  19.975  0.00  0.00    +0.000 C 
ATOM      6  O   UNL     1       2.079   5.315  21.107  0.00  0.00    +0.000 OA
ATOM      7  C   UNL     1       2.399   6.155  18.845  0.00  0.00    +0.000 C 
ATOM      8  H   UNL     1       3.015   3.241  20.503  0.00  0.00    +0.000 HD
ENDROOT
BRANCH   1   9
ATOM      9  C   UNL     1       4.243   6.582  17.242  0.00  0.00    +0.000 C 
BRANCH   9  15
ATOM     10  C   UNL     1       6.136   5.024  16.590  0.00  0.00    +0.000 A 
ATOM     11  C   UNL     1       7.289   4.331  16.947  0.00  0.00    +0.000 A 
ATOM     12  C   UNL     1       7.905   4.594  18.178  0.00  0.00    +0.000 A 
ATOM     13  C   UNL     1       7.391   5.545  19.057  0.00  0.00    +0.000 A 
ATOM     14  C   UNL     1       6.190   6.175  18.738  0.00  0.00    +0.000 A 
ATOM     15  C   UNL     1       5.543   5.890  17.527  0.00  0.00    +0.000 A 
BRANCH  10  16
ATOM     16  O   UNL     1       5.894   5.240  15.254  0.00  0.00    +0.000 OA
BRANCH  16  18
ATOM     17  C   UNL     1       6.118   3.791  13.417  0.00  0.00    +0.000 C 
ATOM     18  C   UNL     1       6.849   4.822  14.281  0.00  0.00    +0.000 C 
ENDBRANCH  16  18
ENDBRANCH  10  16
ENDBRANCH   9  15
ENDBRANCH   1   9
BRANCH   7  19
ATOM     19  C   UNL     1       2.543   7.622  19.357  0.00  0.00    +0.000 C 
BRANCH  19  20
ATOM     20  C   UNL     1       1.763   8.730  18.619  0.00  0.00    +0.000 C 
ATOM     21  O   UNL     1       1.928   8.902  17.407  0.00  0.00    +0.000 OA
ATOM     22  N   UNL     1       0.891   9.554  19.296  0.00  0.00    +0.000 N 
ATOM     23  C   UNL     1       0.309   9.279  20.594  0.00  0.00    +0.000 C 
BRANCH  22  24
ATOM     24  C   UNL     1       0.428  10.775  18.626  0.00  0.00    +0.000 C 
BRANCH  24  25
ATOM     25  C   UNL     1      -1.046  10.727  18.291  0.00  0.00    +0.000 A 
ATOM     26  C   UNL     1      -1.949  11.591  18.909  0.00  0.00    +0.000 A 
ATOM     27  N   UNL     1      -3.282  11.579  18.650  0.00  0.00    +0.000 NA
ATOM     28  C   UNL     1      -3.677  10.669  17.737  0.00  0.00    +0.000 A 
ATOM     29  C   UNL     1      -2.794   9.795  17.127  0.00  0.00    +0.000 A 
ATOM     30  N   UNL     1      -1.468   9.799  17.387  0.00  0.00    +0.000 NA
ENDBRANCH  24  25
ENDBRANCH  22  24
ENDBRANCH  19  20
ENDBRANCH   7  19
TORSDOF 8
ENDMDL
MODEL 6
REMARK VINA RESULT:      -7.2      1.943      3.040
REMARK  Name = 
REMARK  10 active torsions:
REMARK  status: ('A' for Active; 'I' for Inactive)
REMARK    1  A    between atoms: C_1  and  C_2
REMARK    2  A    between atoms: C_2  and  O_3
REMARK    3  A    between atoms: O_3  and  C_4
REMARK    4  A    between atoms: C_9  and  C_10
REMARK    5  A    between atoms: C_10  and  N_11
REMARK    6  A    between atoms: C_17  and  C_18
REMARK    7  A    between atoms: C_18  and  C_19
REMARK    8  A    between atoms: N_21  and  C_22
REMARK    9  A    between atoms: N_21  and  C_23
REMARK   10  A    between atoms: C_23  and  C_24
REMARK                            x       y       z     vdW  Elec       q    Type
REMARK                         _______ _______ _______ _____ _____    ______ ____
ROOT
ATOM      1  N   UNL     1       3.044   5.583  17.646  0.00  0.00    +0.000 NA
ATOM      2  C   UNL     1       3.149   4.159  17.301  0.00  0.00    +0.000 C 
ATOM      3  C   UNL     1       3.669   3.232  18.398  0.00  0.00    +0.000 C 
ATOM      4  N   UNL     1       3.170   3.560  19.703  0.00  0.00    +0.000 N 
ATOM      5  C   UNL     1       2.711   4.790  20.064  0.00  0.00    +0.000 C 
ATOM      6  O   UNL     1       2.356   4.933  21.234  0.00  0.00    +0.000 OA
ATOM      7  C   UNL     1       2.476   5.871  18.991  0.00  0.00    +0.000 C 
ATOM      8  H   UNL     1       3.300   2.915  20.474  0.00  0.00    +0.000 HD
ENDROOT
BRANCH   1   9
ATOM      9  C   UNL     1       4.178   6.419  17.271  0.00  0.00    +0.000 C 
BRANCH   9  15
ATOM     10  C   UNL     1       6.265   5.148  16.588  0.00  0.00    +0.000 A 
ATOM     11  C   UNL     1       7.455   4.523  16.950  0.00  0.00    +0.000 A 
ATOM     12  C   UNL     1       7.948   4.671  18.254  0.00  0.00    +0.000 A 
ATOM     13  C   UNL     1       7.276   5.440  19.201  0.00  0.00    +0.000 A 
ATOM     14  C   UNL     1       6.042   5.993  18.865  0.00  0.00    +0.000 A 
ATOM     15  C   UNL     1       5.518   5.818  17.576  0.00  0.00    +0.000 A 
BRANCH  10  16
ATOM     16  O   UNL     1       6.099   5.522  15.276  0.00  0.00    +0.000 OA
BRANCH  16  18
ATOM     17  C   UNL     1       5.975   3.870  13.608  0.00  0.00    +0.000 C 
ATOM     18  C   UNL     1       6.889   4.913  14.258  0.00  0.00    +0.000 C 
ENDBRANCH  16  18
ENDBRANCH  10  16
ENDBRANCH   9  15
ENDBRANCH   1   9
BRANCH   7  19
ATOM     19  C   UNL     1       2.618   7.320  19.552  0.00  0.00    +0.000 C 
BRANCH  19  20
ATOM     20  C   UNL     1       1.613   8.389  19.071  0.00  0.00    +0.000 C 
ATOM     21  O   UNL     1       1.519   8.653  17.868  0.00  0.00    +0.000 OA
ATOM     22  N   UNL     1       0.824   9.073  19.968  0.00  0.00    +0.000 N 
ATOM     23  C   UNL     1       0.537   8.658  21.327  0.00  0.00    +0.000 C 
BRANCH  22  24
ATOM     24  C   UNL     1       0.132  10.281  19.503  0.00  0.00    +0.000 C 
BRANCH  24  25
ATOM     25  C   UNL     1       0.885  11.547  19.846  0.00  0.00    +0.000 A 
ATOM     26  C   UNL     1       0.636  12.228  21.036  0.00  0.00    +0.000 A 
ATOM     27  N   UNL     1       1.278  13.373  21.383  0.00  0.00    +0.000 NA
ATOM     28  C   UNL     1       2.189  13.809  20.490  0.00  0.00    +0.000 A 
ATOM     29  C   UNL     1       2.436  13.151  19.296  0.00  0.00    +0.000 A 
ATOM     30  N   UNL     1       1.794  12.016  18.945  0.00  0.00    +0.000 NA
ENDBRANCH  24  25
ENDBRANCH  22  24
ENDBRANCH  19  20
ENDBRANCH   7  19
TORSDOF 8
ENDMDL
MODEL 7
REMARK VINA RESULT:      -7.2      0.804      1.167
REMARK  Name = 
REMARK  10 active torsions:
REMARK  status: ('A' for Active; 'I' for Inactive)
REMARK    1  A    between atoms: C_1  and  C_2
REMARK    2  A    between atoms: C_2  and  O_3
REMARK    3  A    between atoms: O_3  and  C_4
REMARK    4  A    between atoms: C_9  and  C_10
REMARK    5  A    between atoms: C_10  and  N_11
REMARK    6  A    between atoms: C_17  and  C_18
REMARK    7  A    between atoms: C_18  and  C_19
REMARK    8  A    between atoms: N_21  and  C_22
REMARK    9  A    between atoms: N_21  and  C_23
REMARK   10  A    between atoms: C_23  and  C_24
REMARK                            x       y       z     vdW  Elec       q    Type
REMARK                         _______ _______ _______ _____ _____    ______ ____
ROOT
ATOM      1  N   UNL     1       3.441   4.052  17.678  0.00  0.00    +0.000 NA
ATOM      2  C   UNL     1       2.933   2.674  17.651  0.00  0.00    +0.000 C 
ATOM      3  C   UNL     1       2.477   2.093  18.989  0.00  0.00    +0.000 C 
ATOM      4  N   UNL     1       1.775   3.039  19.809  0.00  0.00    +0.000 N 
ATOM      5  C   UNL     1       1.902   4.391  19.705  0.00  0.00    +0.000 C 
ATOM      6  O   UNL     1       1.269   5.076  20.508  0.00  0.00    +0.000 OA
ATOM      7  C   UNL     1       2.651   5.004  18.505  0.00  0.00    +0.000 C 
ATOM      8  H   UNL     1       1.273   2.724  20.631  0.00  0.00    +0.000 HD
ENDROOT
BRANCH   1   9
ATOM      9  C   UNL     1       4.886   4.201  17.791  0.00  0.00    +0.000 C 
BRANCH   9  15
ATOM     10  C   UNL     1       6.825   5.076  16.407  0.00  0.00    +0.000 A 
ATOM     11  C   UNL     1       7.387   5.316  15.157  0.00  0.00    +0.000 A 
ATOM     12  C   UNL     1       6.787   4.776  14.011  0.00  0.00    +0.000 A 
ATOM     13  C   UNL     1       5.638   3.993  14.094  0.00  0.00    +0.000 A 
ATOM     14  C   UNL     1       5.027   3.827  15.334  0.00  0.00    +0.000 A 
ATOM     15  C   UNL     1       5.595   4.396  16.484  0.00  0.00    +0.000 A 
BRANCH  10  16
ATOM     16  O   UNL     1       7.657   5.047  17.501  0.00  0.00    +0.000 OA
BRANCH  16  18
ATOM     17  C   UNL     1       7.780   5.629  19.775  0.00  0.00    +0.000 C 
ATOM     18  C   UNL     1       7.755   6.189  18.350  0.00  0.00    +0.000 C 
ENDBRANCH  16  18
ENDBRANCH  10  16
ENDBRANCH   9  15
ENDBRANCH   1   9
BRANCH   7  19
ATOM     19  C   UNL     1       3.286   6.391  18.834  0.00  0.00    +0.000 C 
BRANCH  19  20
ATOM     20  C   UNL     1       2.713   7.640  18.131  0.00  0.00    +0.000 C 
ATOM     21  O   UNL     1       2.893   7.806  16.920  0.00  0.00    +0.000 OA
ATOM     22  N   UNL     1       2.014   8.592  18.838  0.00  0.00    +0.000 N 
ATOM     23  C   UNL     1       1.405   8.399  20.139  0.00  0.00    +0.000 C 
BRANCH  22  24
ATOM     24  C   UNL     1       1.774   9.893  18.200  0.00  0.00    +0.000 C 
BRANCH  24  25
ATOM     25  C   UNL     1       0.505  10.552  18.692  0.00  0.00    +0.000 A 
ATOM     26  C   UNL     1      -0.737  10.198  18.166  0.00  0.00    +0.000 A 
ATOM     27  N   UNL     1      -1.902  10.768  18.567  0.00  0.00    +0.000 NA
ATOM     28  C   UNL     1      -1.776  11.708  19.525  0.00  0.00    +0.000 A 
ATOM     29  C   UNL     1      -0.548  12.081  20.046  0.00  0.00    +0.000 A 
ATOM     30  N   UNL     1       0.613  11.521  19.645  0.00  0.00    +0.000 NA
ENDBRANCH  24  25
ENDBRANCH  22  24
ENDBRANCH  19  20
ENDBRANCH   7  19
TORSDOF 8
ENDMDL
MODEL 8
REMARK VINA RESULT:      -7.0      1.793      2.967
REMARK  Name = 
REMARK  10 active torsions:
REMARK  status: ('A' for Active; 'I' for Inactive)
REMARK    1  A    between atoms: C_1  and  C_2
REMARK    2  A    between atoms: C_2  and  O_3
REMARK    3  A    between atoms: O_3  and  C_4
REMARK    4  A    between atoms: C_9  and  C_10
REMARK    5  A    between atoms: C_10  and  N_11
REMARK    6  A    between atoms: C_17  and  C_18
REMARK    7  A    between atoms: C_18  and  C_19
REMARK    8  A    between atoms: N_21  and  C_22
REMARK    9  A    between atoms: N_21  and  C_23
REMARK   10  A    between atoms: C_23  and  C_24
REMARK                            x       y       z     vdW  Elec       q    Type
REMARK                         _______ _______ _______ _____ _____    ______ ____
ROOT
ATOM      1  N   UNL     1       2.991   5.519  17.644  0.00  0.00    +0.000 NA
ATOM      2  C   UNL     1       3.099   4.082  17.361  0.00  0.00    +0.000 C 
ATOM      3  C   UNL     1       3.650   3.207  18.486  0.00  0.00    +0.000 C 
ATOM      4  N   UNL     1       3.176   3.589  19.786  0.00  0.00    +0.000 N 
ATOM      5  C   UNL     1       2.716   4.832  20.102  0.00  0.00    +0.000 C 
ATOM      6  O   UNL     1       2.384   5.024  21.272  0.00  0.00    +0.000 OA
ATOM      7  C   UNL     1       2.450   5.862  18.988  0.00  0.00    +0.000 C 
ATOM      8  H   UNL     1       3.327   2.980  20.581  0.00  0.00    +0.000 HD
ENDROOT
BRANCH   1   9
ATOM      9  C   UNL     1       4.111   6.344  17.210  0.00  0.00    +0.000 C 
BRANCH   9  15
ATOM     10  C   UNL     1       6.160   5.014  16.523  0.00  0.00    +0.000 A 
ATOM     11  C   UNL     1       7.363   4.408  16.874  0.00  0.00    +0.000 A 
ATOM     12  C   UNL     1       7.916   4.644  18.140  0.00  0.00    +0.000 A 
ATOM     13  C   UNL     1       7.291   5.482  19.060  0.00  0.00    +0.000 A 
ATOM     14  C   UNL     1       6.046   6.019  18.742  0.00  0.00    +0.000 A 
ATOM     15  C   UNL     1       5.462   5.757  17.494  0.00  0.00    +0.000 A 
BRANCH  10  16
ATOM     16  O   UNL     1       5.936   5.296  15.197  0.00  0.00    +0.000 OA
BRANCH  16  18
ATOM     17  C   UNL     1       6.110   3.796  13.395  0.00  0.00    +0.000 C 
ATOM     18  C   UNL     1       6.863   4.853  14.209  0.00  0.00    +0.000 C 
ENDBRANCH  16  18
ENDBRANCH  10  16
ENDBRANCH   9  15
ENDBRANCH   1   9
BRANCH   7  19
ATOM     19  C   UNL     1       2.593   7.336  19.481  0.00  0.00    +0.000 C 
BRANCH  19  20
ATOM     20  C   UNL     1       1.618   8.390  18.916  0.00  0.00    +0.000 C 
ATOM     21  O   UNL     1       1.541   8.572  17.697  0.00  0.00    +0.000 OA
ATOM     22  N   UNL     1       0.837   9.154  19.755  0.00  0.00    +0.000 N 
ATOM     23  C   UNL     1       0.528   8.841  21.136  0.00  0.00    +0.000 C 
BRANCH  22  24
ATOM     24  C   UNL     1       0.178  10.342  19.200  0.00  0.00    +0.000 C 
BRANCH  24  25
ATOM     25  C   UNL     1       0.139  11.493  20.179  0.00  0.00    +0.000 A 
ATOM     26  C   UNL     1       1.297  12.201  20.498  0.00  0.00    +0.000 A 
ATOM     27  N   UNL     1       1.315  13.234  21.379  0.00  0.00    +0.000 NA
ATOM     28  C   UNL     1       0.121  13.537  21.927  0.00  0.00    +0.000 A 
ATOM     29  C   UNL     1      -1.034  12.833  21.631  0.00  0.00    +0.000 A 
ATOM     30  N   UNL     1      -1.055  11.800  20.761  0.00  0.00    +0.000 NA
ENDBRANCH  24  25
ENDBRANCH  22  24
ENDBRANCH  19  20
ENDBRANCH   7  19
TORSDOF 8
ENDMDL
MODEL 9
REMARK VINA RESULT:      -6.9      1.998      3.122
REMARK  Name = 
REMARK  10 active torsions:
REMARK  status: ('A' for Active; 'I' for Inactive)
REMARK    1  A    between atoms: C_1  and  C_2
REMARK    2  A    between atoms: C_2  and  O_3
REMARK    3  A    between atoms: O_3  and  C_4
REMARK    4  A    between atoms: C_9  and  C_10
REMARK    5  A    between atoms: C_10  and  N_11
REMARK    6  A    between atoms: C_17  and  C_18
REMARK    7  A    between atoms: C_18  and  C_19
REMARK    8  A    between atoms: N_21  and  C_22
REMARK    9  A    between atoms: N_21  and  C_23
REMARK   10  A    between atoms: C_23  and  C_24
REMARK                            x       y       z     vdW  Elec       q    Type
REMARK                         _______ _______ _______ _____ _____    ______ ____
ROOT
ATOM      1  N   UNL     1       3.055   5.503  17.672  0.00  0.00    +0.000 NA
ATOM      2  C   UNL     1       3.161   4.073  17.350  0.00  0.00    +0.000 C 
ATOM      3  C   UNL     1       3.712   3.168  18.451  0.00  0.00    +0.000 C 
ATOM      4  N   UNL     1       3.241   3.516  19.761  0.00  0.00    +0.000 N 
ATOM      5  C   UNL     1       2.783   4.750  20.112  0.00  0.00    +0.000 C 
ATOM      6  O   UNL     1       2.453   4.912  21.286  0.00  0.00    +0.000 OA
ATOM      7  C   UNL     1       2.517   5.811  19.025  0.00  0.00    +0.000 C 
ATOM      8  H   UNL     1       3.393   2.885  20.540  0.00  0.00    +0.000 HD
ENDROOT
BRANCH   1   9
ATOM      9  C   UNL     1       4.176   6.338  17.258  0.00  0.00    +0.000 C 
BRANCH   9  15
ATOM     10  C   UNL     1       6.201   4.995  16.527  0.00  0.00    +0.000 A 
ATOM     11  C   UNL     1       7.404   4.376  16.852  0.00  0.00    +0.000 A 
ATOM     12  C   UNL     1       7.982   4.598  18.110  0.00  0.00    +0.000 A 
ATOM     13  C   UNL     1       7.379   5.434  19.047  0.00  0.00    +0.000 A 
ATOM     14  C   UNL     1       6.133   5.984  18.755  0.00  0.00    +0.000 A 
ATOM     15  C   UNL     1       5.526   5.737  17.515  0.00  0.00    +0.000 A 
BRANCH  10  16
ATOM     16  O   UNL     1       5.956   5.290  15.207  0.00  0.00    +0.000 OA
BRANCH  16  18
ATOM     17  C   UNL     1       7.342   5.007  13.329  0.00  0.00    +0.000 C 
ATOM     18  C   UNL     1       6.273   4.336  14.195  0.00  0.00    +0.000 C 
ENDBRANCH  16  18
ENDBRANCH  10  16
ENDBRANCH   9  15
ENDBRANCH   1   9
BRANCH   7  19
ATOM     19  C   UNL     1       2.663   7.270  19.557  0.00  0.00    +0.000 C 
BRANCH  19  20
ATOM     20  C   UNL     1       1.680   8.338  19.031  0.00  0.00    +0.000 C 
ATOM     21  O   UNL     1       1.537   8.502  17.815  0.00  0.00    +0.000 OA
ATOM     22  N   UNL     1       0.968   9.134  19.899  0.00  0.00    +0.000 N 
ATOM     23  C   UNL     1       0.732   8.852  21.302  0.00  0.00    +0.000 C 
BRANCH  22  24
ATOM     24  C   UNL     1       0.304  10.328  19.362  0.00  0.00    +0.000 C 
BRANCH  24  25
ATOM     25  C   UNL     1       1.171  11.563  19.457  0.00  0.00    +0.000 A 
ATOM     26  C   UNL     1       1.979  11.955  18.390  0.00  0.00    +0.000 A 
ATOM     27  N   UNL     1       2.782  13.049  18.432  0.00  0.00    +0.000 NA
ATOM     28  C   UNL     1       2.740  13.744  19.587  0.00  0.00    +0.000 A 
ATOM     29  C   UNL     1       1.954  13.358  20.659  0.00  0.00    +0.000 A 
ATOM     30  N   UNL     1       1.159  12.267  20.624  0.00  0.00    +0.000 NA
ENDBRANCH  24  25
ENDBRANCH  22  24
ENDBRANCH  19  20
ENDBRANCH   7  19
TORSDOF 8
ENDMDL
