MODEL 1
REMARK VINA RESULT:      -6.4      0.000      0.000
REMARK  Name = 
REMARK  13 active torsions:
REMARK  status: ('A' for Active; 'I' for Inactive)
REMARK    1  A    between atoms: C_1  and  C_2
REMARK    2  A    between atoms: C_2  and  C_3
REMARK    3  A    between atoms: C_3  and  O_4
REMARK    4  A    between atoms: O_4  and  C_5
REMARK    5  A    between atoms: C_7  and  O_8
REMARK    6  A    between atoms: O_8  and  C_9
REMARK    7  A    between atoms: C_10  and  C_11
REMARK    8  A    between atoms: C_11  and  C_12
REMARK    9  A    between atoms: C_12  and  N_13
REMARK   10  A    between atoms: C_12  and  C_14
REMARK   11  A    between atoms: C_14  and  C_15
REMARK   12  A    between atoms: C_17  and  O_18
REMARK   13  A    between atoms: O_18  and  C_19
REMARK                            x       y       z     vdW  Elec       q    Type
REMARK                         _______ _______ _______ _____ _____    ______ ____
ROOT
ATOM      1  C   UNL     1       2.196   4.250  18.455  0.00  0.00    +0.000 A 
ATOM      2  C   UNL     1       2.455   5.634  18.380  0.00  0.00    +0.000 A 
ATOM      3  C   UNL     1       3.501   6.177  17.608  0.00  0.00    +0.000 A 
ATOM      4  C   UNL     1       4.273   5.324  16.827  0.00  0.00    +0.000 A 
ATOM      5  C   UNL     1       4.018   3.940  16.899  0.00  0.00    +0.000 A 
ATOM      6  C   UNL     1       2.996   3.380  17.701  0.00  0.00    +0.000 A 
ENDROOT
BRANCH   3   7
ATOM      7  O   UNL     1       3.777   7.517  17.541  0.00  0.00    +0.000 OA
ATOM      8  C   UNL     1       2.696   8.391  17.865  0.00  0.00    +0.000 C 
ENDBRANCH   3   7
BRANCH   6   9
ATOM      9  O   UNL     1       3.052   2.016  17.649  0.00  0.00    +0.000 OA
ATOM     10  C   UNL     1       3.701   1.271  18.660  0.00  0.00    +0.000 C 
ENDBRANCH   6   9
BRANCH   1  11
ATOM     11  O   UNL     1       1.143   3.993  19.294  0.00  0.00    +0.000 OA
BRANCH  11  12
ATOM     12  C   UNL     1       1.160   4.569  20.588  0.00  0.00    +0.000 C 
BRANCH  12  14
ATOM     13  C   UNL     1       1.670   2.384  21.658  0.00  0.00    +0.000 C 
ATOM     14  C   UNL     1       2.130   3.828  21.506  0.00  0.00    +0.000 C 
ENDBRANCH  12  14
ENDBRANCH  11  12
ENDBRANCH   1  11
BRANCH   4  15
ATOM     15  C   UNL     1       5.338   5.807  15.854  0.00  0.00    +0.000 C 
BRANCH  15  16
ATOM     16  C   UNL     1       6.825   5.523  16.189  0.00  0.00    +0.000 C 
BRANCH  16  17
ATOM     17  N   UNL     1       7.669   5.474  14.988  0.00  0.00    +0.000 NA
ATOM     18  H   UNL     1       7.283   4.803  14.327  0.00  0.00    +0.000 HD
ATOM     19  H   UNL     1       8.587   5.115  15.249  0.00  0.00    +0.000 HD
ENDBRANCH  16  17
BRANCH  16  20
ATOM     20  C   UNL     1       7.343   6.631  17.141  0.00  0.00    +0.000 C 
ATOM     21  C   UNL     1       7.616   6.154  18.562  0.00  0.00    +0.000 C 
ENDBRANCH  16  20
ENDBRANCH  15  16
ENDBRANCH   4  15
TORSDOF 9
ENDMDL
MODEL 2
REMARK VINA RESULT:      -6.3      2.868      6.276
REMARK  Name = 
REMARK  13 active torsions:
REMARK  status: ('A' for Active; 'I' for Inactive)
REMARK    1  A    between atoms: C_1  and  C_2
REMARK    2  A    between atoms: C_2  and  C_3
REMARK    3  A    between atoms: C_3  and  O_4
REMARK    4  A    between atoms: O_4  and  C_5
REMARK    5  A    between atoms: C_7  and  O_8
REMARK    6  A    between atoms: O_8  and  C_9
REMARK    7  A    between atoms: C_10  and  C_11
REMARK    8  A    between atoms: C_11  and  C_12
REMARK    9  A    between atoms: C_12  and  N_13
REMARK   10  A    between atoms: C_12  and  C_14
REMARK   11  A    between atoms: C_14  and  C_15
REMARK   12  A    between atoms: C_17  and  O_18
REMARK   13  A    between atoms: O_18  and  C_19
REMARK                            x       y       z     vdW  Elec       q    Type
REMARK                         _______ _______ _______ _____ _____    ______ ____
ROOT
ATOM      1  C   UNL     1       5.763   4.672  15.889  0.00  0.00    +0.000 A 
ATOM      2  C   UNL     1       4.759   3.731  16.200  0.00  0.00    +0.000 A 
ATOM      3  C   UNL     1       3.706   4.003  17.095  0.00  0.00    +0.000 A 
ATOM      4  C   UNL     1       3.604   5.274  17.649  0.00  0.00    +0.000 A 
ATOM      5  C   UNL     1       4.606   6.217  17.341  0.00  0.00    +0.000 A 
ATOM      6  C   UNL     1       5.689   5.944  16.474  0.00  0.00    +0.000 A 
ENDROOT
BRANCH   3   7
ATOM      7  O   UNL     1       2.735   3.093  17.421  0.00  0.00    +0.000 OA
ATOM      8  C   UNL     1       3.189   1.905  18.069  0.00  0.00    +0.000 C 
ENDBRANCH   3   7
BRANCH   6   9
ATOM      9  O   UNL     1       6.549   7.005  16.447  0.00  0.00    +0.000 OA
ATOM     10  C   UNL     1       7.451   7.243  17.509  0.00  0.00    +0.000 C 
ENDBRANCH   6   9
BRANCH   1  11
ATOM     11  O   UNL     1       6.676   4.143  15.015  0.00  0.00    +0.000 OA
BRANCH  11  12
ATOM     12  C   UNL     1       6.678   4.613  13.679  0.00  0.00    +0.000 C 
BRANCH  12  14
ATOM     13  C   UNL     1       4.955   3.552  12.234  0.00  0.00    +0.000 C 
ATOM     14  C   UNL     1       6.404   3.476  12.697  0.00  0.00    +0.000 C 
ENDBRANCH  12  14
ENDBRANCH  11  12
ENDBRANCH   1  11
BRANCH   4  15
ATOM     15  C   UNL     1       2.440   5.724  18.519  0.00  0.00    +0.000 C 
BRANCH  15  16
ATOM     16  C   UNL     1       2.665   5.834  20.049  0.00  0.00    +0.000 C 
BRANCH  16  17
ATOM     17  N   UNL     1       1.853   6.897  20.657  0.00  0.00    +0.000 NA
ATOM     18  H   UNL     1       0.880   6.602  20.697  0.00  0.00    +0.000 HD
ATOM     19  H   UNL     1       1.874   7.714  20.045  0.00  0.00    +0.000 HD
ENDBRANCH  16  17
BRANCH  16  20
ATOM     20  C   UNL     1       2.313   4.475  20.706  0.00  0.00    +0.000 C 
ATOM     21  C   UNL     1       0.918   3.965  20.370  0.00  0.00    +0.000 C 
ENDBRANCH  16  20
ENDBRANCH  15  16
ENDBRANCH   4  15
TORSDOF 9
ENDMDL
MODEL 3
REMARK VINA RESULT:      -6.3      2.054      2.883
REMARK  Name = 
REMARK  13 active torsions:
REMARK  status: ('A' for Active; 'I' for Inactive)
REMARK    1  A    between atoms: C_1  and  C_2
REMARK    2  A    between atoms: C_2  and  C_3
REMARK    3  A    between atoms: C_3  and  O_4
REMARK    4  A    between atoms: O_4  and  C_5
REMARK    5  A    between atoms: C_7  and  O_8
REMARK    6  A    between atoms: O_8  and  C_9
REMARK    7  A    between atoms: C_10  and  C_11
REMARK    8  A    between atoms: C_11  and  C_12
REMARK    9  A    between atoms: C_12  and  N_13
REMARK   10  A    between atoms: C_12  and  C_14
REMARK   11  A    between atoms: C_14  and  C_15
REMARK   12  A    between atoms: C_17  and  O_18
REMARK   13  A    between atoms: O_18  and  C_19
REMARK                            x       y       z     vdW  Elec       q    Type
REMARK                         _______ _______ _______ _____ _____    ______ ____
ROOT
ATOM      1  C   UNL     1       3.648   5.131  18.567  0.00  0.00    +0.000 A 
ATOM      2  C   UNL     1       4.930   5.712  18.657  0.00  0.00    +0.000 A 
ATOM      3  C   UNL     1       5.986   5.377  17.788  0.00  0.00    +0.000 A 
ATOM      4  C   UNL     1       5.744   4.485  16.748  0.00  0.00    +0.000 A 
ATOM      5  C   UNL     1       4.465   3.901  16.655  0.00  0.00    +0.000 A 
ATOM      6  C   UNL     1       3.408   4.201  17.546  0.00  0.00    +0.000 A 
ENDROOT
BRANCH   3   7
ATOM      7  O   UNL     1       7.240   5.919  17.874  0.00  0.00    +0.000 OA
ATOM      8  C   UNL     1       7.354   7.287  17.483  0.00  0.00    +0.000 C 
ENDBRANCH   3   7
BRANCH   6   9
ATOM      9  O   UNL     1       2.327   3.411  17.275  0.00  0.00    +0.000 OA
ATOM     10  C   UNL     1       2.232   2.098  17.789  0.00  0.00    +0.000 C 
ENDBRANCH   6   9
BRANCH   1  11
ATOM     11  O   UNL     1       2.821   5.614  19.547  0.00  0.00    +0.000 OA
BRANCH  11  12
ATOM     12  C   UNL     1       2.600   4.814  20.695  0.00  0.00    +0.000 C 
BRANCH  12  14
ATOM     13  C   UNL     1       1.303   2.808  21.382  0.00  0.00    +0.000 C 
ATOM     14  C   UNL     1       1.235   4.133  20.634  0.00  0.00    +0.000 C 
ENDBRANCH  12  14
ENDBRANCH  11  12
ENDBRANCH   1  11
BRANCH   4  15
ATOM     15  C   UNL     1       6.765   4.151  15.670  0.00  0.00    +0.000 C 
BRANCH  15  16
ATOM     16  C   UNL     1       6.629   4.843  14.289  0.00  0.00    +0.000 C 
BRANCH  16  17
ATOM     17  N   UNL     1       7.880   5.484  13.861  0.00  0.00    +0.000 NA
ATOM     18  H   UNL     1       7.670   6.363  13.392  0.00  0.00    +0.000 HD
ATOM     19  H   UNL     1       8.328   4.892  13.161  0.00  0.00    +0.000 HD
ENDBRANCH  16  17
BRANCH  16  20
ATOM     20  C   UNL     1       6.205   3.785  13.239  0.00  0.00    +0.000 C 
ATOM     21  C   UNL     1       7.021   3.823  11.953  0.00  0.00    +0.000 C 
ENDBRANCH  16  20
ENDBRANCH  15  16
ENDBRANCH   4  15
TORSDOF 9
ENDMDL
MODEL 4
REMARK VINA RESULT:      -6.2      1.099      1.223
REMARK  Name = 
REMARK  13 active torsions:
REMARK  status: ('A' for Active; 'I' for Inactive)
REMARK    1  A    between atoms: C_1  and  C_2
REMARK    2  A    between atoms: C_2  and  C_3
REMARK    3  A    between atoms: C_3  and  O_4
REMARK    4  A    between atoms: O_4  and  C_5
REMARK    5  A    between atoms: C_7  and  O_8
REMARK    6  A    between atoms: O_8  and  C_9
REMARK    7  A    between atoms: C_10  and  C_11
REMARK    8  A    between atoms: C_11  and  C_12
REMARK    9  A    between atoms: C_12  and  N_13
REMARK   10  A    between atoms: C_12  and  C_14
REMARK   11  A    between atoms: C_14  and  C_15
REMARK   12  A    between atoms: C_17  and  O_18
REMARK   13  A    between atoms: O_18  and  C_19
REMARK                            x       y       z     vdW  Elec       q    Type
REMARK                         _______ _______ _______ _____ _____    ______ ____
ROOT
ATOM      1  C   UNL     1       2.089   4.205  17.919  0.00  0.00    +0.000 A 
ATOM      2  C   UNL     1       1.988   5.593  18.149  0.00  0.00    +0.000 A 
ATOM      3  C   UNL     1       3.083   6.470  18.029  0.00  0.00    +0.000 A 
ATOM      4  C   UNL     1       4.306   5.966  17.598  0.00  0.00    +0.000 A 
ATOM      5  C   UNL     1       4.410   4.579  17.368  0.00  0.00    +0.000 A 
ATOM      6  C   UNL     1       3.328   3.683  17.522  0.00  0.00    +0.000 A 
ENDROOT
BRANCH   3   7
ATOM      7  O   UNL     1       3.005   7.817  18.267  0.00  0.00    +0.000 OA
ATOM      8  C   UNL     1       1.879   8.484  17.699  0.00  0.00    +0.000 C 
ENDBRANCH   3   7
BRANCH   6   9
ATOM      9  O   UNL     1       3.751   2.398  17.331  0.00  0.00    +0.000 OA
ATOM     10  C   UNL     1       3.770   1.468  18.396  0.00  0.00    +0.000 C 
ENDBRANCH   6   9
BRANCH   1  11
ATOM     11  O   UNL     1       0.885   3.585  18.130  0.00  0.00    +0.000 OA
BRANCH  11  12
ATOM     12  C   UNL     1       0.707   2.854  19.330  0.00  0.00    +0.000 C 
BRANCH  12  14
ATOM     13  C   UNL     1       1.894   2.910  21.514  0.00  0.00    +0.000 C 
ATOM     14  C   UNL     1       1.031   3.714  20.550  0.00  0.00    +0.000 C 
ENDBRANCH  12  14
ENDBRANCH  11  12
ENDBRANCH   1  11
BRANCH   4  15
ATOM     15  C   UNL     1       5.519   6.835  17.303  0.00  0.00    +0.000 C 
BRANCH  15  16
ATOM     16  C   UNL     1       6.919   6.168  17.300  0.00  0.00    +0.000 C 
BRANCH  16  17
ATOM     17  N   UNL     1       7.469   6.034  15.944  0.00  0.00    +0.000 NA
ATOM     18  H   UNL     1       8.479   5.917  15.996  0.00  0.00    +0.000 HD
ATOM     19  H   UNL     1       7.313   6.908  15.441  0.00  0.00    +0.000 HD
ENDBRANCH  16  17
BRANCH  16  20
ATOM     20  C   UNL     1       7.881   7.019  18.167  0.00  0.00    +0.000 C 
ATOM     21  C   UNL     1       7.961   8.483  17.752  0.00  0.00    +0.000 C 
ENDBRANCH  16  20
ENDBRANCH  15  16
ENDBRANCH   4  15
TORSDOF 9
ENDMDL
MODEL 5
REMARK VINA RESULT:      -6.1      2.351      5.294
REMARK  Name = 
REMARK  13 active torsions:
REMARK  status: ('A' for Active; 'I' for Inactive)
REMARK    1  A    between atoms: C_1  and  C_2
REMARK    2  A    between atoms: C_2  and  C_3
REMARK    3  A    between atoms: C_3  and  O_4
REMARK    4  A    between atoms: O_4  and  C_5
REMARK    5  A    between atoms: C_7  and  O_8
REMARK    6  A    between atoms: O_8  and  C_9
REMARK    7  A    between atoms: C_10  and  C_11
REMARK    8  A    between atoms: C_11  and  C_12
REMARK    9  A    between atoms: C_12  and  N_13
REMARK   10  A    between atoms: C_12  and  C_14
REMARK   11  A    between atoms: C_14  and  C_15
REMARK   12  A    between atoms: C_17  and  O_18
REMARK   13  A    between atoms: O_18  and  C_19
REMARK                            x       y       z     vdW  Elec       q    Type
REMARK                         _______ _______ _______ _____ _____    ______ ____
ROOT
ATOM      1  C   UNL     1       5.415   5.755  16.625  0.00  0.00    +0.000 A 
ATOM      2  C   UNL     1       4.338   6.214  17.411  0.00  0.00    +0.000 A 
ATOM      3  C   UNL     1       3.237   5.403  17.751  0.00  0.00    +0.000 A 
ATOM      4  C   UNL     1       3.236   4.070  17.357  0.00  0.00    +0.000 A 
ATOM      5  C   UNL     1       4.310   3.607  16.569  0.00  0.00    +0.000 A 
ATOM      6  C   UNL     1       5.402   4.422  16.189  0.00  0.00    +0.000 A 
ENDROOT
BRANCH   3   7
ATOM      7  O   UNL     1       2.176   5.841  18.497  0.00  0.00    +0.000 OA
ATOM      8  C   UNL     1       2.500   6.403  19.768  0.00  0.00    +0.000 C 
ENDBRANCH   3   7
BRANCH   6   9
ATOM      9  O   UNL     1       6.231   3.735  15.349  0.00  0.00    +0.000 OA
ATOM     10  C   UNL     1       6.180   3.930  13.950  0.00  0.00    +0.000 C 
ENDBRANCH   6   9
BRANCH   1  11
ATOM     11  O   UNL     1       6.334   6.751  16.424  0.00  0.00    +0.000 OA
BRANCH  11  12
ATOM     12  C   UNL     1       6.673   7.583  17.520  0.00  0.00    +0.000 C 
BRANCH  12  14
ATOM     13  C   UNL     1       7.752   5.988  19.091  0.00  0.00    +0.000 C 
ATOM     14  C   UNL     1       7.999   7.155  18.144  0.00  0.00    +0.000 C 
ENDBRANCH  12  14
ENDBRANCH  11  12
ENDBRANCH   1  11
BRANCH   4  15
ATOM     15  C   UNL     1       2.172   3.068  17.777  0.00  0.00    +0.000 C 
BRANCH  15  16
ATOM     16  C   UNL     1       2.322   2.369  19.153  0.00  0.00    +0.000 C 
BRANCH  16  17
ATOM     17  N   UNL     1       3.621   2.645  19.781  0.00  0.00    +0.000 NA
ATOM     18  H   UNL     1       3.630   3.598  20.140  0.00  0.00    +0.000 HD
ATOM     19  H   UNL     1       4.344   2.609  19.062  0.00  0.00    +0.000 HD
ENDBRANCH  16  17
BRANCH  16  20
ATOM     20  C   UNL     1       1.183   2.853  20.087  0.00  0.00    +0.000 C 
ATOM     21  C   UNL     1       1.529   2.801  21.569  0.00  0.00    +0.000 C 
ENDBRANCH  16  20
ENDBRANCH  15  16
ENDBRANCH   4  15
TORSDOF 9
ENDMDL
MODEL 6
REMARK VINA RESULT:      -6.1      2.747      6.408
REMARK  Name = 
REMARK  13 active torsions:
REMARK  status: ('A' for Active; 'I' for Inactive)
REMARK    1  A    between atoms: C_1  and  C_2
REMARK    2  A    between atoms: C_2  and  C_3
REMARK    3  A    between atoms: C_3  and  O_4
REMARK    4  A    between atoms: O_4  and  C_5
REMARK    5  A    between atoms: C_7  and  O_8
REMARK    6  A    between atoms: O_8  and  C_9
REMARK    7  A    between atoms: C_10  and  C_11
REMARK    8  A    between atoms: C_11  and  C_12
REMARK    9  A    between atoms: C_12  and  N_13
REMARK   10  A    between atoms: C_12  and  C_14
REMARK   11  A    between atoms: C_14  and  C_15
REMARK   12  A    between atoms: C_17  and  O_18
REMARK   13  A    between atoms: O_18  and  C_19
REMARK                            x       y       z     vdW  Elec       q    Type
REMARK                         _______ _______ _______ _____ _____    ______ ____
ROOT
ATOM      1  C   UNL     1       5.698   4.983  15.877  0.00  0.00    +0.000 A 
ATOM      2  C   UNL     1       4.756   3.956  16.088  0.00  0.00    +0.000 A 
ATOM      3  C   UNL     1       3.681   4.076  16.992  0.00  0.00    +0.000 A 
ATOM      4  C   UNL     1       3.494   5.283  17.658  0.00  0.00    +0.000 A 
ATOM      5  C   UNL     1       4.435   6.312  17.450  0.00  0.00    +0.000 A 
ATOM      6  C   UNL     1       5.539   6.188  16.575  0.00  0.00    +0.000 A 
ENDROOT
BRANCH   3   7
ATOM      7  O   UNL     1       2.769   3.081  17.221  0.00  0.00    +0.000 OA
ATOM      8  C   UNL     1       3.229   1.987  18.014  0.00  0.00    +0.000 C 
ENDBRANCH   3   7
BRANCH   6   9
ATOM      9  O   UNL     1       6.329   7.300  16.656  0.00  0.00    +0.000 OA
ATOM     10  C   UNL     1       7.451   7.340  17.516  0.00  0.00    +0.000 C 
ENDBRANCH   6   9
BRANCH   1  11
ATOM     11  O   UNL     1       6.650   4.595  14.970  0.00  0.00    +0.000 OA
BRANCH  11  12
ATOM     12  C   UNL     1       6.241   3.813  13.862  0.00  0.00    +0.000 C 
BRANCH  12  14
ATOM     13  C   UNL     1       7.943   5.361  12.921  0.00  0.00    +0.000 C 
ATOM     14  C   UNL     1       7.033   4.180  12.609  0.00  0.00    +0.000 C 
ENDBRANCH  12  14
ENDBRANCH  11  12
ENDBRANCH   1  11
BRANCH   4  15
ATOM     15  C   UNL     1       2.298   5.575  18.551  0.00  0.00    +0.000 C 
BRANCH  15  16
ATOM     16  C   UNL     1       2.445   5.343  20.077  0.00  0.00    +0.000 C 
BRANCH  16  17
ATOM     17  N   UNL     1       2.116   6.543  20.858  0.00  0.00    +0.000 NA
ATOM     18  H   UNL     1       1.919   7.317  20.226  0.00  0.00    +0.000 HD
ATOM     19  H   UNL     1       2.939   6.820  21.393  0.00  0.00    +0.000 HD
ENDBRANCH  16  17
BRANCH  16  20
ATOM     20  C   UNL     1       1.511   4.180  20.498  0.00  0.00    +0.000 C 
ATOM     21  C   UNL     1       2.074   3.302  21.609  0.00  0.00    +0.000 C 
ENDBRANCH  16  20
ENDBRANCH  15  16
ENDBRANCH   4  15
TORSDOF 9
ENDMDL
MODEL 7
REMARK VINA RESULT:      -6.1      2.531      5.634
REMARK  Name = 
REMARK  13 active torsions:
REMARK  status: ('A' for Active; 'I' for Inactive)
REMARK    1  A    between atoms: C_1  and  C_2
REMARK    2  A    between atoms: C_2  and  C_3
REMARK    3  A    between atoms: C_3  and  O_4
REMARK    4  A    between atoms: O_4  and  C_5
REMARK    5  A    between atoms: C_7  and  O_8
REMARK    6  A    between atoms: O_8  and  C_9
REMARK    7  A    between atoms: C_10  and  C_11
REMARK    8  A    between atoms: C_11  and  C_12
REMARK    9  A    between atoms: C_12  and  N_13
REMARK   10  A    between atoms: C_12  and  C_14
REMARK   11  A    between atoms: C_14  and  C_15
REMARK   12  A    between atoms: C_17  and  O_18
REMARK   13  A    between atoms: O_18  and  C_19
REMARK                            x       y       z     vdW  Elec       q    Type
REMARK                         _______ _______ _______ _____ _____    ______ ____
ROOT
ATOM      1  C   UNL     1       5.645   6.189  16.688  0.00  0.00    +0.000 A 
ATOM      2  C   UNL     1       4.519   6.470  17.489  0.00  0.00    +0.000 A 
ATOM      3  C   UNL     1       3.503   5.527  17.740  0.00  0.00    +0.000 A 
ATOM      4  C   UNL     1       3.642   4.238  17.239  0.00  0.00    +0.000 A 
ATOM      5  C   UNL     1       4.767   3.953  16.437  0.00  0.00    +0.000 A 
ATOM      6  C   UNL     1       5.773   4.903  16.146  0.00  0.00    +0.000 A 
ENDROOT
BRANCH   3   7
ATOM      7  O   UNL     1       2.395   5.791  18.500  0.00  0.00    +0.000 OA
ATOM      8  C   UNL     1       2.481   6.937  19.348  0.00  0.00    +0.000 C 
ENDBRANCH   3   7
BRANCH   6   9
ATOM      9  O   UNL     1       6.677   4.375  15.268  0.00  0.00    +0.000 OA
ATOM     10  C   UNL     1       6.275   3.907  13.996  0.00  0.00    +0.000 C 
ENDBRANCH   6   9
BRANCH   1  11
ATOM     11  O   UNL     1       6.460   7.286  16.587  0.00  0.00    +0.000 OA
BRANCH  11  12
ATOM     12  C   UNL     1       7.459   7.474  17.575  0.00  0.00    +0.000 C 
BRANCH  12  14
ATOM     13  C   UNL     1       8.827   9.137  18.815  0.00  0.00    +0.000 C 
ATOM     14  C   UNL     1       7.950   8.920  17.590  0.00  0.00    +0.000 C 
ENDBRANCH  12  14
ENDBRANCH  11  12
ENDBRANCH   1  11
BRANCH   4  15
ATOM     15  C   UNL     1       2.681   3.102  17.555  0.00  0.00    +0.000 C 
BRANCH  15  16
ATOM     16  C   UNL     1       2.737   2.463  18.968  0.00  0.00    +0.000 C 
BRANCH  16  17
ATOM     17  N   UNL     1       3.728   3.114  19.835  0.00  0.00    +0.000 NA
ATOM     18  H   UNL     1       4.658   2.995  19.439  0.00  0.00    +0.000 HD
ATOM     19  H   UNL     1       3.742   2.630  20.734  0.00  0.00    +0.000 HD
ENDBRANCH  16  17
BRANCH  16  20
ATOM     20  C   UNL     1       1.334   2.565  19.618  0.00  0.00    +0.000 C 
ATOM     21  C   UNL     1       1.352   3.043  21.064  0.00  0.00    +0.000 C 
ENDBRANCH  16  20
ENDBRANCH  15  16
ENDBRANCH   4  15
TORSDOF 9
ENDMDL
MODEL 8
REMARK VINA RESULT:      -6.1      2.130      3.712
REMARK  Name = 
REMARK  13 active torsions:
REMARK  status: ('A' for Active; 'I' for Inactive)
REMARK    1  A    between atoms: C_1  and  C_2
REMARK    2  A    between atoms: C_2  and  C_3
REMARK    3  A    between atoms: C_3  and  O_4
REMARK    4  A    between atoms: O_4  and  C_5
REMARK    5  A    between atoms: C_7  and  O_8
REMARK    6  A    between atoms: O_8  and  C_9
REMARK    7  A    between atoms: C_10  and  C_11
REMARK    8  A    between atoms: C_11  and  C_12
REMARK    9  A    between atoms: C_12  and  N_13
REMARK   10  A    between atoms: C_12  and  C_14
REMARK   11  A    between atoms: C_14  and  C_15
REMARK   12  A    between atoms: C_17  and  O_18
REMARK   13  A    between atoms: O_18  and  C_19
REMARK                            x       y       z     vdW  Elec       q    Type
REMARK                         _______ _______ _______ _____ _____    ______ ____
ROOT
ATOM      1  C   UNL     1       3.455   5.225  18.691  0.00  0.00    +0.000 A 
ATOM      2  C   UNL     1       4.825   5.553  18.635  0.00  0.00    +0.000 A 
ATOM      3  C   UNL     1       5.705   5.007  17.680  0.00  0.00    +0.000 A 
ATOM      4  C   UNL     1       5.195   4.160  16.701  0.00  0.00    +0.000 A 
ATOM      5  C   UNL     1       3.826   3.830  16.754  0.00  0.00    +0.000 A 
ATOM      6  C   UNL     1       2.941   4.341  17.732  0.00  0.00    +0.000 A 
ENDROOT
BRANCH   3   7
ATOM      7  O   UNL     1       7.042   5.301  17.624  0.00  0.00    +0.000 OA
ATOM      8  C   UNL     1       7.387   6.666  17.857  0.00  0.00    +0.000 C 
ENDBRANCH   3   7
BRANCH   6   9
ATOM      9  O   UNL     1       1.708   3.768  17.596  0.00  0.00    +0.000 OA
ATOM     10  C   UNL     1       1.272   2.752  18.477  0.00  0.00    +0.000 C 
ENDBRANCH   6   9
BRANCH   1  11
ATOM     11  O   UNL     1       2.839   5.874  19.728  0.00  0.00    +0.000 OA
BRANCH  11  12
ATOM     12  C   UNL     1       2.494   7.238  19.557  0.00  0.00    +0.000 C 
BRANCH  12  14
ATOM     13  C   UNL     1       2.063   9.053  17.914  0.00  0.00    +0.000 C 
ATOM     14  C   UNL     1       2.177   7.545  18.096  0.00  0.00    +0.000 C 
ENDBRANCH  12  14
ENDBRANCH  11  12
ENDBRANCH   1  11
BRANCH   4  15
ATOM     15  C   UNL     1       6.019   3.619  15.542  0.00  0.00    +0.000 C 
BRANCH  15  16
ATOM     16  C   UNL     1       6.263   4.541  14.319  0.00  0.00    +0.000 C 
BRANCH  16  17
ATOM     17  N   UNL     1       7.477   5.355  14.467  0.00  0.00    +0.000 NA
ATOM     18  H   UNL     1       7.353   6.015  15.232  0.00  0.00    +0.000 HD
ATOM     19  H   UNL     1       7.596   5.919  13.625  0.00  0.00    +0.000 HD
ENDBRANCH  16  17
BRANCH  16  20
ATOM     20  C   UNL     1       6.380   3.663  13.047  0.00  0.00    +0.000 C 
ATOM     21  C   UNL     1       5.075   3.506  12.277  0.00  0.00    +0.000 C 
ENDBRANCH  16  20
ENDBRANCH  15  16
ENDBRANCH   4  15
TORSDOF 9
ENDMDL
MODEL 9
REMARK VINA RESULT:      -6.1      2.733      5.774
REMARK  Name = 
REMARK  13 active torsions:
REMARK  status: ('A' for Active; 'I' for Inactive)
REMARK    1  A    between atoms: C_1  and  C_2
REMARK    2  A    between atoms: C_2  and  C_3
REMARK    3  A    between atoms: C_3  and  O_4
REMARK    4  A    between atoms: O_4  and  C_5
REMARK    5  A    between atoms: C_7  and  O_8
REMARK    6  A    between atoms: O_8  and  C_9
REMARK    7  A    between atoms: C_10  and  C_11
REMARK    8  A    between atoms: C_11  and  C_12
REMARK    9  A    between atoms: C_12  and  N_13
REMARK   10  A    between atoms: C_12  and  C_14
REMARK   11  A    between atoms: C_14  and  C_15
REMARK   12  A    between atoms: C_17  and  O_18
REMARK   13  A    between atoms: O_18  and  C_19
REMARK                            x       y       z     vdW  Elec       q    Type
REMARK                         _______ _______ _______ _____ _____    ______ ____
ROOT
ATOM      1  C   UNL     1       6.602   5.690  17.138  0.00  0.00    +0.000 A 
ATOM      2  C   UNL     1       5.728   5.813  18.238  0.00  0.00    +0.000 A 
ATOM      3  C   UNL     1       4.476   5.171  18.296  0.00  0.00    +0.000 A 
ATOM      4  C   UNL     1       4.106   4.321  17.260  0.00  0.00    +0.000 A 
ATOM      5  C   UNL     1       4.977   4.196  16.158  0.00  0.00    +0.000 A 
ATOM      6  C   UNL     1       6.219   4.866  16.070  0.00  0.00    +0.000 A 
ENDROOT
BRANCH   3   7
ATOM      7  O   UNL     1       3.608   5.295  19.349  0.00  0.00    +0.000 OA
ATOM      8  C   UNL     1       2.850   6.504  19.389  0.00  0.00    +0.000 C 
ENDBRANCH   3   7
BRANCH   6   9
ATOM      9  O   UNL     1       6.792   4.636  14.852  0.00  0.00    +0.000 OA
ATOM     10  C   UNL     1       6.115   3.901  13.852  0.00  0.00    +0.000 C 
ENDBRANCH   6   9
BRANCH   1  11
ATOM     11  O   UNL     1       7.735   6.436  17.328  0.00  0.00    +0.000 OA
BRANCH  11  12
ATOM     12  C   UNL     1       7.606   7.844  17.416  0.00  0.00    +0.000 C 
BRANCH  12  14
ATOM     13  C   UNL     1       8.675   9.906  18.303  0.00  0.00    +0.000 C 
ATOM     14  C   UNL     1       8.496   8.409  18.520  0.00  0.00    +0.000 C 
ENDBRANCH  12  14
ENDBRANCH  11  12
ENDBRANCH   1  11
BRANCH   4  15
ATOM     15  C   UNL     1       2.843   3.472  17.275  0.00  0.00    +0.000 C 
BRANCH  15  16
ATOM     16  C   UNL     1       2.882   2.108  18.012  0.00  0.00    +0.000 C 
BRANCH  16  17
ATOM     17  N   UNL     1       3.991   2.024  18.972  0.00  0.00    +0.000 NA
ATOM     18  H   UNL     1       3.736   2.508  19.831  0.00  0.00    +0.000 HD
ATOM     19  H   UNL     1       4.791   2.531  18.591  0.00  0.00    +0.000 HD
ENDBRANCH  16  17
BRANCH  16  20
ATOM     20  C   UNL     1       1.538   1.902  18.754  0.00  0.00    +0.000 C 
ATOM     21  C   UNL     1       1.053   3.130  19.514  0.00  0.00    +0.000 C 
ENDBRANCH  16  20
ENDBRANCH  15  16
ENDBRANCH   4  15
TORSDOF 9
ENDMDL
