MODEL 1
REMARK VINA RESULT:      -7.3      0.000      0.000
REMARK  Name = 
REMARK  9 active torsions:
REMARK  status: ('A' for Active; 'I' for Inactive)
REMARK    1  A    between atoms: C_1  and  C_2
REMARK    2  A    between atoms: C_2  and  N_3
REMARK    3  A    between atoms: C_5  and  S_6
REMARK    4  A    between atoms: S_6  and  N_9
REMARK    5  A    between atoms: N_9  and  C_10
REMARK    6  A    between atoms: C_10  and  C_11
REMARK    7  A    between atoms: C_11  and  N_12
REMARK    8  A    between atoms: C_13  and  C_14
REMARK    9  A    between atoms: C_17  and  C_18
REMARK                            x       y       z     vdW  Elec       q    Type
REMARK                         _______ _______ _______ _____ _____    ______ ____
ROOT
ATOM      1  N   UNL     1       5.879   5.281  17.953  0.00  0.00    +0.000 NA
ATOM      2  H   UNL     1       6.281   5.136  18.883  0.00  0.00    +0.000 HD
ENDROOT
BRANCH   1   3
ATOM      3  S   UNL     1       7.175   5.272  16.835  0.00  0.00    +0.000 S 
ATOM      4  O   UNL     1       8.091   4.245  17.277  0.00  0.00    +0.000 OA
ATOM      5  O   UNL     1       7.590   6.633  16.601  0.00  0.00    +0.000 OA
BRANCH   3   8
ATOM      6  N   UNL     1       6.423   4.019  13.274  0.00  0.00    +0.000 N 
ATOM      7  C   UNL     1       7.318   4.540  14.162  0.00  0.00    +0.000 A 
ATOM      8  C   UNL     1       6.611   4.720  15.327  0.00  0.00    +0.000 A 
ATOM      9  C   UNL     1       5.298   4.318  15.036  0.00  0.00    +0.000 A 
ATOM     10  N   UNL     1       5.177   3.894  13.773  0.00  0.00    +0.000 NA
BRANCH   6  12
ATOM     11  C   UNL     1       5.894   2.308  11.599  0.00  0.00    +0.000 C 
ATOM     12  C   UNL     1       6.717   3.539  11.936  0.00  0.00    +0.000 C 
ENDBRANCH   6  12
ENDBRANCH   3   8
ENDBRANCH   1   3
BRANCH   1  13
ATOM     13  C   UNL     1       5.030   6.488  17.818  0.00  0.00    +0.000 C 
BRANCH  13  14
ATOM     14  C   UNL     1       3.546   6.208  17.674  0.00  0.00    +0.000 C 
BRANCH  14  15
ATOM     15  N   UNL     1       2.711   6.523  18.833  0.00  0.00    +0.000 N 
ATOM     16  C   UNL     1       2.193   7.795  19.056  0.00  0.00    +0.000 A 
ATOM     17  C   UNL     1       2.317   8.974  18.164  0.00  0.00    +0.000 C 
ATOM     18  C   UNL     1       1.551   7.715  20.269  0.00  0.00    +0.000 A 
ATOM     19  N   UNL     1       1.640   6.463  20.781  0.00  0.00    +0.000 NA
ATOM     20  C   UNL     1       2.290   5.731  19.896  0.00  0.00    +0.000 A 
BRANCH  20  21
ATOM     21  C   UNL     1       2.429   4.218  20.156  0.00  0.00    +0.000 C 
ATOM     22  C   UNL     1       2.362   3.844  21.665  0.00  0.00    +0.000 C 
ATOM     23  C   UNL     1       1.291   2.793  21.354  0.00  0.00    +0.000 C 
ATOM     24  C   UNL     1       1.085   3.449  19.988  0.00  0.00    +0.000 C 
ENDBRANCH  20  21
ENDBRANCH  14  15
ENDBRANCH  13  14
ENDBRANCH   1  13
TORSDOF 7
ENDMDL
MODEL 2
REMARK VINA RESULT:      -7.0      1.607      3.035
REMARK  Name = 
REMARK  9 active torsions:
REMARK  status: ('A' for Active; 'I' for Inactive)
REMARK    1  A    between atoms: C_1  and  C_2
REMARK    2  A    between atoms: C_2  and  N_3
REMARK    3  A    between atoms: C_5  and  S_6
REMARK    4  A    between atoms: S_6  and  N_9
REMARK    5  A    between atoms: N_9  and  C_10
REMARK    6  A    between atoms: C_10  and  C_11
REMARK    7  A    between atoms: C_11  and  N_12
REMARK    8  A    between atoms: C_13  and  C_14
REMARK    9  A    between atoms: C_17  and  C_18
REMARK                            x       y       z     vdW  Elec       q    Type
REMARK                         _______ _______ _______ _____ _____    ______ ____
ROOT
ATOM      1  N   UNL     1       5.833   5.952  17.889  0.00  0.00    +0.000 NA
ATOM      2  H   UNL     1       4.980   5.760  17.357  0.00  0.00    +0.000 HD
ENDROOT
BRANCH   1   3
ATOM      3  S   UNL     1       7.158   5.609  16.860  0.00  0.00    +0.000 S 
ATOM      4  O   UNL     1       7.900   4.541  17.491  0.00  0.00    +0.000 OA
ATOM      5  O   UNL     1       7.770   6.854  16.467  0.00  0.00    +0.000 OA
BRANCH   3   8
ATOM      6  N   UNL     1       6.367   4.091  13.412  0.00  0.00    +0.000 N 
ATOM      7  C   UNL     1       7.256   4.724  14.232  0.00  0.00    +0.000 A 
ATOM      8  C   UNL     1       6.579   4.927  15.411  0.00  0.00    +0.000 A 
ATOM      9  C   UNL     1       5.288   4.422  15.197  0.00  0.00    +0.000 A 
ATOM     10  N   UNL     1       5.152   3.914  13.966  0.00  0.00    +0.000 NA
BRANCH   6  12
ATOM     11  C   UNL     1       5.665   2.449  11.732  0.00  0.00    +0.000 C 
ATOM     12  C   UNL     1       6.646   3.550  12.094  0.00  0.00    +0.000 C 
ENDBRANCH   6  12
ENDBRANCH   3   8
ENDBRANCH   1   3
BRANCH   1  13
ATOM     13  C   UNL     1       5.936   5.249  19.189  0.00  0.00    +0.000 C 
BRANCH  13  14
ATOM     14  C   UNL     1       4.973   4.089  19.360  0.00  0.00    +0.000 C 
BRANCH  14  15
ATOM     15  N   UNL     1       3.643   4.257  18.774  0.00  0.00    +0.000 N 
ATOM     16  C   UNL     1       2.986   3.229  18.106  0.00  0.00    +0.000 A 
ATOM     17  C   UNL     1       3.454   1.829  17.949  0.00  0.00    +0.000 C 
ATOM     18  C   UNL     1       1.826   3.791  17.630  0.00  0.00    +0.000 A 
ATOM     19  N   UNL     1       1.739   5.095  17.989  0.00  0.00    +0.000 NA
ATOM     20  C   UNL     1       2.804   5.364  18.721  0.00  0.00    +0.000 A 
BRANCH  20  21
ATOM     21  C   UNL     1       2.908   6.755  19.380  0.00  0.00    +0.000 C 
ATOM     22  C   UNL     1       2.406   7.909  18.465  0.00  0.00    +0.000 C 
ATOM     23  C   UNL     1       1.512   8.416  19.602  0.00  0.00    +0.000 C 
ATOM     24  C   UNL     1       1.702   7.075  20.312  0.00  0.00    +0.000 C 
ENDBRANCH  20  21
ENDBRANCH  14  15
ENDBRANCH  13  14
ENDBRANCH   1  13
TORSDOF 7
ENDMDL
MODEL 3
REMARK VINA RESULT:      -6.9      1.562      2.001
REMARK  Name = 
REMARK  9 active torsions:
REMARK  status: ('A' for Active; 'I' for Inactive)
REMARK    1  A    between atoms: C_1  and  C_2
REMARK    2  A    between atoms: C_2  and  N_3
REMARK    3  A    between atoms: C_5  and  S_6
REMARK    4  A    between atoms: S_6  and  N_9
REMARK    5  A    between atoms: N_9  and  C_10
REMARK    6  A    between atoms: C_10  and  C_11
REMARK    7  A    between atoms: C_11  and  N_12
REMARK    8  A    between atoms: C_13  and  C_14
REMARK    9  A    between atoms: C_17  and  C_18
REMARK                            x       y       z     vdW  Elec       q    Type
REMARK                         _______ _______ _______ _____ _____    ______ ____
ROOT
ATOM      1  N   UNL     1       5.079   6.330  16.240  0.00  0.00    +0.000 NA
ATOM      2  H   UNL     1       4.397   5.856  15.641  0.00  0.00    +0.000 HD
ENDROOT
BRANCH   1   3
ATOM      3  S   UNL     1       6.559   5.482  16.088  0.00  0.00    +0.000 S 
ATOM      4  O   UNL     1       6.491   4.370  17.008  0.00  0.00    +0.000 OA
ATOM      5  O   UNL     1       7.639   6.438  16.102  0.00  0.00    +0.000 OA
BRANCH   3   8
ATOM      6  N   UNL     1       6.264   3.593  12.746  0.00  0.00    +0.000 N 
ATOM      7  C   UNL     1       5.836   3.766  14.031  0.00  0.00    +0.000 A 
ATOM      8  C   UNL     1       6.634   4.758  14.549  0.00  0.00    +0.000 A 
ATOM      9  C   UNL     1       7.531   5.093  13.524  0.00  0.00    +0.000 A 
ATOM     10  N   UNL     1       7.312   4.374  12.417  0.00  0.00    +0.000 NA
BRANCH   6  12
ATOM     11  C   UNL     1       4.252   3.215  11.397  0.00  0.00    +0.000 C 
ATOM     12  C   UNL     1       5.653   2.741  11.743  0.00  0.00    +0.000 C 
ENDBRANCH   6  12
ENDBRANCH   3   8
ENDBRANCH   1   3
BRANCH   1  13
ATOM     13  C   UNL     1       4.668   6.491  17.654  0.00  0.00    +0.000 C 
BRANCH  13  14
ATOM     14  C   UNL     1       3.194   6.786  17.858  0.00  0.00    +0.000 C 
BRANCH  14  15
ATOM     15  N   UNL     1       2.517   6.019  18.904  0.00  0.00    +0.000 N 
ATOM     16  C   UNL     1       1.953   6.621  20.024  0.00  0.00    +0.000 A 
ATOM     17  C   UNL     1       1.866   8.076  20.302  0.00  0.00    +0.000 C 
ATOM     18  C   UNL     1       1.501   5.582  20.802  0.00  0.00    +0.000 A 
ATOM     19  N   UNL     1       1.747   4.390  20.206  0.00  0.00    +0.000 NA
ATOM     20  C   UNL     1       2.309   4.652  19.041  0.00  0.00    +0.000 A 
BRANCH  20  21
ATOM     21  C   UNL     1       2.585   3.477  18.080  0.00  0.00    +0.000 C 
ATOM     22  C   UNL     1       3.991   2.839  18.277  0.00  0.00    +0.000 C 
ATOM     23  C   UNL     1       3.345   1.453  18.369  0.00  0.00    +0.000 C 
ATOM     24  C   UNL     1       1.990   2.130  18.585  0.00  0.00    +0.000 C 
ENDBRANCH  20  21
ENDBRANCH  14  15
ENDBRANCH  13  14
ENDBRANCH   1  13
TORSDOF 7
ENDMDL
MODEL 4
REMARK VINA RESULT:      -6.9      1.530      3.230
REMARK  Name = 
REMARK  9 active torsions:
REMARK  status: ('A' for Active; 'I' for Inactive)
REMARK    1  A    between atoms: C_1  and  C_2
REMARK    2  A    between atoms: C_2  and  N_3
REMARK    3  A    between atoms: C_5  and  S_6
REMARK    4  A    between atoms: S_6  and  N_9
REMARK    5  A    between atoms: N_9  and  C_10
REMARK    6  A    between atoms: C_10  and  C_11
REMARK    7  A    between atoms: C_11  and  N_12
REMARK    8  A    between atoms: C_13  and  C_14
REMARK    9  A    between atoms: C_17  and  C_18
REMARK                            x       y       z     vdW  Elec       q    Type
REMARK                         _______ _______ _______ _____ _____    ______ ____
ROOT
ATOM      1  N   UNL     1       6.088   5.194  19.409  0.00  0.00    +0.000 NA
ATOM      2  H   UNL     1       5.551   6.062  19.497  0.00  0.00    +0.000 HD
ENDROOT
BRANCH   1   3
ATOM      3  S   UNL     1       7.316   5.477  18.250  0.00  0.00    +0.000 S 
ATOM      4  O   UNL     1       8.202   4.336  18.306  0.00  0.00    +0.000 OA
ATOM      5  O   UNL     1       7.785   6.832  18.397  0.00  0.00    +0.000 OA
BRANCH   3   8
ATOM      6  N   UNL     1       5.981   4.826  14.698  0.00  0.00    +0.000 N 
ATOM      7  C   UNL     1       6.771   4.430  15.738  0.00  0.00    +0.000 A 
ATOM      8  C   UNL     1       6.639   5.414  16.689  0.00  0.00    +0.000 A 
ATOM      9  C   UNL     1       5.787   6.373  16.122  0.00  0.00    +0.000 A 
ATOM     10  N   UNL     1       5.387   6.019  14.895  0.00  0.00    +0.000 NA
BRANCH   6  12
ATOM     11  C   UNL     1       6.892   3.989  12.581  0.00  0.00    +0.000 C 
ATOM     12  C   UNL     1       5.686   4.060  13.501  0.00  0.00    +0.000 C 
ENDBRANCH   6  12
ENDBRANCH   3   8
ENDBRANCH   1   3
BRANCH   1  13
ATOM     13  C   UNL     1       5.285   3.990  19.093  0.00  0.00    +0.000 C 
BRANCH  13  14
ATOM     14  C   UNL     1       3.960   4.270  18.411  0.00  0.00    +0.000 C 
BRANCH  14  15
ATOM     15  N   UNL     1       2.799   4.426  19.287  0.00  0.00    +0.000 N 
ATOM     16  C   UNL     1       2.061   3.340  19.748  0.00  0.00    +0.000 A 
ATOM     17  C   UNL     1       2.354   1.903  19.516  0.00  0.00    +0.000 C 
ATOM     18  C   UNL     1       1.017   3.887  20.455  0.00  0.00    +0.000 A 
ATOM     19  N   UNL     1       1.094   5.240  20.460  0.00  0.00    +0.000 NA
ATOM     20  C   UNL     1       2.193   5.565  19.804  0.00  0.00    +0.000 A 
BRANCH  20  21
ATOM     21  C   UNL     1       2.608   7.049  19.759  0.00  0.00    +0.000 C 
ATOM     22  C   UNL     1       2.359   7.717  18.375  0.00  0.00    +0.000 C 
ATOM     23  C   UNL     1       1.613   8.863  19.065  0.00  0.00    +0.000 C 
ATOM     24  C   UNL     1       1.513   8.001  20.325  0.00  0.00    +0.000 C 
ENDBRANCH  20  21
ENDBRANCH  14  15
ENDBRANCH  13  14
ENDBRANCH   1  13
TORSDOF 7
ENDMDL
MODEL 5
REMARK VINA RESULT:      -6.9      1.604      2.102
REMARK  Name = 
REMARK  9 active torsions:
REMARK  status: ('A' for Active; 'I' for Inactive)
REMARK    1  A    between atoms: C_1  and  C_2
REMARK    2  A    between atoms: C_2  and  N_3
REMARK    3  A    between atoms: C_5  and  S_6
REMARK    4  A    between atoms: S_6  and  N_9
REMARK    5  A    between atoms: N_9  and  C_10
REMARK    6  A    between atoms: C_10  and  C_11
REMARK    7  A    between atoms: C_11  and  N_12
REMARK    8  A    between atoms: C_13  and  C_14
REMARK    9  A    between atoms: C_17  and  C_18
REMARK                            x       y       z     vdW  Elec       q    Type
REMARK                         _______ _______ _______ _____ _____    ______ ____
ROOT
ATOM      1  N   UNL     1       5.862   4.505  16.783  0.00  0.00    +0.000 NA
ATOM      2  H   UNL     1       6.703   4.020  17.109  0.00  0.00    +0.000 HD
ENDROOT
BRANCH   1   3
ATOM      3  S   UNL     1       6.341   5.546  15.511  0.00  0.00    +0.000 S 
ATOM      4  O   UNL     1       7.699   5.946  15.797  0.00  0.00    +0.000 OA
ATOM      5  O   UNL     1       5.284   6.498  15.274  0.00  0.00    +0.000 OA
BRANCH   3   8
ATOM      6  N   UNL     1       6.127   3.292  12.397  0.00  0.00    +0.000 N 
ATOM      7  C   UNL     1       5.660   3.614  13.638  0.00  0.00    +0.000 A 
ATOM      8  C   UNL     1       6.455   4.650  14.067  0.00  0.00    +0.000 A 
ATOM      9  C   UNL     1       7.391   4.856  13.043  0.00  0.00    +0.000 A 
ATOM     10  N   UNL     1       7.197   4.018  12.018  0.00  0.00    +0.000 NA
BRANCH   6  12
ATOM     11  C   UNL     1       6.535   1.263  11.083  0.00  0.00    +0.000 C 
ATOM     12  C   UNL     1       5.537   2.338  11.476  0.00  0.00    +0.000 C 
ENDBRANCH   6  12
ENDBRANCH   3   8
ENDBRANCH   1   3
BRANCH   1  13
ATOM     13  C   UNL     1       5.101   5.218  17.835  0.00  0.00    +0.000 C 
BRANCH  13  14
ATOM     14  C   UNL     1       3.593   5.149  17.685  0.00  0.00    +0.000 C 
BRANCH  14  15
ATOM     15  N   UNL     1       2.813   5.249  18.919  0.00  0.00    +0.000 N 
ATOM     16  C   UNL     1       2.315   6.459  19.390  0.00  0.00    +0.000 A 
ATOM     17  C   UNL     1       2.408   7.780  18.720  0.00  0.00    +0.000 C 
ATOM     18  C   UNL     1       1.727   6.162  20.597  0.00  0.00    +0.000 A 
ATOM     19  N   UNL     1       1.829   4.838  20.870  0.00  0.00    +0.000 NA
ATOM     20  C   UNL     1       2.434   4.278  19.839  0.00  0.00    +0.000 A 
BRANCH  20  21
ATOM     21  C   UNL     1       2.573   2.743  19.815  0.00  0.00    +0.000 C 
ATOM     22  C   UNL     1       2.338   2.124  18.407  0.00  0.00    +0.000 C 
ATOM     23  C   UNL     1       3.659   1.356  18.527  0.00  0.00    +0.000 C 
ATOM     24  C   UNL     1       4.052   2.271  19.688  0.00  0.00    +0.000 C 
ENDBRANCH  20  21
ENDBRANCH  14  15
ENDBRANCH  13  14
ENDBRANCH   1  13
TORSDOF 7
ENDMDL
MODEL 6
REMARK VINA RESULT:      -6.8      2.640      5.010
REMARK  Name = 
REMARK  9 active torsions:
REMARK  status: ('A' for Active; 'I' for Inactive)
REMARK    1  A    between atoms: C_1  and  C_2
REMARK    2  A    between atoms: C_2  and  N_3
REMARK    3  A    between atoms: C_5  and  S_6
REMARK    4  A    between atoms: S_6  and  N_9
REMARK    5  A    between atoms: N_9  and  C_10
REMARK    6  A    between atoms: C_10  and  C_11
REMARK    7  A    between atoms: C_11  and  N_12
REMARK    8  A    between atoms: C_13  and  C_14
REMARK    9  A    between atoms: C_17  and  C_18
REMARK                            x       y       z     vdW  Elec       q    Type
REMARK                         _______ _______ _______ _____ _____    ______ ____
ROOT
ATOM      1  N   UNL     1       5.587   4.596  16.808  0.00  0.00    +0.000 NA
ATOM      2  H   UNL     1       5.903   4.306  15.878  0.00  0.00    +0.000 HD
ENDROOT
BRANCH   1   3
ATOM      3  S   UNL     1       6.986   4.804  17.774  0.00  0.00    +0.000 S 
ATOM      4  O   UNL     1       8.086   4.233  17.030  0.00  0.00    +0.000 OA
ATOM      5  O   UNL     1       6.674   4.408  19.125  0.00  0.00    +0.000 OA
BRANCH   3   8
ATOM      6  N   UNL     1       8.197   8.408  18.372  0.00  0.00    +0.000 N 
ATOM      7  C   UNL     1       8.205   7.097  18.750  0.00  0.00    +0.000 A 
ATOM      8  C   UNL     1       7.355   6.463  17.876  0.00  0.00    +0.000 A 
ATOM      9  C   UNL     1       6.856   7.470  17.037  0.00  0.00    +0.000 A 
ATOM     10  N   UNL     1       7.366   8.669  17.344  0.00  0.00    +0.000 NA
BRANCH   6  12
ATOM     11  C   UNL     1       9.162  10.619  17.931  0.00  0.00    +0.000 C 
ATOM     12  C   UNL     1       9.035   9.465  18.910  0.00  0.00    +0.000 C 
ENDBRANCH   6  12
ENDBRANCH   3   8
ENDBRANCH   1   3
BRANCH   1  13
ATOM     13  C   UNL     1       4.595   3.698  17.444  0.00  0.00    +0.000 C 
BRANCH  13  14
ATOM     14  C   UNL     1       3.159   4.180  17.363  0.00  0.00    +0.000 C 
BRANCH  14  15
ATOM     15  N   UNL     1       2.480   4.413  18.639  0.00  0.00    +0.000 N 
ATOM     16  C   UNL     1       1.834   3.397  19.336  0.00  0.00    +0.000 A 
ATOM     17  C   UNL     1       1.792   1.958  18.975  0.00  0.00    +0.000 C 
ATOM     18  C   UNL     1       1.253   4.016  20.418  0.00  0.00    +0.000 A 
ATOM     19  N   UNL     1       1.527   5.343  20.419  0.00  0.00    +0.000 NA
ATOM     20  C   UNL     1       2.309   5.575  19.381  0.00  0.00    +0.000 A 
BRANCH  20  21
ATOM     21  C   UNL     1       2.888   6.993  19.202  0.00  0.00    +0.000 C 
ATOM     22  C   UNL     1       2.892   7.475  17.723  0.00  0.00    +0.000 C 
ATOM     23  C   UNL     1       2.196   8.773  18.147  0.00  0.00    +0.000 C 
ATOM     24  C   UNL     1       1.843   8.114  19.481  0.00  0.00    +0.000 C 
ENDBRANCH  20  21
ENDBRANCH  14  15
ENDBRANCH  13  14
ENDBRANCH   1  13
TORSDOF 7
ENDMDL
MODEL 7
REMARK VINA RESULT:      -6.8      2.585      7.165
REMARK  Name = 
REMARK  9 active torsions:
REMARK  status: ('A' for Active; 'I' for Inactive)
REMARK    1  A    between atoms: C_1  and  C_2
REMARK    2  A    between atoms: C_2  and  N_3
REMARK    3  A    between atoms: C_5  and  S_6
REMARK    4  A    between atoms: S_6  and  N_9
REMARK    5  A    between atoms: N_9  and  C_10
REMARK    6  A    between atoms: C_10  and  C_11
REMARK    7  A    between atoms: C_11  and  N_12
REMARK    8  A    between atoms: C_13  and  C_14
REMARK    9  A    between atoms: C_17  and  C_18
REMARK                            x       y       z     vdW  Elec       q    Type
REMARK                         _______ _______ _______ _____ _____    ______ ____
ROOT
ATOM      1  N   UNL     1       3.400   2.843  18.077  0.00  0.00    +0.000 NA
ATOM      2  H   UNL     1       2.487   3.220  17.808  0.00  0.00    +0.000 HD
ENDROOT
BRANCH   1   3
ATOM      3  S   UNL     1       3.787   3.500  19.611  0.00  0.00    +0.000 S 
ATOM      4  O   UNL     1       5.197   3.814  19.578  0.00  0.00    +0.000 OA
ATOM      5  O   UNL     1       3.201   2.664  20.630  0.00  0.00    +0.000 OA
BRANCH   3   8
ATOM      6  N   UNL     1       1.811   6.697  20.445  0.00  0.00    +0.000 N 
ATOM      7  C   UNL     1       2.030   5.368  20.669  0.00  0.00    +0.000 A 
ATOM      8  C   UNL     1       3.018   5.008  19.784  0.00  0.00    +0.000 A 
ATOM      9  C   UNL     1       3.303   6.167  19.046  0.00  0.00    +0.000 A 
ATOM     10  N   UNL     1       2.558   7.205  19.444  0.00  0.00    +0.000 NA
BRANCH   6  12
ATOM     11  C   UNL     1       1.078   9.013  20.767  0.00  0.00    +0.000 C 
ATOM     12  C   UNL     1       0.946   7.569  21.216  0.00  0.00    +0.000 C 
ENDBRANCH   6  12
ENDBRANCH   3   8
ENDBRANCH   1   3
BRANCH   1  13
ATOM     13  C   UNL     1       4.483   3.053  17.088  0.00  0.00    +0.000 C 
BRANCH  13  14
ATOM     14  C   UNL     1       4.382   4.347  16.303  0.00  0.00    +0.000 C 
BRANCH  14  15
ATOM     15  N   UNL     1       5.626   4.849  15.718  0.00  0.00    +0.000 N 
ATOM     16  C   UNL     1       6.053   4.485  14.446  0.00  0.00    +0.000 A 
ATOM     17  C   UNL     1       5.323   3.635  13.472  0.00  0.00    +0.000 C 
ATOM     18  C   UNL     1       7.283   5.079  14.294  0.00  0.00    +0.000 A 
ATOM     19  N   UNL     1       7.613   5.794  15.397  0.00  0.00    +0.000 NA
ATOM     20  C   UNL     1       6.596   5.701  16.233  0.00  0.00    +0.000 A 
BRANCH  20  21
ATOM     21  C   UNL     1       6.639   6.529  17.534  0.00  0.00    +0.000 C 
ATOM     22  C   UNL     1       7.706   6.026  18.549  0.00  0.00    +0.000 C 
ATOM     23  C   UNL     1       8.257   7.451  18.670  0.00  0.00    +0.000 C 
ATOM     24  C   UNL     1       7.493   7.824  17.399  0.00  0.00    +0.000 C 
ENDBRANCH  20  21
ENDBRANCH  14  15
ENDBRANCH  13  14
ENDBRANCH   1  13
TORSDOF 7
ENDMDL
MODEL 8
REMARK VINA RESULT:      -6.8      2.926      4.039
REMARK  Name = 
REMARK  9 active torsions:
REMARK  status: ('A' for Active; 'I' for Inactive)
REMARK    1  A    between atoms: C_1  and  C_2
REMARK    2  A    between atoms: C_2  and  N_3
REMARK    3  A    between atoms: C_5  and  S_6
REMARK    4  A    between atoms: S_6  and  N_9
REMARK    5  A    between atoms: N_9  and  C_10
REMARK    6  A    between atoms: C_10  and  C_11
REMARK    7  A    between atoms: C_11  and  N_12
REMARK    8  A    between atoms: C_13  and  C_14
REMARK    9  A    between atoms: C_17  and  C_18
REMARK                            x       y       z     vdW  Elec       q    Type
REMARK                         _______ _______ _______ _____ _____    ______ ____
ROOT
ATOM      1  N   UNL     1       5.959   4.054  18.232  0.00  0.00    +0.000 NA
ATOM      2  H   UNL     1       6.308   3.383  18.923  0.00  0.00    +0.000 HD
ENDROOT
BRANCH   1   3
ATOM      3  S   UNL     1       7.314   4.629  17.358  0.00  0.00    +0.000 S 
ATOM      4  O   UNL     1       6.971   4.529  15.958  0.00  0.00    +0.000 OA
ATOM      5  O   UNL     1       8.505   4.033  17.910  0.00  0.00    +0.000 OA
BRANCH   3   8
ATOM      6  N   UNL     1       8.114   8.268  18.328  0.00  0.00    +0.000 N 
ATOM      7  C   UNL     1       8.281   6.934  18.563  0.00  0.00    +0.000 A 
ATOM      8  C   UNL     1       7.491   6.300  17.634  0.00  0.00    +0.000 A 
ATOM      9  C   UNL     1       6.861   7.325  16.913  0.00  0.00    +0.000 A 
ATOM     10  N   UNL     1       7.236   8.536  17.342  0.00  0.00    +0.000 NA
BRANCH   6  12
ATOM     11  C   UNL     1       8.954  10.554  18.048  0.00  0.00    +0.000 C 
ATOM     12  C   UNL     1       8.836   9.352  18.968  0.00  0.00    +0.000 C 
ENDBRANCH   6  12
ENDBRANCH   3   8
ENDBRANCH   1   3
BRANCH   1  13
ATOM     13  C   UNL     1       5.140   5.157  18.787  0.00  0.00    +0.000 C 
BRANCH  13  14
ATOM     14  C   UNL     1       3.674   5.117  18.399  0.00  0.00    +0.000 C 
BRANCH  14  15
ATOM     15  N   UNL     1       2.773   5.967  19.178  0.00  0.00    +0.000 N 
ATOM     16  C   UNL     1       2.590   7.316  18.896  0.00  0.00    +0.000 A 
ATOM     17  C   UNL     1       3.177   8.076  17.763  0.00  0.00    +0.000 C 
ATOM     18  C   UNL     1       1.756   7.782  19.884  0.00  0.00    +0.000 A 
ATOM     19  N   UNL     1       1.414   6.785  20.736  0.00  0.00    +0.000 NA
ATOM     20  C   UNL     1       1.981   5.682  20.284  0.00  0.00    +0.000 A 
BRANCH  20  21
ATOM     21  C   UNL     1       1.658   4.350  20.990  0.00  0.00    +0.000 C 
ATOM     22  C   UNL     1       0.804   3.383  20.121  0.00  0.00    +0.000 C 
ATOM     23  C   UNL     1       1.810   2.259  20.386  0.00  0.00    +0.000 C 
ATOM     24  C   UNL     1       2.810   3.308  20.873  0.00  0.00    +0.000 C 
ENDBRANCH  20  21
ENDBRANCH  14  15
ENDBRANCH  13  14
ENDBRANCH   1  13
TORSDOF 7
ENDMDL
MODEL 9
REMARK VINA RESULT:      -6.7      1.284      1.674
REMARK  Name = 
REMARK  9 active torsions:
REMARK  status: ('A' for Active; 'I' for Inactive)
REMARK    1  A    between atoms: C_1  and  C_2
REMARK    2  A    between atoms: C_2  and  N_3
REMARK    3  A    between atoms: C_5  and  S_6
REMARK    4  A    between atoms: S_6  and  N_9
REMARK    5  A    between atoms: N_9  and  C_10
REMARK    6  A    between atoms: C_10  and  C_11
REMARK    7  A    between atoms: C_11  and  N_12
REMARK    8  A    between atoms: C_13  and  C_14
REMARK    9  A    between atoms: C_17  and  C_18
REMARK                            x       y       z     vdW  Elec       q    Type
REMARK                         _______ _______ _______ _____ _____    ______ ____
ROOT
ATOM      1  N   UNL     1       5.874   4.870  18.079  0.00  0.00    +0.000 NA
ATOM      2  H   UNL     1       6.341   4.689  18.972  0.00  0.00    +0.000 HD
ENDROOT
BRANCH   1   3
ATOM      3  S   UNL     1       7.101   5.157  16.918  0.00  0.00    +0.000 S 
ATOM      4  O   UNL     1       8.184   4.254  17.235  0.00  0.00    +0.000 OA
ATOM      5  O   UNL     1       7.289   6.581  16.791  0.00  0.00    +0.000 OA
BRANCH   3   8
ATOM      6  N   UNL     1       6.393   3.981  13.322  0.00  0.00    +0.000 N 
ATOM      7  C   UNL     1       7.285   4.452  14.241  0.00  0.00    +0.000 A 
ATOM      8  C   UNL     1       6.554   4.648  15.389  0.00  0.00    +0.000 A 
ATOM      9  C   UNL     1       5.235   4.306  15.058  0.00  0.00    +0.000 A 
ATOM     10  N   UNL     1       5.130   3.904  13.786  0.00  0.00    +0.000 NA
BRANCH   6  12
ATOM     11  C   UNL     1       5.753   2.400  11.561  0.00  0.00    +0.000 C 
ATOM     12  C   UNL     1       6.703   3.506  11.986  0.00  0.00    +0.000 C 
ENDBRANCH   6  12
ENDBRANCH   3   8
ENDBRANCH   1   3
BRANCH   1  13
ATOM     13  C   UNL     1       4.864   5.953  18.106  0.00  0.00    +0.000 C 
BRANCH  13  14
ATOM     14  C   UNL     1       3.434   5.492  17.900  0.00  0.00    +0.000 C 
BRANCH  14  15
ATOM     15  N   UNL     1       2.623   5.332  19.107  0.00  0.00    +0.000 N 
ATOM     16  C   UNL     1       2.083   6.415  19.793  0.00  0.00    +0.000 A 
ATOM     17  C   UNL     1       2.156   7.844  19.397  0.00  0.00    +0.000 C 
ATOM     18  C   UNL     1       1.475   5.875  20.901  0.00  0.00    +0.000 A 
ATOM     19  N   UNL     1       1.605   4.525  20.912  0.00  0.00    +0.000 NA
ATOM     20  C   UNL     1       2.248   4.192  19.809  0.00  0.00    +0.000 A 
BRANCH  20  21
ATOM     21  C   UNL     1       2.428   2.694  19.489  0.00  0.00    +0.000 C 
ATOM     22  C   UNL     1       2.312   2.369  17.972  0.00  0.00    +0.000 C 
ATOM     23  C   UNL     1       3.639   1.607  18.036  0.00  0.00    +0.000 C 
ATOM     24  C   UNL     1       3.924   2.273  19.383  0.00  0.00    +0.000 C 
ENDBRANCH  20  21
ENDBRANCH  14  15
ENDBRANCH  13  14
ENDBRANCH   1  13
TORSDOF 7
ENDMDL
