MODEL 1
REMARK VINA RESULT:      -7.2      0.000      0.000
REMARK  Name = 
REMARK  6 active torsions:
REMARK  status: ('A' for Active; 'I' for Inactive)
REMARK    1  A    between atoms: C_3  and  O_4
REMARK    2  A    between atoms: O_4  and  C_5
REMARK    3  A    between atoms: C_5  and  C_6
REMARK    4  A    between atoms: N_8  and  C_9
REMARK    5  A    between atoms: C_17  and  C_18
REMARK    6  A    between atoms: C_18  and  N_19
REMARK                            x       y       z     vdW  Elec       q    Type
REMARK                         _______ _______ _______ _____ _____    ______ ____
ROOT
ATOM      1  C   UNL     1       6.976   5.099  18.632  0.00  0.00    +0.000 A 
ATOM      2  C   UNL     1       7.876   6.091  18.971  0.00  0.00    +0.000 A 
ATOM      3  C   UNL     1       7.869   7.319  18.310  0.00  0.00    +0.000 A 
ATOM      4  C   UNL     1       6.924   7.546  17.299  0.00  0.00    +0.000 A 
ATOM      5  C   UNL     1       6.015   6.534  16.953  0.00  0.00    +0.000 A 
ATOM      6  C   UNL     1       6.050   5.293  17.605  0.00  0.00    +0.000 A 
ENDROOT
BRANCH   3   7
ATOM      7  O   UNL     1       8.745   8.339  18.595  0.00  0.00    +0.000 OA
BRANCH   7   8
ATOM      8  C   UNL     1       8.380   9.583  17.986  0.00  0.00    +0.000 C 
BRANCH   8   9
ATOM      9  C   UNL     1       9.059  10.769  18.640  0.00  0.00    +0.000 C 
ATOM     10  C   UNL     1      10.334  11.193  17.890  0.00  0.00    +0.000 C 
ATOM     11  N   UNL     1      10.945  12.389  18.520  0.00  0.00    +0.000 NA
ATOM     12  C   UNL     1      11.180  12.089  19.950  0.00  0.00    +0.000 C 
ATOM     13  C   UNL     1       9.963  11.510  20.689  0.00  0.00    +0.000 C 
ATOM     14  O   UNL     1       9.393  10.395  19.993  0.00  0.00    +0.000 OA
BRANCH  11  15
ATOM     15  C   UNL     1      10.121  13.592  18.287  0.00  0.00    +0.000 C 
ATOM     16  C   UNL     1      10.378  14.870  19.025  0.00  0.00    +0.000 C 
ATOM     17  C   UNL     1      10.753  14.756  17.577  0.00  0.00    +0.000 C 
ENDBRANCH  11  15
ENDBRANCH   8   9
ENDBRANCH   7   8
ENDBRANCH   3   7
BRANCH   6  18
ATOM     18  C   UNL     1       5.103   4.159  17.302  0.00  0.00    +0.000 C 
BRANCH  18  19
ATOM     19  N   UNL     1       3.731   4.256  17.792  0.00  0.00    +0.000 NA
ATOM     20  C   UNL     1       3.516   4.391  19.241  0.00  0.00    +0.000 C 
ATOM     21  C   UNL     1       3.263   3.072  19.993  0.00  0.00    +0.000 C 
ATOM     22  O   UNL     1       2.223   2.307  19.371  0.00  0.00    +0.000 OA
ATOM     23  C   UNL     1       2.559   2.025  18.008  0.00  0.00    +0.000 C 
ATOM     24  C   UNL     1       2.779   3.312  17.204  0.00  0.00    +0.000 C 
ENDBRANCH  18  19
ENDBRANCH   6  18
TORSDOF 6
ENDMDL
MODEL 2
REMARK VINA RESULT:      -7.0      0.769      1.105
REMARK  Name = 
REMARK  6 active torsions:
REMARK  status: ('A' for Active; 'I' for Inactive)
REMARK    1  A    between atoms: C_3  and  O_4
REMARK    2  A    between atoms: O_4  and  C_5
REMARK    3  A    between atoms: C_5  and  C_6
REMARK    4  A    between atoms: N_8  and  C_9
REMARK    5  A    between atoms: C_17  and  C_18
REMARK    6  A    between atoms: C_18  and  N_19
REMARK                            x       y       z     vdW  Elec       q    Type
REMARK                         _______ _______ _______ _____ _____    ______ ____
ROOT
ATOM      1  C   UNL     1       6.974   5.190  18.645  0.00  0.00    +0.000 A 
ATOM      2  C   UNL     1       7.901   6.153  18.992  0.00  0.00    +0.000 A 
ATOM      3  C   UNL     1       7.909   7.398  18.362  0.00  0.00    +0.000 A 
ATOM      4  C   UNL     1       6.950   7.671  17.376  0.00  0.00    +0.000 A 
ATOM      5  C   UNL     1       6.014   6.687  17.021  0.00  0.00    +0.000 A 
ATOM      6  C   UNL     1       6.034   5.430  17.640  0.00  0.00    +0.000 A 
ENDROOT
BRANCH   3   7
ATOM      7  O   UNL     1       8.811   8.391  18.657  0.00  0.00    +0.000 OA
BRANCH   7   8
ATOM      8  C   UNL     1       8.542   9.621  17.972  0.00  0.00    +0.000 C 
BRANCH   8   9
ATOM      9  C   UNL     1       8.978  10.834  18.767  0.00  0.00    +0.000 C 
ATOM     10  C   UNL     1      10.095  11.621  18.056  0.00  0.00    +0.000 C 
ATOM     11  N   UNL     1      10.462  12.832  18.830  0.00  0.00    +0.000 NA
ATOM     12  C   UNL     1      10.824  12.413  20.201  0.00  0.00    +0.000 C 
ATOM     13  C   UNL     1       9.797  11.491  20.879  0.00  0.00    +0.000 C 
ATOM     14  O   UNL     1       9.449  10.375  20.050  0.00  0.00    +0.000 OA
BRANCH  11  15
ATOM     15  C   UNL     1       9.387  13.843  18.776  0.00  0.00    +0.000 C 
ATOM     16  C   UNL     1       9.504  15.146  19.505  0.00  0.00    +0.000 C 
ATOM     17  C   UNL     1       9.647  15.111  18.012  0.00  0.00    +0.000 C 
ENDBRANCH  11  15
ENDBRANCH   8   9
ENDBRANCH   7   8
ENDBRANCH   3   7
BRANCH   6  18
ATOM     18  C   UNL     1       5.057   4.325  17.326  0.00  0.00    +0.000 C 
BRANCH  18  19
ATOM     19  N   UNL     1       4.104   3.932  18.360  0.00  0.00    +0.000 NA
ATOM     20  C   UNL     1       3.738   2.511  18.468  0.00  0.00    +0.000 C 
ATOM     21  C   UNL     1       2.465   2.100  17.707  0.00  0.00    +0.000 C 
ATOM     22  O   UNL     1       1.363   2.959  18.031  0.00  0.00    +0.000 OA
ATOM     23  C   UNL     1       1.686   4.320  17.726  0.00  0.00    +0.000 C 
ATOM     24  C   UNL     1       2.926   4.791  18.496  0.00  0.00    +0.000 C 
ENDBRANCH  18  19
ENDBRANCH   6  18
TORSDOF 6
ENDMDL
MODEL 3
REMARK VINA RESULT:      -7.0      6.019      8.692
REMARK  Name = 
REMARK  6 active torsions:
REMARK  status: ('A' for Active; 'I' for Inactive)
REMARK    1  A    between atoms: C_3  and  O_4
REMARK    2  A    between atoms: O_4  and  C_5
REMARK    3  A    between atoms: C_5  and  C_6
REMARK    4  A    between atoms: N_8  and  C_9
REMARK    5  A    between atoms: C_17  and  C_18
REMARK    6  A    between atoms: C_18  and  N_19
REMARK                            x       y       z     vdW  Elec       q    Type
REMARK                         _______ _______ _______ _____ _____    ______ ____
ROOT
ATOM      1  C   UNL     1       2.992   7.325  17.976  0.00  0.00    +0.000 A 
ATOM      2  C   UNL     1       2.231   8.120  18.812  0.00  0.00    +0.000 A 
ATOM      3  C   UNL     1       1.737   7.621  20.018  0.00  0.00    +0.000 A 
ATOM      4  C   UNL     1       2.032   6.300  20.383  0.00  0.00    +0.000 A 
ATOM      5  C   UNL     1       2.799   5.494  19.527  0.00  0.00    +0.000 A 
ATOM      6  C   UNL     1       3.268   5.996  18.305  0.00  0.00    +0.000 A 
ENDROOT
BRANCH   3   7
ATOM      7  O   UNL     1       0.967   8.358  20.885  0.00  0.00    +0.000 OA
BRANCH   7   8
ATOM      8  C   UNL     1       1.052   9.769  20.654  0.00  0.00    +0.000 C 
BRANCH   8   9
ATOM      9  C   UNL     1      -0.248  10.350  20.135  0.00  0.00    +0.000 C 
ATOM     10  C   UNL     1      -0.121  10.845  18.682  0.00  0.00    +0.000 C 
ATOM     11  N   UNL     1      -1.422  11.356  18.183  0.00  0.00    +0.000 NA
ATOM     12  C   UNL     1      -1.898  12.399  19.118  0.00  0.00    +0.000 C 
ATOM     13  C   UNL     1      -1.883  11.985  20.598  0.00  0.00    +0.000 C 
ATOM     14  O   UNL     1      -0.614  11.450  20.993  0.00  0.00    +0.000 OA
BRANCH  11  15
ATOM     15  C   UNL     1      -2.381  10.253  17.975  0.00  0.00    +0.000 C 
ATOM     16  C   UNL     1      -3.770  10.510  17.477  0.00  0.00    +0.000 C 
ATOM     17  C   UNL     1      -2.751   9.894  16.564  0.00  0.00    +0.000 C 
ENDBRANCH  11  15
ENDBRANCH   8   9
ENDBRANCH   7   8
ENDBRANCH   3   7
BRANCH   6  18
ATOM     18  C   UNL     1       4.107   5.201  17.337  0.00  0.00    +0.000 C 
BRANCH  18  19
ATOM     19  N   UNL     1       5.320   5.817  16.809  0.00  0.00    +0.000 NA
ATOM     20  C   UNL     1       5.730   5.487  15.435  0.00  0.00    +0.000 C 
ATOM     21  C   UNL     1       6.744   4.336  15.311  0.00  0.00    +0.000 C 
ATOM     22  O   UNL     1       7.875   4.542  16.167  0.00  0.00    +0.000 OA
ATOM     23  C   UNL     1       7.453   4.663  17.530  0.00  0.00    +0.000 C 
ATOM     24  C   UNL     1       6.472   5.828  17.714  0.00  0.00    +0.000 C 
ENDBRANCH  18  19
ENDBRANCH   6  18
TORSDOF 6
ENDMDL
MODEL 4
REMARK VINA RESULT:      -7.0      1.841      9.551
REMARK  Name = 
REMARK  6 active torsions:
REMARK  status: ('A' for Active; 'I' for Inactive)
REMARK    1  A    between atoms: C_3  and  O_4
REMARK    2  A    between atoms: O_4  and  C_5
REMARK    3  A    between atoms: C_5  and  C_6
REMARK    4  A    between atoms: N_8  and  C_9
REMARK    5  A    between atoms: C_17  and  C_18
REMARK    6  A    between atoms: C_18  and  N_19
REMARK                            x       y       z     vdW  Elec       q    Type
REMARK                         _______ _______ _______ _____ _____    ______ ____
ROOT
ATOM      1  C   UNL     1       6.971   7.931  17.111  0.00  0.00    +0.000 A 
ATOM      2  C   UNL     1       6.573   6.608  17.127  0.00  0.00    +0.000 A 
ATOM      3  C   UNL     1       7.112   5.710  18.050  0.00  0.00    +0.000 A 
ATOM      4  C   UNL     1       8.057   6.169  18.977  0.00  0.00    +0.000 A 
ATOM      5  C   UNL     1       8.464   7.512  18.954  0.00  0.00    +0.000 A 
ATOM      6  C   UNL     1       7.938   8.399  18.004  0.00  0.00    +0.000 A 
ENDROOT
BRANCH   3   7
ATOM      7  O   UNL     1       6.764   4.383  18.108  0.00  0.00    +0.000 OA
BRANCH   7   8
ATOM      8  C   UNL     1       5.635   4.058  17.286  0.00  0.00    +0.000 C 
BRANCH   8   9
ATOM      9  C   UNL     1       4.330   4.096  18.054  0.00  0.00    +0.000 C 
ATOM     10  C   UNL     1       3.749   2.688  18.279  0.00  0.00    +0.000 C 
ATOM     11  N   UNL     1       2.503   2.752  19.080  0.00  0.00    +0.000 NA
ATOM     12  C   UNL     1       1.563   3.671  18.401  0.00  0.00    +0.000 C 
ATOM     13  C   UNL     1       2.166   5.032  18.019  0.00  0.00    +0.000 C 
ATOM     14  O   UNL     1       3.395   4.892  17.297  0.00  0.00    +0.000 OA
BRANCH  11  15
ATOM     15  C   UNL     1       2.790   3.117  20.482  0.00  0.00    +0.000 C 
ATOM     16  C   UNL     1       1.892   4.037  21.249  0.00  0.00    +0.000 C 
ATOM     17  C   UNL     1       1.892   2.568  21.554  0.00  0.00    +0.000 C 
ENDBRANCH  11  15
ENDBRANCH   8   9
ENDBRANCH   7   8
ENDBRANCH   3   7
BRANCH   6  18
ATOM     18  C   UNL     1       8.312   9.857  17.919  0.00  0.00    +0.000 C 
BRANCH  18  19
ATOM     19  N   UNL     1       9.517  10.302  18.612  0.00  0.00    +0.000 NA
ATOM     20  C   UNL     1       9.396  10.742  20.010  0.00  0.00    +0.000 C 
ATOM     21  C   UNL     1       9.211  12.258  20.208  0.00  0.00    +0.000 C 
ATOM     22  O   UNL     1      10.212  13.002  19.502  0.00  0.00    +0.000 OA
ATOM     23  C   UNL     1      10.169  12.693  18.105  0.00  0.00    +0.000 C 
ATOM     24  C   UNL     1      10.393  11.196  17.852  0.00  0.00    +0.000 C 
ENDBRANCH  18  19
ENDBRANCH   6  18
TORSDOF 6
ENDMDL
MODEL 5
REMARK VINA RESULT:      -6.9      5.657      8.967
REMARK  Name = 
REMARK  6 active torsions:
REMARK  status: ('A' for Active; 'I' for Inactive)
REMARK    1  A    between atoms: C_3  and  O_4
REMARK    2  A    between atoms: O_4  and  C_5
REMARK    3  A    between atoms: C_5  and  C_6
REMARK    4  A    between atoms: N_8  and  C_9
REMARK    5  A    between atoms: C_17  and  C_18
REMARK    6  A    between atoms: C_18  and  N_19
REMARK                            x       y       z     vdW  Elec       q    Type
REMARK                         _______ _______ _______ _____ _____    ______ ____
ROOT
ATOM      1  C   UNL     1       1.271   9.423  18.051  0.00  0.00    +0.000 A 
ATOM      2  C   UNL     1       2.108   8.327  17.980  0.00  0.00    +0.000 A 
ATOM      3  C   UNL     1       2.359   7.544  19.107  0.00  0.00    +0.000 A 
ATOM      4  C   UNL     1       1.738   7.874  20.320  0.00  0.00    +0.000 A 
ATOM      5  C   UNL     1       0.893   8.992  20.390  0.00  0.00    +0.000 A 
ATOM      6  C   UNL     1       0.670   9.789  19.258  0.00  0.00    +0.000 A 
ENDROOT
BRANCH   3   7
ATOM      7  O   UNL     1       3.189   6.450  19.100  0.00  0.00    +0.000 OA
BRANCH   7   8
ATOM      8  C   UNL     1       3.092   5.674  17.899  0.00  0.00    +0.000 C 
BRANCH   8   9
ATOM      9  C   UNL     1       4.422   5.537  17.188  0.00  0.00    +0.000 C 
ATOM     10  C   UNL     1       4.701   4.086  16.755  0.00  0.00    +0.000 C 
ATOM     11  N   UNL     1       5.982   3.994  16.014  0.00  0.00    +0.000 NA
ATOM     12  C   UNL     1       7.050   4.566  16.862  0.00  0.00    +0.000 C 
ATOM     13  C   UNL     1       6.730   5.952  17.443  0.00  0.00    +0.000 C 
ATOM     14  O   UNL     1       5.454   5.980  18.094  0.00  0.00    +0.000 OA
BRANCH  11  15
ATOM     15  C   UNL     1       5.873   4.622  14.682  0.00  0.00    +0.000 C 
ATOM     16  C   UNL     1       7.080   4.850  13.824  0.00  0.00    +0.000 C 
ATOM     17  C   UNL     1       6.108   3.762  13.472  0.00  0.00    +0.000 C 
ENDBRANCH  11  15
ENDBRANCH   8   9
ENDBRANCH   7   8
ENDBRANCH   3   7
BRANCH   6  18
ATOM     18  C   UNL     1      -0.231  10.997  19.247  0.00  0.00    +0.000 C 
BRANCH  18  19
ATOM     19  N   UNL     1       0.225  12.205  19.929  0.00  0.00    +0.000 NA
ATOM     20  C   UNL     1      -0.595  13.420  19.819  0.00  0.00    +0.000 C 
ATOM     21  C   UNL     1      -0.187  14.389  18.695  0.00  0.00    +0.000 C 
ATOM     22  O   UNL     1       1.212  14.696  18.752  0.00  0.00    +0.000 OA
ATOM     23  C   UNL     1       1.989  13.497  18.657  0.00  0.00    +0.000 C 
ATOM     24  C   UNL     1       1.649  12.515  19.786  0.00  0.00    +0.000 C 
ENDBRANCH  18  19
ENDBRANCH   6  18
TORSDOF 6
ENDMDL
MODEL 6
REMARK VINA RESULT:      -6.8      1.811      9.817
REMARK  Name = 
REMARK  6 active torsions:
REMARK  status: ('A' for Active; 'I' for Inactive)
REMARK    1  A    between atoms: C_3  and  O_4
REMARK    2  A    between atoms: O_4  and  C_5
REMARK    3  A    between atoms: C_5  and  C_6
REMARK    4  A    between atoms: N_8  and  C_9
REMARK    5  A    between atoms: C_17  and  C_18
REMARK    6  A    between atoms: C_18  and  N_19
REMARK                            x       y       z     vdW  Elec       q    Type
REMARK                         _______ _______ _______ _____ _____    ______ ____
ROOT
ATOM      1  C   UNL     1       7.169   8.636  17.267  0.00  0.00    +0.000 A 
ATOM      2  C   UNL     1       6.658   7.367  17.074  0.00  0.00    +0.000 A 
ATOM      3  C   UNL     1       7.114   6.289  17.832  0.00  0.00    +0.000 A 
ATOM      4  C   UNL     1       8.095   6.508  18.810  0.00  0.00    +0.000 A 
ATOM      5  C   UNL     1       8.618   7.797  18.998  0.00  0.00    +0.000 A 
ATOM      6  C   UNL     1       8.172   8.868  18.211  0.00  0.00    +0.000 A 
ENDROOT
BRANCH   3   7
ATOM      7  O   UNL     1       6.652   5.005  17.679  0.00  0.00    +0.000 OA
BRANCH   7   8
ATOM      8  C   UNL     1       6.132   4.443  18.891  0.00  0.00    +0.000 C 
BRANCH   8   9
ATOM      9  C   UNL     1       4.686   4.011  18.755  0.00  0.00    +0.000 C 
ATOM     10  C   UNL     1       4.389   2.728  19.552  0.00  0.00    +0.000 C 
ATOM     11  N   UNL     1       2.955   2.361  19.446  0.00  0.00    +0.000 NA
ATOM     12  C   UNL     1       2.611   2.251  18.012  0.00  0.00    +0.000 C 
ATOM     13  C   UNL     1       3.042   3.455  17.158  0.00  0.00    +0.000 C 
ATOM     14  O   UNL     1       4.422   3.785  17.355  0.00  0.00    +0.000 OA
BRANCH  11  15
ATOM     15  C   UNL     1       2.107   3.309  20.196  0.00  0.00    +0.000 C 
ATOM     16  C   UNL     1       0.616   3.173  20.217  0.00  0.00    +0.000 C 
ATOM     17  C   UNL     1       1.415   2.811  21.434  0.00  0.00    +0.000 C 
ENDBRANCH  11  15
ENDBRANCH   8   9
ENDBRANCH   7   8
ENDBRANCH   3   7
BRANCH   6  18
ATOM     18  C   UNL     1       8.672  10.283  18.359  0.00  0.00    +0.000 C 
BRANCH  18  19
ATOM     19  N   UNL     1       9.687  10.554  19.373  0.00  0.00    +0.000 NA
ATOM     20  C   UNL     1       9.247  11.049  20.686  0.00  0.00    +0.000 C 
ATOM     21  C   UNL     1       9.255  12.580  20.848  0.00  0.00    +0.000 C 
ATOM     22  O   UNL     1      10.519  13.138  20.466  0.00  0.00    +0.000 OA
ATOM     23  C   UNL     1      10.825  12.798  19.110  0.00  0.00    +0.000 C 
ATOM     24  C   UNL     1      10.871  11.278  18.907  0.00  0.00    +0.000 C 
ENDBRANCH  18  19
ENDBRANCH   6  18
TORSDOF 6
ENDMDL
MODEL 7
REMARK VINA RESULT:      -6.8      5.660      8.566
REMARK  Name = 
REMARK  6 active torsions:
REMARK  status: ('A' for Active; 'I' for Inactive)
REMARK    1  A    between atoms: C_3  and  O_4
REMARK    2  A    between atoms: O_4  and  C_5
REMARK    3  A    between atoms: C_5  and  C_6
REMARK    4  A    between atoms: N_8  and  C_9
REMARK    5  A    between atoms: C_17  and  C_18
REMARK    6  A    between atoms: C_18  and  N_19
REMARK                            x       y       z     vdW  Elec       q    Type
REMARK                         _______ _______ _______ _____ _____    ______ ____
ROOT
ATOM      1  C   UNL     1       1.420   9.230  18.452  0.00  0.00    +0.000 A 
ATOM      2  C   UNL     1       2.276   8.155  18.309  0.00  0.00    +0.000 A 
ATOM      3  C   UNL     1       2.458   7.244  19.349  0.00  0.00    +0.000 A 
ATOM      4  C   UNL     1       1.749   7.421  20.545  0.00  0.00    +0.000 A 
ATOM      5  C   UNL     1       0.885   8.517  20.689  0.00  0.00    +0.000 A 
ATOM      6  C   UNL     1       0.730   9.443  19.648  0.00  0.00    +0.000 A 
ENDROOT
BRANCH   3   7
ATOM      7  O   UNL     1       3.303   6.163  19.271  0.00  0.00    +0.000 OA
BRANCH   7   8
ATOM      8  C   UNL     1       3.189   5.446  18.035  0.00  0.00    +0.000 C 
BRANCH   8   9
ATOM      9  C   UNL     1       4.498   5.392  17.274  0.00  0.00    +0.000 C 
ATOM     10  C   UNL     1       4.838   3.965  16.809  0.00  0.00    +0.000 C 
ATOM     11  N   UNL     1       6.094   3.952  16.020  0.00  0.00    +0.000 NA
ATOM     12  C   UNL     1       7.161   4.570  16.838  0.00  0.00    +0.000 C 
ATOM     13  C   UNL     1       6.788   5.929  17.451  0.00  0.00    +0.000 C 
ATOM     14  O   UNL     1       5.537   5.879  18.148  0.00  0.00    +0.000 OA
BRANCH  11  15
ATOM     15  C   UNL     1       5.901   4.592  14.703  0.00  0.00    +0.000 C 
ATOM     16  C   UNL     1       7.060   4.886  13.800  0.00  0.00    +0.000 C 
ATOM     17  C   UNL     1       6.125   3.759  13.472  0.00  0.00    +0.000 C 
ENDBRANCH  11  15
ENDBRANCH   8   9
ENDBRANCH   7   8
ENDBRANCH   3   7
BRANCH   6  18
ATOM     18  C   UNL     1      -0.185  10.639  19.717  0.00  0.00    +0.000 C 
BRANCH  18  19
ATOM     19  N   UNL     1      -0.814  11.099  18.483  0.00  0.00    +0.000 NA
ATOM     20  C   UNL     1      -1.726  12.251  18.551  0.00  0.00    +0.000 C 
ATOM     21  C   UNL     1      -3.217  11.901  18.704  0.00  0.00    +0.000 C 
ATOM     22  O   UNL     1      -3.635  10.951  17.715  0.00  0.00    +0.000 OA
ATOM     23  C   UNL     1      -2.850   9.757  17.808  0.00  0.00    +0.000 C 
ATOM     24  C   UNL     1      -1.356  10.049  17.618  0.00  0.00    +0.000 C 
ENDBRANCH  18  19
ENDBRANCH   6  18
TORSDOF 6
ENDMDL
MODEL 8
REMARK VINA RESULT:      -6.8      5.993      8.941
REMARK  Name = 
REMARK  6 active torsions:
REMARK  status: ('A' for Active; 'I' for Inactive)
REMARK    1  A    between atoms: C_3  and  O_4
REMARK    2  A    between atoms: O_4  and  C_5
REMARK    3  A    between atoms: C_5  and  C_6
REMARK    4  A    between atoms: N_8  and  C_9
REMARK    5  A    between atoms: C_17  and  C_18
REMARK    6  A    between atoms: C_18  and  N_19
REMARK                            x       y       z     vdW  Elec       q    Type
REMARK                         _______ _______ _______ _____ _____    ______ ____
ROOT
ATOM      1  C   UNL     1       1.598   9.204  17.878  0.00  0.00    +0.000 A 
ATOM      2  C   UNL     1       2.316   8.026  17.944  0.00  0.00    +0.000 A 
ATOM      3  C   UNL     1       2.436   7.328  19.147  0.00  0.00    +0.000 A 
ATOM      4  C   UNL     1       1.806   7.831  20.294  0.00  0.00    +0.000 A 
ATOM      5  C   UNL     1       1.084   9.032  20.225  0.00  0.00    +0.000 A 
ATOM      6  C   UNL     1       0.992   9.739  19.018  0.00  0.00    +0.000 A 
ENDROOT
BRANCH   3   7
ATOM      7  O   UNL     1       3.144   6.158  19.277  0.00  0.00    +0.000 OA
BRANCH   7   8
ATOM      8  C   UNL     1       3.121   5.350  18.094  0.00  0.00    +0.000 C 
BRANCH   8   9
ATOM      9  C   UNL     1       4.455   5.337  17.376  0.00  0.00    +0.000 C 
ATOM     10  C   UNL     1       4.817   3.935  16.853  0.00  0.00    +0.000 C 
ATOM     11  N   UNL     1       6.099   3.964  16.107  0.00  0.00    +0.000 NA
ATOM     12  C   UNL     1       7.135   4.545  16.989  0.00  0.00    +0.000 C 
ATOM     13  C   UNL     1       6.735   5.872  17.654  0.00  0.00    +0.000 C 
ATOM     14  O   UNL     1       5.462   5.784  18.306  0.00  0.00    +0.000 OA
BRANCH  11  15
ATOM     15  C   UNL     1       5.947   4.667  14.817  0.00  0.00    +0.000 C 
ATOM     16  C   UNL     1       7.111   4.869  13.896  0.00  0.00    +0.000 C 
ATOM     17  C   UNL     1       6.056   3.858  13.555  0.00  0.00    +0.000 C 
ENDBRANCH  11  15
ENDBRANCH   8   9
ENDBRANCH   7   8
ENDBRANCH   3   7
BRANCH   6  18
ATOM     18  C   UNL     1       0.227  11.028  18.856  0.00  0.00    +0.000 C 
BRANCH  18  19
ATOM     19  N   UNL     1      -0.075  11.806  20.054  0.00  0.00    +0.000 NA
ATOM     20  C   UNL     1      -1.432  11.726  20.614  0.00  0.00    +0.000 C 
ATOM     21  C   UNL     1      -2.403  12.826  20.146  0.00  0.00    +0.000 C 
ATOM     22  O   UNL     1      -1.834  14.131  20.316  0.00  0.00    +0.000 OA
ATOM     23  C   UNL     1      -0.605  14.236  19.591  0.00  0.00    +0.000 C 
ATOM     24  C   UNL     1       0.414  13.186  20.053  0.00  0.00    +0.000 C 
ENDBRANCH  18  19
ENDBRANCH   6  18
TORSDOF 6
ENDMDL
MODEL 9
REMARK VINA RESULT:      -6.7      1.173      1.403
REMARK  Name = 
REMARK  6 active torsions:
REMARK  status: ('A' for Active; 'I' for Inactive)
REMARK    1  A    between atoms: C_3  and  O_4
REMARK    2  A    between atoms: O_4  and  C_5
REMARK    3  A    between atoms: C_5  and  C_6
REMARK    4  A    between atoms: N_8  and  C_9
REMARK    5  A    between atoms: C_17  and  C_18
REMARK    6  A    between atoms: C_18  and  N_19
REMARK                            x       y       z     vdW  Elec       q    Type
REMARK                         _______ _______ _______ _____ _____    ______ ____
ROOT
ATOM      1  C   UNL     1       7.535   5.779  18.822  0.00  0.00    +0.000 A 
ATOM      2  C   UNL     1       8.230   6.971  18.772  0.00  0.00    +0.000 A 
ATOM      3  C   UNL     1       7.810   8.010  17.941  0.00  0.00    +0.000 A 
ATOM      4  C   UNL     1       6.658   7.837  17.160  0.00  0.00    +0.000 A 
ATOM      5  C   UNL     1       5.958   6.622  17.208  0.00  0.00    +0.000 A 
ATOM      6  C   UNL     1       6.405   5.574  18.026  0.00  0.00    +0.000 A 
ENDROOT
BRANCH   3   7
ATOM      7  O   UNL     1       8.465   9.213  17.842  0.00  0.00    +0.000 OA
BRANCH   7   8
ATOM      8  C   UNL     1       9.010   9.664  19.087  0.00  0.00    +0.000 C 
BRANCH   8   9
ATOM      9  C   UNL     1       9.423  11.121  19.045  0.00  0.00    +0.000 C 
ATOM     10  C   UNL     1       8.888  11.839  17.793  0.00  0.00    +0.000 C 
ATOM     11  N   UNL     1       9.260  13.274  17.807  0.00  0.00    +0.000 NA
ATOM     12  C   UNL     1      10.729  13.370  17.952  0.00  0.00    +0.000 C 
ATOM     13  C   UNL     1      11.313  12.532  19.101  0.00  0.00    +0.000 C 
ATOM     14  O   UNL     1      10.865  11.172  19.054  0.00  0.00    +0.000 OA
BRANCH  11  15
ATOM     15  C   UNL     1       8.506  14.009  18.843  0.00  0.00    +0.000 C 
ATOM     16  C   UNL     1       8.866  15.412  19.223  0.00  0.00    +0.000 C 
ATOM     17  C   UNL     1       7.635  15.153  18.406  0.00  0.00    +0.000 C 
ENDBRANCH  11  15
ENDBRANCH   8   9
ENDBRANCH   7   8
ENDBRANCH   3   7
BRANCH   6  18
ATOM     18  C   UNL     1       5.705   4.244  18.143  0.00  0.00    +0.000 C 
BRANCH  18  19
ATOM     19  N   UNL     1       4.249   4.238  18.254  0.00  0.00    +0.000 NA
ATOM     20  C   UNL     1       3.651   4.269  19.597  0.00  0.00    +0.000 C 
ATOM     21  C   UNL     1       3.298   2.894  20.191  0.00  0.00    +0.000 C 
ATOM     22  O   UNL     1       2.512   2.117  19.278  0.00  0.00    +0.000 OA
ATOM     23  C   UNL     1       3.214   1.939  18.043  0.00  0.00    +0.000 C 
ATOM     24  C   UNL     1       3.551   3.285  17.388  0.00  0.00    +0.000 C 
ENDBRANCH  18  19
ENDBRANCH   6  18
TORSDOF 6
ENDMDL
