MODEL 1
REMARK VINA RESULT:      -8.2      0.000      0.000
REMARK  Name = 
REMARK  6 active torsions:
REMARK  status: ('A' for Active; 'I' for Inactive)
REMARK    1  A    between atoms: C_2  and  C_19
REMARK    2  A    between atoms: N_3  and  C_4
REMARK    3  A    between atoms: C_4  and  C_5
REMARK    4  A    between atoms: C_5  and  N_6
REMARK    5  A    between atoms: C_9  and  C_10
REMARK    6  A    between atoms: C_10  and  C_11
REMARK                            x       y       z     vdW  Elec       q    Type
REMARK                         _______ _______ _______ _____ _____    ______ ____
ROOT
ATOM      1  N   UNL     1       7.071   6.202  17.578  0.00  0.00    +0.000 NA
ATOM      2  C   UNL     1       6.392   5.288  18.512  0.00  0.00    +0.000 C 
ATOM      3  C   UNL     1       5.493   4.311  17.763  0.00  0.00    +0.000 C 
ATOM      4  C   UNL     1       4.420   5.037  16.948  0.00  0.00    +0.000 C 
ATOM      5  C   UNL     1       5.130   6.036  16.017  0.00  0.00    +0.000 C 
ATOM      6  C   UNL     1       6.100   6.958  16.768  0.00  0.00    +0.000 C 
ENDROOT
BRANCH   1   7
ATOM      7  C   UNL     1       7.943   7.147  18.307  0.00  0.00    +0.000 C 
BRANCH   7   8
ATOM      8  C   UNL     1       7.797   8.610  17.842  0.00  0.00    +0.000 C 
BRANCH   8  11
ATOM      9  O   UNL     1       7.948  11.389  17.451  0.00  0.00    +0.000 OA
ATOM     10  C   UNL     1       8.858  10.818  18.044  0.00  0.00    +0.000 C 
ATOM     11  N   UNL     1       8.898   9.454  18.256  0.00  0.00    +0.000 N 
ATOM     12  H   UNL     1       9.487   9.106  19.001  0.00  0.00    +0.000 HD
BRANCH  10  13
ATOM     13  C   UNL     1       9.983  11.596  18.620  0.00  0.00    +0.000 A 
ATOM     14  C   UNL     1       9.861  12.080  19.928  0.00  0.00    +0.000 A 
ATOM     15  C   UNL     1      10.901  12.814  20.498  0.00  0.00    +0.000 A 
ATOM     16  C   UNL     1      12.057  13.072  19.761  0.00  0.00    +0.000 A 
ATOM     17  C   UNL     1      12.174  12.605  18.451  0.00  0.00    +0.000 A 
ATOM     18  C   UNL     1      11.136  11.872  17.877  0.00  0.00    +0.000 A 
ENDBRANCH  10  13
ENDBRANCH   8  11
ENDBRANCH   7   8
ENDBRANCH   1   7
BRANCH   4  19
ATOM     19  C   UNL     1       3.364   5.753  17.822  0.00  0.00    +0.000 C 
BRANCH  19  20
ATOM     20  C   UNL     1       2.421   4.845  18.578  0.00  0.00    +0.000 A 
ATOM     21  C   UNL     1       1.832   3.746  17.935  0.00  0.00    +0.000 A 
ATOM     22  C   UNL     1       0.996   2.875  18.635  0.00  0.00    +0.000 A 
ATOM     23  C   UNL     1       0.739   3.092  19.986  0.00  0.00    +0.000 A 
ATOM     24  C   UNL     1       1.312   4.184  20.636  0.00  0.00    +0.000 A 
ATOM     25  C   UNL     1       2.150   5.056  19.936  0.00  0.00    +0.000 A 
ENDBRANCH  19  20
ENDBRANCH   4  19
TORSDOF 6
ENDMDL
MODEL 2
REMARK VINA RESULT:      -8.2      4.001      6.215
REMARK  Name = 
REMARK  6 active torsions:
REMARK  status: ('A' for Active; 'I' for Inactive)
REMARK    1  A    between atoms: C_2  and  C_19
REMARK    2  A    between atoms: N_3  and  C_4
REMARK    3  A    between atoms: C_4  and  C_5
REMARK    4  A    between atoms: C_5  and  N_6
REMARK    5  A    between atoms: C_9  and  C_10
REMARK    6  A    between atoms: C_10  and  C_11
REMARK                            x       y       z     vdW  Elec       q    Type
REMARK                         _______ _______ _______ _____ _____    ______ ____
ROOT
ATOM      1  N   UNL     1       2.445   2.256  19.317  0.00  0.00    +0.000 NA
ATOM      2  C   UNL     1       3.028   2.651  20.611  0.00  0.00    +0.000 C 
ATOM      3  C   UNL     1       2.024   3.442  21.443  0.00  0.00    +0.000 C 
ATOM      4  C   UNL     1       1.564   4.712  20.722  0.00  0.00    +0.000 C 
ATOM      5  C   UNL     1       1.013   4.301  19.345  0.00  0.00    +0.000 C 
ATOM      6  C   UNL     1       1.996   3.431  18.550  0.00  0.00    +0.000 C 
ENDROOT
BRANCH   1   7
ATOM      7  C   UNL     1       3.420   1.488  18.513  0.00  0.00    +0.000 C 
BRANCH   7   8
ATOM      8  C   UNL     1       3.993   2.274  17.317  0.00  0.00    +0.000 C 
BRANCH   8  11
ATOM      9  O   UNL     1       4.910   4.366  15.680  0.00  0.00    +0.000 OA
ATOM     10  C   UNL     1       5.325   4.282  16.832  0.00  0.00    +0.000 C 
ATOM     11  N   UNL     1       4.967   3.274  17.705  0.00  0.00    +0.000 N 
ATOM     12  H   UNL     1       5.085   3.438  18.695  0.00  0.00    +0.000 HD
BRANCH  10  13
ATOM     13  C   UNL     1       6.236   5.318  17.379  0.00  0.00    +0.000 A 
ATOM     14  C   UNL     1       6.199   6.602  16.824  0.00  0.00    +0.000 A 
ATOM     15  C   UNL     1       7.041   7.599  17.316  0.00  0.00    +0.000 A 
ATOM     16  C   UNL     1       7.925   7.312  18.356  0.00  0.00    +0.000 A 
ATOM     17  C   UNL     1       7.977   6.028  18.901  0.00  0.00    +0.000 A 
ATOM     18  C   UNL     1       7.137   5.028  18.410  0.00  0.00    +0.000 A 
ENDBRANCH  10  13
ENDBRANCH   8  11
ENDBRANCH   7   8
ENDBRANCH   1   7
BRANCH   4  19
ATOM     19  C   UNL     1       2.681   5.772  20.575  0.00  0.00    +0.000 C 
BRANCH  19  20
ATOM     20  C   UNL     1       2.299   7.018  19.808  0.00  0.00    +0.000 A 
ATOM     21  C   UNL     1       2.685   7.168  18.467  0.00  0.00    +0.000 A 
ATOM     22  C   UNL     1       2.299   8.293  17.737  0.00  0.00    +0.000 A 
ATOM     23  C   UNL     1       1.522   9.280  18.336  0.00  0.00    +0.000 A 
ATOM     24  C   UNL     1       1.138   9.147  19.670  0.00  0.00    +0.000 A 
ATOM     25  C   UNL     1       1.522   8.021  20.402  0.00  0.00    +0.000 A 
ENDBRANCH  19  20
ENDBRANCH   4  19
TORSDOF 6
ENDMDL
MODEL 3
REMARK VINA RESULT:      -8.0      0.907      1.671
REMARK  Name = 
REMARK  6 active torsions:
REMARK  status: ('A' for Active; 'I' for Inactive)
REMARK    1  A    between atoms: C_2  and  C_19
REMARK    2  A    between atoms: N_3  and  C_4
REMARK    3  A    between atoms: C_4  and  C_5
REMARK    4  A    between atoms: C_5  and  N_6
REMARK    5  A    between atoms: C_9  and  C_10
REMARK    6  A    between atoms: C_10  and  C_11
REMARK                            x       y       z     vdW  Elec       q    Type
REMARK                         _______ _______ _______ _____ _____    ______ ____
ROOT
ATOM      1  N   UNL     1       6.805   6.484  17.152  0.00  0.00    +0.000 NA
ATOM      2  C   UNL     1       7.195   5.065  17.085  0.00  0.00    +0.000 C 
ATOM      3  C   UNL     1       6.170   4.254  16.298  0.00  0.00    +0.000 C 
ATOM      4  C   UNL     1       4.778   4.334  16.930  0.00  0.00    +0.000 C 
ATOM      5  C   UNL     1       4.400   5.821  17.057  0.00  0.00    +0.000 C 
ATOM      6  C   UNL     1       5.478   6.646  17.772  0.00  0.00    +0.000 C 
ENDROOT
BRANCH   1   7
ATOM      7  C   UNL     1       7.802   7.267  17.914  0.00  0.00    +0.000 C 
BRANCH   7   8
ATOM      8  C   UNL     1       7.616   8.793  17.790  0.00  0.00    +0.000 C 
BRANCH   8  11
ATOM      9  O   UNL     1       7.981  11.550  17.387  0.00  0.00    +0.000 OA
ATOM     10  C   UNL     1       8.859  10.906  17.953  0.00  0.00    +0.000 C 
ATOM     11  N   UNL     1       8.795   9.544  18.168  0.00  0.00    +0.000 N 
ATOM     12  H   UNL     1       9.376   9.150  18.895  0.00  0.00    +0.000 HD
BRANCH  10  13
ATOM     13  C   UNL     1      10.062  11.591  18.491  0.00  0.00    +0.000 A 
ATOM     14  C   UNL     1      10.770  12.457  17.652  0.00  0.00    +0.000 A 
ATOM     15  C   UNL     1      11.903  13.117  18.128  0.00  0.00    +0.000 A 
ATOM     16  C   UNL     1      12.333  12.904  19.438  0.00  0.00    +0.000 A 
ATOM     17  C   UNL     1      11.638  12.027  20.272  0.00  0.00    +0.000 A 
ATOM     18  C   UNL     1      10.506  11.365  19.800  0.00  0.00    +0.000 A 
ENDBRANCH  10  13
ENDBRANCH   8  11
ENDBRANCH   7   8
ENDBRANCH   1   7
BRANCH   4  19
ATOM     19  C   UNL     1       4.684   3.623  18.301  0.00  0.00    +0.000 C 
BRANCH  19  20
ATOM     20  C   UNL     1       3.284   3.428  18.838  0.00  0.00    +0.000 A 
ATOM     21  C   UNL     1       2.872   4.104  19.996  0.00  0.00    +0.000 A 
ATOM     22  C   UNL     1       1.568   3.966  20.476  0.00  0.00    +0.000 A 
ATOM     23  C   UNL     1       0.661   3.152  19.803  0.00  0.00    +0.000 A 
ATOM     24  C   UNL     1       1.060   2.469  18.655  0.00  0.00    +0.000 A 
ATOM     25  C   UNL     1       2.364   2.606  18.174  0.00  0.00    +0.000 A 
ENDBRANCH  19  20
ENDBRANCH   4  19
TORSDOF 6
ENDMDL
MODEL 4
REMARK VINA RESULT:      -7.9      1.257      1.922
REMARK  Name = 
REMARK  6 active torsions:
REMARK  status: ('A' for Active; 'I' for Inactive)
REMARK    1  A    between atoms: C_2  and  C_19
REMARK    2  A    between atoms: N_3  and  C_4
REMARK    3  A    between atoms: C_4  and  C_5
REMARK    4  A    between atoms: C_5  and  N_6
REMARK    5  A    between atoms: C_9  and  C_10
REMARK    6  A    between atoms: C_10  and  C_11
REMARK                            x       y       z     vdW  Elec       q    Type
REMARK                         _______ _______ _______ _____ _____    ______ ____
ROOT
ATOM      1  N   UNL     1       6.962   7.061  17.184  0.00  0.00    +0.000 NA
ATOM      2  C   UNL     1       7.548   6.191  18.218  0.00  0.00    +0.000 C 
ATOM      3  C   UNL     1       7.235   4.725  17.940  0.00  0.00    +0.000 C 
ATOM      4  C   UNL     1       5.727   4.465  17.902  0.00  0.00    +0.000 C 
ATOM      5  C   UNL     1       5.109   5.419  16.865  0.00  0.00    +0.000 C 
ATOM      6  C   UNL     1       5.502   6.883  17.101  0.00  0.00    +0.000 C 
ENDROOT
BRANCH   1   7
ATOM      7  C   UNL     1       7.269   8.482  17.456  0.00  0.00    +0.000 C 
BRANCH   7   8
ATOM      8  C   UNL     1       8.403   8.685  18.481  0.00  0.00    +0.000 C 
BRANCH   8  11
ATOM      9  O   UNL     1       9.291  10.491  20.442  0.00  0.00    +0.000 OA
ATOM     10  C   UNL     1       9.608  10.675  19.271  0.00  0.00    +0.000 C 
ATOM     11  N   UNL     1       9.196   9.870  18.228  0.00  0.00    +0.000 N 
ATOM     12  H   UNL     1       9.734   9.887  17.373  0.00  0.00    +0.000 HD
BRANCH  10  13
ATOM     13  C   UNL     1      10.517  11.791  18.908  0.00  0.00    +0.000 A 
ATOM     14  C   UNL     1      10.402  12.360  17.635  0.00  0.00    +0.000 A 
ATOM     15  C   UNL     1      11.241  13.410  17.263  0.00  0.00    +0.000 A 
ATOM     16  C   UNL     1      12.199  13.886  18.158  0.00  0.00    +0.000 A 
ATOM     17  C   UNL     1      12.328  13.310  19.422  0.00  0.00    +0.000 A 
ATOM     18  C   UNL     1      11.492  12.258  19.797  0.00  0.00    +0.000 A 
ENDBRANCH  10  13
ENDBRANCH   8  11
ENDBRANCH   7   8
ENDBRANCH   1   7
BRANCH   4  19
ATOM     19  C   UNL     1       5.040   4.627  19.278  0.00  0.00    +0.000 C 
BRANCH  19  20
ATOM     20  C   UNL     1       3.652   4.038  19.386  0.00  0.00    +0.000 A 
ATOM     21  C   UNL     1       2.626   4.760  20.015  0.00  0.00    +0.000 A 
ATOM     22  C   UNL     1       1.330   4.245  20.080  0.00  0.00    +0.000 A 
ATOM     23  C   UNL     1       1.045   3.004  19.518  0.00  0.00    +0.000 A 
ATOM     24  C   UNL     1       2.057   2.273  18.898  0.00  0.00    +0.000 A 
ATOM     25  C   UNL     1       3.354   2.787  18.830  0.00  0.00    +0.000 A 
ENDBRANCH  19  20
ENDBRANCH   4  19
TORSDOF 6
ENDMDL
MODEL 5
REMARK VINA RESULT:      -7.9      0.989      1.497
REMARK  Name = 
REMARK  6 active torsions:
REMARK  status: ('A' for Active; 'I' for Inactive)
REMARK    1  A    between atoms: C_2  and  C_19
REMARK    2  A    between atoms: N_3  and  C_4
REMARK    3  A    between atoms: C_4  and  C_5
REMARK    4  A    between atoms: C_5  and  N_6
REMARK    5  A    between atoms: C_9  and  C_10
REMARK    6  A    between atoms: C_10  and  C_11
REMARK                            x       y       z     vdW  Elec       q    Type
REMARK                         _______ _______ _______ _____ _____    ______ ____
ROOT
ATOM      1  N   UNL     1       7.219   6.353  17.759  0.00  0.00    +0.000 NA
ATOM      2  C   UNL     1       6.537   5.393  18.645  0.00  0.00    +0.000 C 
ATOM      3  C   UNL     1       5.614   4.477  17.849  0.00  0.00    +0.000 C 
ATOM      4  C   UNL     1       4.543   5.267  17.093  0.00  0.00    +0.000 C 
ATOM      5  C   UNL     1       5.257   6.311  16.216  0.00  0.00    +0.000 C 
ATOM      6  C   UNL     1       6.249   7.171  17.010  0.00  0.00    +0.000 C 
ENDROOT
BRANCH   1   7
ATOM      7  C   UNL     1       8.114   7.239  18.535  0.00  0.00    +0.000 C 
BRANCH   7   8
ATOM      8  C   UNL     1       8.246   8.657  17.943  0.00  0.00    +0.000 C 
BRANCH   8  11
ATOM      9  O   UNL     1      10.034  10.792  17.571  0.00  0.00    +0.000 OA
ATOM     10  C   UNL     1       9.435  10.692  18.638  0.00  0.00    +0.000 C 
ATOM     11  N   UNL     1       8.565   9.662  18.935  0.00  0.00    +0.000 N 
ATOM     12  H   UNL     1       7.888   9.809  19.671  0.00  0.00    +0.000 HD
BRANCH  10  13
ATOM     13  C   UNL     1       9.591  11.731  19.686  0.00  0.00    +0.000 A 
ATOM     14  C   UNL     1      10.145  12.965  19.328  0.00  0.00    +0.000 A 
ATOM     15  C   UNL     1      10.304  13.962  20.290  0.00  0.00    +0.000 A 
ATOM     16  C   UNL     1       9.918  13.725  21.609  0.00  0.00    +0.000 A 
ATOM     17  C   UNL     1       9.381  12.489  21.973  0.00  0.00    +0.000 A 
ATOM     18  C   UNL     1       9.222  11.489  21.015  0.00  0.00    +0.000 A 
ENDBRANCH  10  13
ENDBRANCH   8  11
ENDBRANCH   7   8
ENDBRANCH   1   7
BRANCH   4  19
ATOM     19  C   UNL     1       3.508   5.943  18.023  0.00  0.00    +0.000 C 
BRANCH  19  20
ATOM     20  C   UNL     1       2.540   5.006  18.709  0.00  0.00    +0.000 A 
ATOM     21  C   UNL     1       1.904   3.990  17.979  0.00  0.00    +0.000 A 
ATOM     22  C   UNL     1       1.043   3.092  18.611  0.00  0.00    +0.000 A 
ATOM     23  C   UNL     1       0.808   3.197  19.979  0.00  0.00    +0.000 A 
ATOM     24  C   UNL     1       1.427   4.207  20.715  0.00  0.00    +0.000 A 
ATOM     25  C   UNL     1       2.290   5.106  20.084  0.00  0.00    +0.000 A 
ENDBRANCH  19  20
ENDBRANCH   4  19
TORSDOF 6
ENDMDL
MODEL 6
REMARK VINA RESULT:      -7.8      1.343      1.738
REMARK  Name = 
REMARK  6 active torsions:
REMARK  status: ('A' for Active; 'I' for Inactive)
REMARK    1  A    between atoms: C_2  and  C_19
REMARK    2  A    between atoms: N_3  and  C_4
REMARK    3  A    between atoms: C_4  and  C_5
REMARK    4  A    between atoms: C_5  and  N_6
REMARK    5  A    between atoms: C_9  and  C_10
REMARK    6  A    between atoms: C_10  and  C_11
REMARK                            x       y       z     vdW  Elec       q    Type
REMARK                         _______ _______ _______ _____ _____    ______ ____
ROOT
ATOM      1  N   UNL     1       6.478   6.315  17.192  0.00  0.00    +0.000 NA
ATOM      2  C   UNL     1       5.780   5.808  18.386  0.00  0.00    +0.000 C 
ATOM      3  C   UNL     1       5.543   4.305  18.282  0.00  0.00    +0.000 C 
ATOM      4  C   UNL     1       4.702   3.947  17.054  0.00  0.00    +0.000 C 
ATOM      5  C   UNL     1       5.402   4.532  15.815  0.00  0.00    +0.000 C 
ATOM      6  C   UNL     1       5.716   6.026  15.964  0.00  0.00    +0.000 C 
ENDROOT
BRANCH   1   7
ATOM      7  C   UNL     1       6.708   7.772  17.296  0.00  0.00    +0.000 C 
BRANCH   7   8
ATOM      8  C   UNL     1       8.008   8.142  18.038  0.00  0.00    +0.000 C 
BRANCH   8  11
ATOM      9  O   UNL     1       9.231   9.907  19.850  0.00  0.00    +0.000 OA
ATOM     10  C   UNL     1       9.109  10.244  18.677  0.00  0.00    +0.000 C 
ATOM     11  N   UNL     1       8.492   9.468  17.716  0.00  0.00    +0.000 N 
ATOM     12  H   UNL     1       8.704   9.655  16.745  0.00  0.00    +0.000 HD
BRANCH  10  13
ATOM     13  C   UNL     1       9.674  11.533  18.203  0.00  0.00    +0.000 A 
ATOM     14  C   UNL     1       8.848  12.662  18.194  0.00  0.00    +0.000 A 
ATOM     15  C   UNL     1       9.349  13.888  17.756  0.00  0.00    +0.000 A 
ATOM     16  C   UNL     1      10.671  13.984  17.321  0.00  0.00    +0.000 A 
ATOM     17  C   UNL     1      11.492  12.856  17.313  0.00  0.00    +0.000 A 
ATOM     18  C   UNL     1      10.994  11.628  17.749  0.00  0.00    +0.000 A 
ENDBRANCH  10  13
ENDBRANCH   8  11
ENDBRANCH   7   8
ENDBRANCH   1   7
BRANCH   4  19
ATOM     19  C   UNL     1       3.239   4.441  17.146  0.00  0.00    +0.000 C 
BRANCH  19  20
ATOM     20  C   UNL     1       2.508   4.076  18.418  0.00  0.00    +0.000 A 
ATOM     21  C   UNL     1       2.165   5.072  19.345  0.00  0.00    +0.000 A 
ATOM     22  C   UNL     1       1.451   4.754  20.501  0.00  0.00    +0.000 A 
ATOM     23  C   UNL     1       1.069   3.437  20.743  0.00  0.00    +0.000 A 
ATOM     24  C   UNL     1       1.410   2.437  19.834  0.00  0.00    +0.000 A 
ATOM     25  C   UNL     1       2.124   2.754  18.676  0.00  0.00    +0.000 A 
ENDBRANCH  19  20
ENDBRANCH   4  19
TORSDOF 6
ENDMDL
MODEL 7
REMARK VINA RESULT:      -7.8      1.724      2.426
REMARK  Name = 
REMARK  6 active torsions:
REMARK  status: ('A' for Active; 'I' for Inactive)
REMARK    1  A    between atoms: C_2  and  C_19
REMARK    2  A    between atoms: N_3  and  C_4
REMARK    3  A    between atoms: C_4  and  C_5
REMARK    4  A    between atoms: C_5  and  N_6
REMARK    5  A    between atoms: C_9  and  C_10
REMARK    6  A    between atoms: C_10  and  C_11
REMARK                            x       y       z     vdW  Elec       q    Type
REMARK                         _______ _______ _______ _____ _____    ______ ____
ROOT
ATOM      1  N   UNL     1       5.630   5.626  18.310  0.00  0.00    +0.000 NA
ATOM      2  C   UNL     1       5.933   4.470  17.447  0.00  0.00    +0.000 C 
ATOM      3  C   UNL     1       4.875   4.310  16.360  0.00  0.00    +0.000 C 
ATOM      4  C   UNL     1       3.478   4.106  16.952  0.00  0.00    +0.000 C 
ATOM      5  C   UNL     1       3.192   5.284  17.901  0.00  0.00    +0.000 C 
ATOM      6  C   UNL     1       4.304   5.493  18.937  0.00  0.00    +0.000 C 
ENDROOT
BRANCH   1   7
ATOM      7  C   UNL     1       6.659   5.779  19.362  0.00  0.00    +0.000 C 
BRANCH   7   8
ATOM      8  C   UNL     1       8.079   6.015  18.809  0.00  0.00    +0.000 C 
BRANCH   8  11
ATOM      9  O   UNL     1       7.543   8.114  17.019  0.00  0.00    +0.000 OA
ATOM     10  C   UNL     1       8.184   8.347  18.039  0.00  0.00    +0.000 C 
ATOM     11  N   UNL     1       8.532   7.382  18.964  0.00  0.00    +0.000 N 
ATOM     12  H   UNL     1       8.767   7.683  19.899  0.00  0.00    +0.000 HD
BRANCH  10  13
ATOM     13  C   UNL     1       8.599   9.734  18.364  0.00  0.00    +0.000 A 
ATOM     14  C   UNL     1       9.287   9.964  19.561  0.00  0.00    +0.000 A 
ATOM     15  C   UNL     1       9.692  11.256  19.894  0.00  0.00    +0.000 A 
ATOM     16  C   UNL     1       9.403  12.319  19.038  0.00  0.00    +0.000 A 
ATOM     17  C   UNL     1       8.702  12.096  17.852  0.00  0.00    +0.000 A 
ATOM     18  C   UNL     1       8.294  10.806  17.516  0.00  0.00    +0.000 A 
ENDBRANCH  10  13
ENDBRANCH   8  11
ENDBRANCH   7   8
ENDBRANCH   1   7
BRANCH   4  19
ATOM     19  C   UNL     1       3.313   2.754  17.685  0.00  0.00    +0.000 C 
BRANCH  19  20
ATOM     20  C   UNL     1       2.637   2.824  19.035  0.00  0.00    +0.000 A 
ATOM     21  C   UNL     1       1.271   3.132  19.126  0.00  0.00    +0.000 A 
ATOM     22  C   UNL     1       0.626   3.155  20.364  0.00  0.00    +0.000 A 
ATOM     23  C   UNL     1       1.339   2.870  21.525  0.00  0.00    +0.000 A 
ATOM     24  C   UNL     1       2.698   2.570  21.450  0.00  0.00    +0.000 A 
ATOM     25  C   UNL     1       3.344   2.546  20.212  0.00  0.00    +0.000 A 
ENDBRANCH  19  20
ENDBRANCH   4  19
TORSDOF 6
ENDMDL
MODEL 8
REMARK VINA RESULT:      -7.8      1.356      1.984
REMARK  Name = 
REMARK  6 active torsions:
REMARK  status: ('A' for Active; 'I' for Inactive)
REMARK    1  A    between atoms: C_2  and  C_19
REMARK    2  A    between atoms: N_3  and  C_4
REMARK    3  A    between atoms: C_4  and  C_5
REMARK    4  A    between atoms: C_5  and  N_6
REMARK    5  A    between atoms: C_9  and  C_10
REMARK    6  A    between atoms: C_10  and  C_11
REMARK                            x       y       z     vdW  Elec       q    Type
REMARK                         _______ _______ _______ _____ _____    ______ ____
ROOT
ATOM      1  N   UNL     1       7.415   7.298  17.253  0.00  0.00    +0.000 NA
ATOM      2  C   UNL     1       7.778   6.520  18.450  0.00  0.00    +0.000 C 
ATOM      3  C   UNL     1       7.655   5.023  18.185  0.00  0.00    +0.000 C 
ATOM      4  C   UNL     1       6.230   4.634  17.781  0.00  0.00    +0.000 C 
ATOM      5  C   UNL     1       5.832   5.494  16.569  0.00  0.00    +0.000 C 
ATOM      6  C   UNL     1       6.043   6.994  16.813  0.00  0.00    +0.000 C 
ENDROOT
BRANCH   1   7
ATOM      7  C   UNL     1       7.538   8.749  17.512  0.00  0.00    +0.000 C 
BRANCH   7   8
ATOM      8  C   UNL     1       8.545   9.095  18.628  0.00  0.00    +0.000 C 
BRANCH   8  11
ATOM      9  O   UNL     1       9.686  10.762  20.581  0.00  0.00    +0.000 OA
ATOM     10  C   UNL     1       9.850  11.031  19.395  0.00  0.00    +0.000 C 
ATOM     11  N   UNL     1       9.302  10.300  18.360  0.00  0.00    +0.000 N 
ATOM     12  H   UNL     1       9.725  10.380  17.445  0.00  0.00    +0.000 HD
BRANCH  10  13
ATOM     13  C   UNL     1      10.709  12.175  18.997  0.00  0.00    +0.000 A 
ATOM     14  C   UNL     1      11.213  12.209  17.692  0.00  0.00    +0.000 A 
ATOM     15  C   UNL     1      12.022  13.270  17.287  0.00  0.00    +0.000 A 
ATOM     16  C   UNL     1      12.333  14.291  18.185  0.00  0.00    +0.000 A 
ATOM     17  C   UNL     1      11.846  14.251  19.492  0.00  0.00    +0.000 A 
ATOM     18  C   UNL     1      11.038  13.191  19.901  0.00  0.00    +0.000 A 
ENDBRANCH  10  13
ENDBRANCH   8  11
ENDBRANCH   7   8
ENDBRANCH   1   7
BRANCH   4  19
ATOM     19  C   UNL     1       5.203   4.787  18.927  0.00  0.00    +0.000 C 
BRANCH  19  20
ATOM     20  C   UNL     1       3.874   4.102  18.706  0.00  0.00    +0.000 A 
ATOM     21  C   UNL     1       3.827   2.818  18.142  0.00  0.00    +0.000 A 
ATOM     22  C   UNL     1       2.608   2.158  17.974  0.00  0.00    +0.000 A 
ATOM     23  C   UNL     1       1.423   2.773  18.370  0.00  0.00    +0.000 A 
ATOM     24  C   UNL     1       1.455   4.051  18.925  0.00  0.00    +0.000 A 
ATOM     25  C   UNL     1       2.674   4.713  19.094  0.00  0.00    +0.000 A 
ENDBRANCH  19  20
ENDBRANCH   4  19
TORSDOF 6
ENDMDL
MODEL 9
REMARK VINA RESULT:      -7.7      1.035      1.646
REMARK  Name = 
REMARK  6 active torsions:
REMARK  status: ('A' for Active; 'I' for Inactive)
REMARK    1  A    between atoms: C_2  and  C_19
REMARK    2  A    between atoms: N_3  and  C_4
REMARK    3  A    between atoms: C_4  and  C_5
REMARK    4  A    between atoms: C_5  and  N_6
REMARK    5  A    between atoms: C_9  and  C_10
REMARK    6  A    between atoms: C_10  and  C_11
REMARK                            x       y       z     vdW  Elec       q    Type
REMARK                         _______ _______ _______ _____ _____    ______ ____
ROOT
ATOM      1  N   UNL     1       7.419   6.353  17.934  0.00  0.00    +0.000 NA
ATOM      2  C   UNL     1       6.632   5.472  18.816  0.00  0.00    +0.000 C 
ATOM      3  C   UNL     1       5.768   4.516  18.001  0.00  0.00    +0.000 C 
ATOM      4  C   UNL     1       4.794   5.267  17.090  0.00  0.00    +0.000 C 
ATOM      5  C   UNL     1       5.614   6.232  16.214  0.00  0.00    +0.000 C 
ATOM      6  C   UNL     1       6.546   7.131  17.038  0.00  0.00    +0.000 C 
ENDROOT
BRANCH   1   7
ATOM      7  C   UNL     1       8.256   7.278  18.728  0.00  0.00    +0.000 C 
BRANCH   7   8
ATOM      8  C   UNL     1       8.384   8.684  18.108  0.00  0.00    +0.000 C 
BRANCH   8  11
ATOM      9  O   UNL     1      10.016  10.920  17.625  0.00  0.00    +0.000 OA
ATOM     10  C   UNL     1       9.494  10.787  18.728  0.00  0.00    +0.000 C 
ATOM     11  N   UNL     1       8.706   9.709  19.079  0.00  0.00    +0.000 N 
ATOM     12  H   UNL     1       8.071   9.818  19.857  0.00  0.00    +0.000 HD
BRANCH  10  13
ATOM     13  C   UNL     1       9.655  11.836  19.765  0.00  0.00    +0.000 A 
ATOM     14  C   UNL     1       9.135  11.600  21.042  0.00  0.00    +0.000 A 
ATOM     15  C   UNL     1       9.271  12.565  22.040  0.00  0.00    +0.000 A 
ATOM     16  C   UNL     1       9.919  13.768  21.760  0.00  0.00    +0.000 A 
ATOM     17  C   UNL     1      10.423  14.015  20.482  0.00  0.00    +0.000 A 
ATOM     18  C   UNL     1      10.288  13.053  19.482  0.00  0.00    +0.000 A 
ENDBRANCH  10  13
ENDBRANCH   8  11
ENDBRANCH   7   8
ENDBRANCH   1   7
BRANCH   4  19
ATOM     19  C   UNL     1       3.691   6.027  17.864  0.00  0.00    +0.000 C 
BRANCH  19  20
ATOM     20  C   UNL     1       2.763   5.164  18.688  0.00  0.00    +0.000 A 
ATOM     21  C   UNL     1       2.665   5.357  20.074  0.00  0.00    +0.000 A 
ATOM     22  C   UNL     1       1.778   4.596  20.838  0.00  0.00    +0.000 A 
ATOM     23  C   UNL     1       0.977   3.636  20.225  0.00  0.00    +0.000 A 
ATOM     24  C   UNL     1       1.070   3.430  18.849  0.00  0.00    +0.000 A 
ATOM     25  C   UNL     1       1.957   4.190  18.084  0.00  0.00    +0.000 A 
ENDBRANCH  19  20
ENDBRANCH   4  19
TORSDOF 6
ENDMDL
