MODEL 1
REMARK VINA RESULT:      -8.8      0.000      0.000
REMARK  Name = 
REMARK  8 active torsions:
REMARK  status: ('A' for Active; 'I' for Inactive)
REMARK    1  A    between atoms: C_8  and  O_9
REMARK    2  A    between atoms: O_9  and  C_10
REMARK    3  A    between atoms: C_10  and  C_11
REMARK    4  A    between atoms: C_11  and  C_12
REMARK    5  A    between atoms: C_12  and  N_13
REMARK    6  A    between atoms: N_16  and  C_17
REMARK    7  A    between atoms: N_27  and  C_28
REMARK    8  A    between atoms: C_28  and  C_29
REMARK                            x       y       z     vdW  Elec       q    Type
REMARK                         _______ _______ _______ _____ _____    ______ ____
ROOT
ATOM      1  O   UNL     1       3.841   2.148  18.237  0.00  0.00    +0.000 OA
ATOM      2  C   UNL     1       3.213   3.124  18.651  0.00  0.00    +0.000 C 
ATOM      3  C   UNL     1       2.014   2.929  19.545  0.00  0.00    +0.000 C 
ATOM      4  C   UNL     1       2.024   3.950  20.657  0.00  0.00    +0.000 C 
ATOM      5  C   UNL     1       2.076   5.329  20.061  0.00  0.00    +0.000 A 
ATOM      6  C   UNL     1       1.472   6.396  20.732  0.00  0.00    +0.000 A 
ATOM      7  C   UNL     1       1.527   7.677  20.199  0.00  0.00    +0.000 A 
ATOM      8  C   UNL     1       2.180   7.900  18.988  0.00  0.00    +0.000 A 
ATOM      9  C   UNL     1       2.839   6.844  18.347  0.00  0.00    +0.000 A 
ATOM     10  C   UNL     1       2.796   5.544  18.871  0.00  0.00    +0.000 A 
ATOM     11  N   UNL     1       3.463   4.440  18.255  0.00  0.00    +0.000 N 
ENDROOT
BRANCH   8  12
ATOM     12  O   UNL     1       2.262   9.119  18.368  0.00  0.00    +0.000 OA
BRANCH  12  13
ATOM     13  C   UNL     1       1.036   9.865  18.361  0.00  0.00    +0.000 C 
BRANCH  13  14
ATOM     14  C   UNL     1       1.257  11.148  19.156  0.00  0.00    +0.000 C 
BRANCH  14  15
ATOM     15  C   UNL     1      -0.019  11.659  19.840  0.00  0.00    +0.000 C 
BRANCH  15  16
ATOM     16  N   UNL     1      -0.710  12.758  19.142  0.00  0.00    +0.000 NA
ATOM     17  C   UNL     1      -1.577  12.293  18.033  0.00  0.00    +0.000 C 
ATOM     18  C   UNL     1      -2.788  11.475  18.503  0.00  0.00    +0.000 C 
ATOM     19  N   UNL     1      -3.612  12.325  19.371  0.00  0.00    +0.000 N 
ATOM     20  C   UNL     1      -2.908  12.883  20.535  0.00  0.00    +0.000 C 
ATOM     21  C   UNL     1      -1.564  13.544  20.083  0.00  0.00    +0.000 C 
BRANCH  19  22
ATOM     22  C   UNL     1      -4.950  11.962  19.470  0.00  0.00    +0.000 A 
ATOM     23  C   UNL     1      -5.757  12.348  20.551  0.00  0.00    +0.000 A 
ATOM     24  C   UNL     1      -6.977  11.718  20.801  0.00  0.00    +0.000 A 
ATOM     25  C   UNL     1      -7.422  10.707  19.954  0.00  0.00    +0.000 A 
ATOM     26  C   UNL     1      -6.676  10.375  18.827  0.00  0.00    +0.000 A 
ATOM     27  C   UNL     1      -5.459  11.013  18.577  0.00  0.00    +0.000 A 
ENDBRANCH  19  22
ENDBRANCH  15  16
ENDBRANCH  14  15
ENDBRANCH  13  14
ENDBRANCH  12  13
ENDBRANCH   8  12
BRANCH  11  28
ATOM     28  C   UNL     1       4.495   4.660  17.242  0.00  0.00    +0.000 C 
BRANCH  28  29
ATOM     29  C   UNL     1       5.700   5.455  17.708  0.00  0.00    +0.000 A 
ATOM     30  C   UNL     1       6.393   5.040  18.857  0.00  0.00    +0.000 A 
ATOM     31  C   UNL     1       7.551   5.701  19.271  0.00  0.00    +0.000 A 
ATOM     32  C   UNL     1       8.036   6.783  18.541  0.00  0.00    +0.000 A 
ATOM     33  C   UNL     1       7.364   7.203  17.396  0.00  0.00    +0.000 A 
ATOM     34  C   UNL     1       6.209   6.540  16.977  0.00  0.00    +0.000 A 
ENDBRANCH  28  29
ENDBRANCH  11  28
TORSDOF 8
ENDMDL
MODEL 2
REMARK VINA RESULT:      -8.7      2.394      2.762
REMARK  Name = 
REMARK  8 active torsions:
REMARK  status: ('A' for Active; 'I' for Inactive)
REMARK    1  A    between atoms: C_8  and  O_9
REMARK    2  A    between atoms: O_9  and  C_10
REMARK    3  A    between atoms: C_10  and  C_11
REMARK    4  A    between atoms: C_11  and  C_12
REMARK    5  A    between atoms: C_12  and  N_13
REMARK    6  A    between atoms: N_16  and  C_17
REMARK    7  A    between atoms: N_27  and  C_28
REMARK    8  A    between atoms: C_28  and  C_29
REMARK                            x       y       z     vdW  Elec       q    Type
REMARK                         _______ _______ _______ _____ _____    ______ ____
ROOT
ATOM      1  O   UNL     1       2.427   1.643  18.668  0.00  0.00    +0.000 OA
ATOM      2  C   UNL     1       2.169   2.804  18.991  0.00  0.00    +0.000 C 
ATOM      3  C   UNL     1       1.320   3.081  20.206  0.00  0.00    +0.000 C 
ATOM      4  C   UNL     1       1.891   4.241  20.985  0.00  0.00    +0.000 C 
ATOM      5  C   UNL     1       2.004   5.435  20.081  0.00  0.00    +0.000 A 
ATOM      6  C   UNL     1       1.871   6.721  20.613  0.00  0.00    +0.000 A 
ATOM      7  C   UNL     1       1.989   7.834  19.790  0.00  0.00    +0.000 A 
ATOM      8  C   UNL     1       2.235   7.668  18.428  0.00  0.00    +0.000 A 
ATOM      9  C   UNL     1       2.430   6.385  17.905  0.00  0.00    +0.000 A 
ATOM     10  C   UNL     1       2.317   5.250  18.721  0.00  0.00    +0.000 A 
ATOM     11  N   UNL     1       2.519   3.923  18.231  0.00  0.00    +0.000 N 
ENDROOT
BRANCH   8  12
ATOM     12  O   UNL     1       2.337   8.700  17.532  0.00  0.00    +0.000 OA
BRANCH  12  13
ATOM     13  C   UNL     1       1.767   9.938  17.982  0.00  0.00    +0.000 C 
BRANCH  13  14
ATOM     14  C   UNL     1       0.249   9.827  17.874  0.00  0.00    +0.000 C 
BRANCH  14  15
ATOM     15  C   UNL     1      -0.482  10.343  19.122  0.00  0.00    +0.000 C 
BRANCH  15  16
ATOM     16  N   UNL     1       0.244  11.362  19.901  0.00  0.00    +0.000 NA
ATOM     17  C   UNL     1      -0.362  12.712  19.807  0.00  0.00    +0.000 C 
ATOM     18  C   UNL     1      -1.745  12.811  20.467  0.00  0.00    +0.000 C 
ATOM     19  N   UNL     1      -1.600  12.498  21.894  0.00  0.00    +0.000 N 
ATOM     20  C   UNL     1      -1.007  11.183  22.180  0.00  0.00    +0.000 C 
ATOM     21  C   UNL     1       0.305  10.995  21.348  0.00  0.00    +0.000 C 
BRANCH  19  22
ATOM     22  C   UNL     1      -2.587  13.015  22.723  0.00  0.00    +0.000 A 
ATOM     23  C   UNL     1      -3.204  12.253  23.727  0.00  0.00    +0.000 A 
ATOM     24  C   UNL     1      -4.397  12.670  24.320  0.00  0.00    +0.000 A 
ATOM     25  C   UNL     1      -4.978  13.875  23.935  0.00  0.00    +0.000 A 
ATOM     26  C   UNL     1      -4.332  14.686  23.007  0.00  0.00    +0.000 A 
ATOM     27  C   UNL     1      -3.135  14.267  22.420  0.00  0.00    +0.000 A 
ENDBRANCH  19  22
ENDBRANCH  15  16
ENDBRANCH  14  15
ENDBRANCH  13  14
ENDBRANCH  12  13
ENDBRANCH   8  12
BRANCH  11  28
ATOM     28  C   UNL     1       3.180   3.691  16.947  0.00  0.00    +0.000 C 
BRANCH  28  29
ATOM     29  C   UNL     1       4.642   4.088  16.891  0.00  0.00    +0.000 A 
ATOM     30  C   UNL     1       5.341   4.304  18.090  0.00  0.00    +0.000 A 
ATOM     31  C   UNL     1       6.707   4.596  18.080  0.00  0.00    +0.000 A 
ATOM     32  C   UNL     1       7.396   4.670  16.871  0.00  0.00    +0.000 A 
ATOM     33  C   UNL     1       6.719   4.453  15.674  0.00  0.00    +0.000 A 
ATOM     34  C   UNL     1       5.354   4.157  15.683  0.00  0.00    +0.000 A 
ENDBRANCH  28  29
ENDBRANCH  11  28
TORSDOF 8
ENDMDL
MODEL 3
REMARK VINA RESULT:      -8.5      1.872      2.635
REMARK  Name = 
REMARK  8 active torsions:
REMARK  status: ('A' for Active; 'I' for Inactive)
REMARK    1  A    between atoms: C_8  and  O_9
REMARK    2  A    between atoms: O_9  and  C_10
REMARK    3  A    between atoms: C_10  and  C_11
REMARK    4  A    between atoms: C_11  and  C_12
REMARK    5  A    between atoms: C_12  and  N_13
REMARK    6  A    between atoms: N_16  and  C_17
REMARK    7  A    between atoms: N_27  and  C_28
REMARK    8  A    between atoms: C_28  and  C_29
REMARK                            x       y       z     vdW  Elec       q    Type
REMARK                         _______ _______ _______ _____ _____    ______ ____
ROOT
ATOM      1  O   UNL     1       2.831   1.591  18.878  0.00  0.00    +0.000 OA
ATOM      2  C   UNL     1       2.482   2.726  19.206  0.00  0.00    +0.000 C 
ATOM      3  C   UNL     1       1.651   2.935  20.446  0.00  0.00    +0.000 C 
ATOM      4  C   UNL     1       2.142   4.145  21.203  0.00  0.00    +0.000 C 
ATOM      5  C   UNL     1       2.120   5.340  20.293  0.00  0.00    +0.000 A 
ATOM      6  C   UNL     1       1.891   6.611  20.825  0.00  0.00    +0.000 A 
ATOM      7  C   UNL     1       1.885   7.726  19.996  0.00  0.00    +0.000 A 
ATOM      8  C   UNL     1       2.101   7.575  18.627  0.00  0.00    +0.000 A 
ATOM      9  C   UNL     1       2.392   6.311  18.102  0.00  0.00    +0.000 A 
ATOM     10  C   UNL     1       2.405   5.175  18.924  0.00  0.00    +0.000 A 
ATOM     11  N   UNL     1       2.708   3.868  18.432  0.00  0.00    +0.000 N 
ENDROOT
BRANCH   8  12
ATOM     12  O   UNL     1       2.083   8.607  17.725  0.00  0.00    +0.000 OA
BRANCH  12  13
ATOM     13  C   UNL     1       1.647   9.862  18.266  0.00  0.00    +0.000 C 
BRANCH  13  14
ATOM     14  C   UNL     1       0.141   9.974  18.052  0.00  0.00    +0.000 C 
BRANCH  14  15
ATOM     15  C   UNL     1      -0.615  10.414  19.314  0.00  0.00    +0.000 C 
BRANCH  15  16
ATOM     16  N   UNL     1      -0.198  11.710  19.878  0.00  0.00    +0.000 NA
ATOM     17  C   UNL     1      -1.125  12.818  19.548  0.00  0.00    +0.000 C 
ATOM     18  C   UNL     1      -2.507  12.678  20.203  0.00  0.00    +0.000 C 
ATOM     19  N   UNL     1      -2.330  12.679  21.661  0.00  0.00    +0.000 N 
ATOM     20  C   UNL     1      -1.430  11.636  22.173  0.00  0.00    +0.000 C 
ATOM     21  C   UNL     1      -0.088  11.642  21.367  0.00  0.00    +0.000 C 
BRANCH  19  22
ATOM     22  C   UNL     1      -3.441  13.068  22.398  0.00  0.00    +0.000 A 
ATOM     23  C   UNL     1      -4.753  12.789  21.988  0.00  0.00    +0.000 A 
ATOM     24  C   UNL     1      -5.843  13.455  22.550  0.00  0.00    +0.000 A 
ATOM     25  C   UNL     1      -5.637  14.395  23.555  0.00  0.00    +0.000 A 
ATOM     26  C   UNL     1      -4.350  14.619  24.037  0.00  0.00    +0.000 A 
ATOM     27  C   UNL     1      -3.263  13.944  23.474  0.00  0.00    +0.000 A 
ENDBRANCH  19  22
ENDBRANCH  15  16
ENDBRANCH  14  15
ENDBRANCH  13  14
ENDBRANCH  12  13
ENDBRANCH   8  12
BRANCH  11  28
ATOM     28  C   UNL     1       3.346   3.688  17.127  0.00  0.00    +0.000 C 
BRANCH  28  29
ATOM     29  C   UNL     1       4.831   3.993  17.086  0.00  0.00    +0.000 A 
ATOM     30  C   UNL     1       5.494   4.006  15.848  0.00  0.00    +0.000 A 
ATOM     31  C   UNL     1       6.843   4.358  15.762  0.00  0.00    +0.000 A 
ATOM     32  C   UNL     1       7.547   4.708  16.912  0.00  0.00    +0.000 A 
ATOM     33  C   UNL     1       6.902   4.706  18.146  0.00  0.00    +0.000 A 
ATOM     34  C   UNL     1       5.552   4.359  18.233  0.00  0.00    +0.000 A 
ENDBRANCH  28  29
ENDBRANCH  11  28
TORSDOF 8
ENDMDL
MODEL 4
REMARK VINA RESULT:      -8.5      5.278      9.881
REMARK  Name = 
REMARK  8 active torsions:
REMARK  status: ('A' for Active; 'I' for Inactive)
REMARK    1  A    between atoms: C_8  and  O_9
REMARK    2  A    between atoms: O_9  and  C_10
REMARK    3  A    between atoms: C_10  and  C_11
REMARK    4  A    between atoms: C_11  and  C_12
REMARK    5  A    between atoms: C_12  and  N_13
REMARK    6  A    between atoms: N_16  and  C_17
REMARK    7  A    between atoms: N_27  and  C_28
REMARK    8  A    between atoms: C_28  and  C_29
REMARK                            x       y       z     vdW  Elec       q    Type
REMARK                         _______ _______ _______ _____ _____    ______ ____
ROOT
ATOM      1  O   UNL     1       1.320   4.278  19.824  0.00  0.00    +0.000 OA
ATOM      2  C   UNL     1       2.274   4.222  19.046  0.00  0.00    +0.000 C 
ATOM      3  C   UNL     1       2.480   2.999  18.188  0.00  0.00    +0.000 C 
ATOM      4  C   UNL     1       2.887   3.407  16.793  0.00  0.00    +0.000 C 
ATOM      5  C   UNL     1       4.116   4.268  16.868  0.00  0.00    +0.000 A 
ATOM      6  C   UNL     1       5.041   4.247  15.820  0.00  0.00    +0.000 A 
ATOM      7  C   UNL     1       6.173   5.050  15.871  0.00  0.00    +0.000 A 
ATOM      8  C   UNL     1       6.392   5.875  16.973  0.00  0.00    +0.000 A 
ATOM      9  C   UNL     1       5.436   5.943  17.993  0.00  0.00    +0.000 A 
ATOM     10  C   UNL     1       4.286   5.142  17.958  0.00  0.00    +0.000 A 
ATOM     11  N   UNL     1       3.281   5.188  18.973  0.00  0.00    +0.000 N 
ENDROOT
BRANCH   8  12
ATOM     12  O   UNL     1       7.491   6.678  17.129  0.00  0.00    +0.000 OA
BRANCH  12  13
ATOM     13  C   UNL     1       7.202   7.991  17.631  0.00  0.00    +0.000 C 
BRANCH  13  14
ATOM     14  C   UNL     1       8.458   8.524  18.313  0.00  0.00    +0.000 C 
BRANCH  14  15
ATOM     15  C   UNL     1       8.571  10.054  18.256  0.00  0.00    +0.000 C 
BRANCH  15  16
ATOM     16  N   UNL     1       9.692  10.632  19.018  0.00  0.00    +0.000 NA
ATOM     17  C   UNL     1      10.745  11.220  18.156  0.00  0.00    +0.000 C 
ATOM     18  C   UNL     1      10.281  12.464  17.385  0.00  0.00    +0.000 C 
ATOM     19  N   UNL     1       9.891  13.493  18.357  0.00  0.00    +0.000 N 
ATOM     20  C   UNL     1       8.847  13.079  19.306  0.00  0.00    +0.000 C 
ATOM     21  C   UNL     1       9.220  11.702  19.948  0.00  0.00    +0.000 C 
BRANCH  19  22
ATOM     22  C   UNL     1       9.938  14.802  17.895  0.00  0.00    +0.000 A 
ATOM     23  C   UNL     1      11.045  15.318  17.203  0.00  0.00    +0.000 A 
ATOM     24  C   UNL     1      11.216  16.693  17.039  0.00  0.00    +0.000 A 
ATOM     25  C   UNL     1      10.265  17.575  17.541  0.00  0.00    +0.000 A 
ATOM     26  C   UNL     1       9.117  17.077  18.151  0.00  0.00    +0.000 A 
ATOM     27  C   UNL     1       8.947  15.699  18.308  0.00  0.00    +0.000 A 
ENDBRANCH  19  22
ENDBRANCH  15  16
ENDBRANCH  14  15
ENDBRANCH  13  14
ENDBRANCH  12  13
ENDBRANCH   8  12
BRANCH  11  28
ATOM     28  C   UNL     1       3.224   6.301  19.920  0.00  0.00    +0.000 C 
BRANCH  28  29
ATOM     29  C   UNL     1       2.412   7.498  19.464  0.00  0.00    +0.000 A 
ATOM     30  C   UNL     1       2.413   7.850  18.104  0.00  0.00    +0.000 A 
ATOM     31  C   UNL     1       1.618   8.899  17.636  0.00  0.00    +0.000 A 
ATOM     32  C   UNL     1       0.806   9.606  18.519  0.00  0.00    +0.000 A 
ATOM     33  C   UNL     1       0.788   9.266  19.869  0.00  0.00    +0.000 A 
ATOM     34  C   UNL     1       1.579   8.215  20.338  0.00  0.00    +0.000 A 
ENDBRANCH  28  29
ENDBRANCH  11  28
TORSDOF 8
ENDMDL
MODEL 5
REMARK VINA RESULT:      -8.4      2.772     10.782
REMARK  Name = 
REMARK  8 active torsions:
REMARK  status: ('A' for Active; 'I' for Inactive)
REMARK    1  A    between atoms: C_8  and  O_9
REMARK    2  A    between atoms: O_9  and  C_10
REMARK    3  A    between atoms: C_10  and  C_11
REMARK    4  A    between atoms: C_11  and  C_12
REMARK    5  A    between atoms: C_12  and  N_13
REMARK    6  A    between atoms: N_16  and  C_17
REMARK    7  A    between atoms: N_27  and  C_28
REMARK    8  A    between atoms: C_28  and  C_29
REMARK                            x       y       z     vdW  Elec       q    Type
REMARK                         _______ _______ _______ _____ _____    ______ ____
ROOT
ATOM      1  O   UNL     1      -1.932  13.773  20.519  0.00  0.00    +0.000 OA
ATOM      2  C   UNL     1      -1.316  12.801  20.957  0.00  0.00    +0.000 C 
ATOM      3  C   UNL     1      -1.076  12.662  22.439  0.00  0.00    +0.000 C 
ATOM      4  C   UNL     1      -1.286  11.230  22.867  0.00  0.00    +0.000 C 
ATOM      5  C   UNL     1      -0.393  10.335  22.056  0.00  0.00    +0.000 A 
ATOM      6  C   UNL     1       0.099   9.154  22.618  0.00  0.00    +0.000 A 
ATOM      7  C   UNL     1       0.913   8.311  21.873  0.00  0.00    +0.000 A 
ATOM      8  C   UNL     1       1.247   8.647  20.562  0.00  0.00    +0.000 A 
ATOM      9  C   UNL     1       0.706   9.797  19.978  0.00  0.00    +0.000 A 
ATOM     10  C   UNL     1      -0.119  10.659  20.714  0.00  0.00    +0.000 A 
ATOM     11  N   UNL     1      -0.701  11.838  20.153  0.00  0.00    +0.000 N 
ENDROOT
BRANCH   8  12
ATOM     12  O   UNL     1       2.067   7.897  19.759  0.00  0.00    +0.000 OA
BRANCH  12  13
ATOM     13  C   UNL     1       2.149   6.511  20.121  0.00  0.00    +0.000 C 
BRANCH  13  14
ATOM     14  C   UNL     1       2.632   5.731  18.903  0.00  0.00    +0.000 C 
BRANCH  14  15
ATOM     15  C   UNL     1       4.006   6.194  18.398  0.00  0.00    +0.000 C 
BRANCH  15  16
ATOM     16  N   UNL     1       5.099   5.219  18.566  0.00  0.00    +0.000 NA
ATOM     17  C   UNL     1       4.883   3.961  17.813  0.00  0.00    +0.000 C 
ATOM     18  C   UNL     1       4.925   4.144  16.289  0.00  0.00    +0.000 C 
ATOM     19  N   UNL     1       6.253   4.649  15.919  0.00  0.00    +0.000 N 
ATOM     20  C   UNL     1       6.641   5.903  16.580  0.00  0.00    +0.000 C 
ATOM     21  C   UNL     1       6.407   5.791  18.123  0.00  0.00    +0.000 C 
BRANCH  19  22
ATOM     22  C   UNL     1       6.647   4.396  14.611  0.00  0.00    +0.000 A 
ATOM     23  C   UNL     1       7.553   5.218  13.925  0.00  0.00    +0.000 A 
ATOM     24  C   UNL     1       7.685   5.147  12.537  0.00  0.00    +0.000 A 
ATOM     25  C   UNL     1       6.928   4.230  11.816  0.00  0.00    +0.000 A 
ATOM     26  C   UNL     1       6.090   3.345  12.489  0.00  0.00    +0.000 A 
ATOM     27  C   UNL     1       5.967   3.416  13.879  0.00  0.00    +0.000 A 
ENDBRANCH  19  22
ENDBRANCH  15  16
ENDBRANCH  14  15
ENDBRANCH  13  14
ENDBRANCH  12  13
ENDBRANCH   8  12
BRANCH  11  28
ATOM     28  C   UNL     1      -0.747  12.034  18.704  0.00  0.00    +0.000 C 
BRANCH  28  29
ATOM     29  C   UNL     1      -1.923  11.385  18.000  0.00  0.00    +0.000 A 
ATOM     30  C   UNL     1      -1.719  10.199  17.275  0.00  0.00    +0.000 A 
ATOM     31  C   UNL     1      -2.791   9.532  16.678  0.00  0.00    +0.000 A 
ATOM     32  C   UNL     1      -4.083  10.037  16.802  0.00  0.00    +0.000 A 
ATOM     33  C   UNL     1      -4.303  11.209  17.522  0.00  0.00    +0.000 A 
ATOM     34  C   UNL     1      -3.232  11.874  18.123  0.00  0.00    +0.000 A 
ENDBRANCH  28  29
ENDBRANCH  11  28
TORSDOF 8
ENDMDL
MODEL 6
REMARK VINA RESULT:      -8.4      2.466      2.868
REMARK  Name = 
REMARK  8 active torsions:
REMARK  status: ('A' for Active; 'I' for Inactive)
REMARK    1  A    between atoms: C_8  and  O_9
REMARK    2  A    between atoms: O_9  and  C_10
REMARK    3  A    between atoms: C_10  and  C_11
REMARK    4  A    between atoms: C_11  and  C_12
REMARK    5  A    between atoms: C_12  and  N_13
REMARK    6  A    between atoms: N_16  and  C_17
REMARK    7  A    between atoms: N_27  and  C_28
REMARK    8  A    between atoms: C_28  and  C_29
REMARK                            x       y       z     vdW  Elec       q    Type
REMARK                         _______ _______ _______ _____ _____    ______ ____
ROOT
ATOM      1  O   UNL     1       3.585   2.240  18.286  0.00  0.00    +0.000 OA
ATOM      2  C   UNL     1       2.991   3.212  18.754  0.00  0.00    +0.000 C 
ATOM      3  C   UNL     1       1.841   3.011  19.708  0.00  0.00    +0.000 C 
ATOM      4  C   UNL     1       1.923   4.010  20.838  0.00  0.00    +0.000 C 
ATOM      5  C   UNL     1       1.957   5.399  20.268  0.00  0.00    +0.000 A 
ATOM      6  C   UNL     1       1.402   6.458  20.992  0.00  0.00    +0.000 A 
ATOM      7  C   UNL     1       1.441   7.749  20.482  0.00  0.00    +0.000 A 
ATOM      8  C   UNL     1       2.029   7.990  19.241  0.00  0.00    +0.000 A 
ATOM      9  C   UNL     1       2.640   6.942  18.544  0.00  0.00    +0.000 A 
ATOM     10  C   UNL     1       2.612   5.632  19.044  0.00  0.00    +0.000 A 
ATOM     11  N   UNL     1       3.232   4.534  18.370  0.00  0.00    +0.000 N 
ENDROOT
BRANCH   8  12
ATOM     12  O   UNL     1       2.089   9.221  18.642  0.00  0.00    +0.000 OA
BRANCH  12  13
ATOM     13  C   UNL     1       0.937   9.555  17.853  0.00  0.00    +0.000 C 
BRANCH  13  14
ATOM     14  C   UNL     1       0.086  10.537  18.651  0.00  0.00    +0.000 C 
BRANCH  14  15
ATOM     15  C   UNL     1       0.827  11.839  18.990  0.00  0.00    +0.000 C 
BRANCH  15  16
ATOM     16  N   UNL     1       1.322  11.939  20.374  0.00  0.00    +0.000 NA
ATOM     17  C   UNL     1       1.129  13.283  20.969  0.00  0.00    +0.000 C 
ATOM     18  C   UNL     1      -0.345  13.651  21.189  0.00  0.00    +0.000 C 
ATOM     19  N   UNL     1      -0.932  12.677  22.118  0.00  0.00    +0.000 N 
ATOM     20  C   UNL     1      -0.829  11.276  21.687  0.00  0.00    +0.000 C 
ATOM     21  C   UNL     1       0.642  10.950  21.265  0.00  0.00    +0.000 C 
BRANCH  19  22
ATOM     22  C   UNL     1      -2.050  13.115  22.816  0.00  0.00    +0.000 A 
ATOM     23  C   UNL     1      -2.213  14.449  23.219  0.00  0.00    +0.000 A 
ATOM     24  C   UNL     1      -3.158  14.801  24.183  0.00  0.00    +0.000 A 
ATOM     25  C   UNL     1      -3.976  13.824  24.742  0.00  0.00    +0.000 A 
ATOM     26  C   UNL     1      -3.890  12.511  24.289  0.00  0.00    +0.000 A 
ATOM     27  C   UNL     1      -2.946  12.164  23.318  0.00  0.00    +0.000 A 
ENDBRANCH  19  22
ENDBRANCH  15  16
ENDBRANCH  14  15
ENDBRANCH  13  14
ENDBRANCH  12  13
ENDBRANCH   8  12
BRANCH  11  28
ATOM     28  C   UNL     1       4.209   4.765  17.306  0.00  0.00    +0.000 C 
BRANCH  28  29
ATOM     29  C   UNL     1       5.479   5.473  17.736  0.00  0.00    +0.000 A 
ATOM     30  C   UNL     1       6.126   5.067  18.915  0.00  0.00    +0.000 A 
ATOM     31  C   UNL     1       7.338   5.644  19.301  0.00  0.00    +0.000 A 
ATOM     32  C   UNL     1       7.923   6.632  18.513  0.00  0.00    +0.000 A 
ATOM     33  C   UNL     1       7.298   7.041  17.338  0.00  0.00    +0.000 A 
ATOM     34  C   UNL     1       6.089   6.462  16.948  0.00  0.00    +0.000 A 
ENDBRANCH  28  29
ENDBRANCH  11  28
TORSDOF 8
ENDMDL
MODEL 7
REMARK VINA RESULT:      -8.3      2.640      9.300
REMARK  Name = 
REMARK  8 active torsions:
REMARK  status: ('A' for Active; 'I' for Inactive)
REMARK    1  A    between atoms: C_8  and  O_9
REMARK    2  A    between atoms: O_9  and  C_10
REMARK    3  A    between atoms: C_10  and  C_11
REMARK    4  A    between atoms: C_11  and  C_12
REMARK    5  A    between atoms: C_12  and  N_13
REMARK    6  A    between atoms: N_16  and  C_17
REMARK    7  A    between atoms: N_27  and  C_28
REMARK    8  A    between atoms: C_28  and  C_29
REMARK                            x       y       z     vdW  Elec       q    Type
REMARK                         _______ _______ _______ _____ _____    ______ ____
ROOT
ATOM      1  O   UNL     1      -0.893  11.715  21.565  0.00  0.00    +0.000 OA
ATOM      2  C   UNL     1      -0.141  10.782  21.280  0.00  0.00    +0.000 C 
ATOM      3  C   UNL     1       0.445   9.922  22.371  0.00  0.00    +0.000 C 
ATOM      4  C   UNL     1       0.417   8.470  21.960  0.00  0.00    +0.000 C 
ATOM      5  C   UNL     1       1.143   8.312  20.655  0.00  0.00    +0.000 A 
ATOM      6  C   UNL     1       1.813   7.118  20.376  0.00  0.00    +0.000 A 
ATOM      7  C   UNL     1       2.475   6.953  19.165  0.00  0.00    +0.000 A 
ATOM      8  C   UNL     1       2.476   7.985  18.228  0.00  0.00    +0.000 A 
ATOM      9  C   UNL     1       1.753   9.156  18.480  0.00  0.00    +0.000 A 
ATOM     10  C   UNL     1       1.078   9.339  19.695  0.00  0.00    +0.000 A 
ATOM     11  N   UNL     1       0.319  10.515  19.988  0.00  0.00    +0.000 N 
ENDROOT
BRANCH   8  12
ATOM     12  O   UNL     1       3.124   7.930  17.022  0.00  0.00    +0.000 OA
BRANCH  12  13
ATOM     13  C   UNL     1       4.550   7.799  17.118  0.00  0.00    +0.000 C 
BRANCH  13  14
ATOM     14  C   UNL     1       4.987   6.682  16.176  0.00  0.00    +0.000 C 
BRANCH  14  15
ATOM     15  C   UNL     1       6.341   6.068  16.559  0.00  0.00    +0.000 C 
BRANCH  15  16
ATOM     16  N   UNL     1       6.390   4.595  16.546  0.00  0.00    +0.000 NA
ATOM     17  C   UNL     1       6.567   4.004  17.894  0.00  0.00    +0.000 C 
ATOM     18  C   UNL     1       5.363   4.220  18.822  0.00  0.00    +0.000 C 
ATOM     19  N   UNL     1       4.191   3.576  18.216  0.00  0.00    +0.000 N 
ATOM     20  C   UNL     1       3.863   4.043  16.860  0.00  0.00    +0.000 C 
ATOM     21  C   UNL     1       5.143   4.017  15.960  0.00  0.00    +0.000 C 
BRANCH  19  22
ATOM     22  C   UNL     1       3.177   3.225  19.099  0.00  0.00    +0.000 A 
ATOM     23  C   UNL     1       1.820   3.419  18.803  0.00  0.00    +0.000 A 
ATOM     24  C   UNL     1       0.849   3.372  19.805  0.00  0.00    +0.000 A 
ATOM     25  C   UNL     1       1.221   3.100  21.118  0.00  0.00    +0.000 A 
ATOM     26  C   UNL     1       2.551   2.817  21.413  0.00  0.00    +0.000 A 
ATOM     27  C   UNL     1       3.518   2.859  20.405  0.00  0.00    +0.000 A 
ENDBRANCH  19  22
ENDBRANCH  15  16
ENDBRANCH  14  15
ENDBRANCH  13  14
ENDBRANCH  12  13
ENDBRANCH   8  12
BRANCH  11  28
ATOM     28  C   UNL     1      -0.073  11.438  18.923  0.00  0.00    +0.000 C 
BRANCH  28  29
ATOM     29  C   UNL     1      -1.328  11.053  18.163  0.00  0.00    +0.000 A 
ATOM     30  C   UNL     1      -1.730  11.831  17.064  0.00  0.00    +0.000 A 
ATOM     31  C   UNL     1      -2.836  11.463  16.294  0.00  0.00    +0.000 A 
ATOM     32  C   UNL     1      -3.552  10.311  16.607  0.00  0.00    +0.000 A 
ATOM     33  C   UNL     1      -3.162   9.526  17.690  0.00  0.00    +0.000 A 
ATOM     34  C   UNL     1      -2.054   9.889  18.458  0.00  0.00    +0.000 A 
ENDBRANCH  28  29
ENDBRANCH  11  28
TORSDOF 8
ENDMDL
MODEL 8
REMARK VINA RESULT:      -8.3      6.907     11.146
REMARK  Name = 
REMARK  8 active torsions:
REMARK  status: ('A' for Active; 'I' for Inactive)
REMARK    1  A    between atoms: C_8  and  O_9
REMARK    2  A    between atoms: O_9  and  C_10
REMARK    3  A    between atoms: C_10  and  C_11
REMARK    4  A    between atoms: C_11  and  C_12
REMARK    5  A    between atoms: C_12  and  N_13
REMARK    6  A    between atoms: N_16  and  C_17
REMARK    7  A    between atoms: N_27  and  C_28
REMARK    8  A    between atoms: C_28  and  C_29
REMARK                            x       y       z     vdW  Elec       q    Type
REMARK                         _______ _______ _______ _____ _____    ______ ____
ROOT
ATOM      1  O   UNL     1      10.612  15.923  21.793  0.00  0.00    +0.000 OA
ATOM      2  C   UNL     1      10.525  15.099  20.881  0.00  0.00    +0.000 C 
ATOM      3  C   UNL     1      10.808  15.510  19.459  0.00  0.00    +0.000 C 
ATOM      4  C   UNL     1      11.610  14.439  18.758  0.00  0.00    +0.000 C 
ATOM      5  C   UNL     1      10.870  13.135  18.840  0.00  0.00    +0.000 A 
ATOM      6  C   UNL     1      11.002  12.198  17.811  0.00  0.00    +0.000 A 
ATOM      7  C   UNL     1      10.335  10.982  17.883  0.00  0.00    +0.000 A 
ATOM      8  C   UNL     1       9.525  10.696  18.981  0.00  0.00    +0.000 A 
ATOM      9  C   UNL     1       9.441  11.607  20.040  0.00  0.00    +0.000 A 
ATOM     10  C   UNL     1      10.108  12.839  19.987  0.00  0.00    +0.000 A 
ATOM     11  N   UNL     1      10.058  13.792  21.050  0.00  0.00    +0.000 N 
ENDROOT
BRANCH   8  12
ATOM     12  O   UNL     1       8.805   9.540  19.128  0.00  0.00    +0.000 OA
BRANCH  12  13
ATOM     13  C   UNL     1       8.293   8.998  17.901  0.00  0.00    +0.000 C 
BRANCH  13  14
ATOM     14  C   UNL     1       7.918   7.541  18.148  0.00  0.00    +0.000 C 
BRANCH  14  15
ATOM     15  C   UNL     1       7.141   6.914  16.981  0.00  0.00    +0.000 C 
BRANCH  15  16
ATOM     16  N   UNL     1       7.418   5.487  16.736  0.00  0.00    +0.000 NA
ATOM     17  C   UNL     1       7.179   4.632  17.923  0.00  0.00    +0.000 C 
ATOM     18  C   UNL     1       5.702   4.548  18.332  0.00  0.00    +0.000 C 
ATOM     19  N   UNL     1       4.945   3.964  17.217  0.00  0.00    +0.000 N 
ATOM     20  C   UNL     1       5.067   4.688  15.943  0.00  0.00    +0.000 C 
ATOM     21  C   UNL     1       6.575   4.956  15.621  0.00  0.00    +0.000 C 
BRANCH  19  22
ATOM     22  C   UNL     1       3.747   3.352  17.562  0.00  0.00    +0.000 A 
ATOM     23  C   UNL     1       2.500   3.956  17.336  0.00  0.00    +0.000 A 
ATOM     24  C   UNL     1       1.348   3.492  17.971  0.00  0.00    +0.000 A 
ATOM     25  C   UNL     1       1.421   2.395  18.825  0.00  0.00    +0.000 A 
ATOM     26  C   UNL     1       2.632   1.730  18.991  0.00  0.00    +0.000 A 
ATOM     27  C   UNL     1       3.782   2.195  18.347  0.00  0.00    +0.000 A 
ENDBRANCH  19  22
ENDBRANCH  15  16
ENDBRANCH  14  15
ENDBRANCH  13  14
ENDBRANCH  12  13
ENDBRANCH   8  12
BRANCH  11  28
ATOM     28  C   UNL     1       9.591  13.405  22.382  0.00  0.00    +0.000 C 
BRANCH  28  29
ATOM     29  C   UNL     1       8.085  13.344  22.547  0.00  0.00    +0.000 A 
ATOM     30  C   UNL     1       7.515  12.271  23.253  0.00  0.00    +0.000 A 
ATOM     31  C   UNL     1       6.140  12.221  23.491  0.00  0.00    +0.000 A 
ATOM     32  C   UNL     1       5.315  13.245  23.032  0.00  0.00    +0.000 A 
ATOM     33  C   UNL     1       5.865  14.318  22.336  0.00  0.00    +0.000 A 
ATOM     34  C   UNL     1       7.241  14.372  22.101  0.00  0.00    +0.000 A 
ENDBRANCH  28  29
ENDBRANCH  11  28
TORSDOF 8
ENDMDL
MODEL 9
REMARK VINA RESULT:      -8.3      2.154      3.179
REMARK  Name = 
REMARK  8 active torsions:
REMARK  status: ('A' for Active; 'I' for Inactive)
REMARK    1  A    between atoms: C_8  and  O_9
REMARK    2  A    between atoms: O_9  and  C_10
REMARK    3  A    between atoms: C_10  and  C_11
REMARK    4  A    between atoms: C_11  and  C_12
REMARK    5  A    between atoms: C_12  and  N_13
REMARK    6  A    between atoms: N_16  and  C_17
REMARK    7  A    between atoms: N_27  and  C_28
REMARK    8  A    between atoms: C_28  and  C_29
REMARK                            x       y       z     vdW  Elec       q    Type
REMARK                         _______ _______ _______ _____ _____    ______ ____
ROOT
ATOM      1  O   UNL     1       3.065   1.615  18.555  0.00  0.00    +0.000 OA
ATOM      2  C   UNL     1       2.630   2.711  18.913  0.00  0.00    +0.000 C 
ATOM      3  C   UNL     1       1.477   2.788  19.881  0.00  0.00    +0.000 C 
ATOM      4  C   UNL     1       1.722   3.879  20.895  0.00  0.00    +0.000 C 
ATOM      5  C   UNL     1       1.954   5.178  20.176  0.00  0.00    +0.000 A 
ATOM      6  C   UNL     1       1.574   6.380  20.779  0.00  0.00    +0.000 A 
ATOM      7  C   UNL     1       1.797   7.588  20.131  0.00  0.00    +0.000 A 
ATOM      8  C   UNL     1       2.397   7.603  18.873  0.00  0.00    +0.000 A 
ATOM      9  C   UNL     1       2.835   6.406  18.296  0.00  0.00    +0.000 A 
ATOM     10  C   UNL     1       2.620   5.176  18.936  0.00  0.00    +0.000 A 
ATOM     11  N   UNL     1       3.060   3.932  18.387  0.00  0.00    +0.000 N 
ENDROOT
BRANCH   8  12
ATOM     12  O   UNL     1       2.631   8.739  18.144  0.00  0.00    +0.000 OA
BRANCH  12  13
ATOM     13  C   UNL     1       1.449   9.465  17.779  0.00  0.00    +0.000 C 
BRANCH  13  14
ATOM     14  C   UNL     1       1.423  10.762  18.582  0.00  0.00    +0.000 C 
BRANCH  14  15
ATOM     15  C   UNL     1       0.027  11.111  19.118  0.00  0.00    +0.000 C 
BRANCH  15  16
ATOM     16  N   UNL     1      -0.333  12.538  19.055  0.00  0.00    +0.000 NA
ATOM     17  C   UNL     1      -1.750  12.801  19.398  0.00  0.00    +0.000 C 
ATOM     18  C   UNL     1      -2.090  12.508  20.867  0.00  0.00    +0.000 C 
ATOM     19  N   UNL     1      -1.269  13.381  21.715  0.00  0.00    +0.000 N 
ATOM     20  C   UNL     1       0.181  13.257  21.506  0.00  0.00    +0.000 C 
ATOM     21  C   UNL     1       0.514  13.352  19.980  0.00  0.00    +0.000 C 
BRANCH  19  22
ATOM     22  C   UNL     1      -1.774  13.630  22.985  0.00  0.00    +0.000 A 
ATOM     23  C   UNL     1      -2.957  13.040  23.454  0.00  0.00    +0.000 A 
ATOM     24  C   UNL     1      -3.617  13.540  24.578  0.00  0.00    +0.000 A 
ATOM     25  C   UNL     1      -3.085  14.625  25.268  0.00  0.00    +0.000 A 
ATOM     26  C   UNL     1      -1.865  15.165  24.870  0.00  0.00    +0.000 A 
ATOM     27  C   UNL     1      -1.206  14.657  23.747  0.00  0.00    +0.000 A 
ENDBRANCH  19  22
ENDBRANCH  15  16
ENDBRANCH  14  15
ENDBRANCH  13  14
ENDBRANCH  12  13
ENDBRANCH   8  12
BRANCH  11  28
ATOM     28  C   UNL     1       4.045   3.897  17.307  0.00  0.00    +0.000 C 
BRANCH  28  29
ATOM     29  C   UNL     1       5.318   4.680  17.566  0.00  0.00    +0.000 A 
ATOM     30  C   UNL     1       5.856   5.474  16.539  0.00  0.00    +0.000 A 
ATOM     31  C   UNL     1       6.982   6.268  16.764  0.00  0.00    +0.000 A 
ATOM     32  C   UNL     1       7.583   6.286  18.021  0.00  0.00    +0.000 A 
ATOM     33  C   UNL     1       7.058   5.510  19.051  0.00  0.00    +0.000 A 
ATOM     34  C   UNL     1       5.929   4.719  18.828  0.00  0.00    +0.000 A 
ENDBRANCH  28  29
ENDBRANCH  11  28
TORSDOF 8
ENDMDL
