MODEL 1
REMARK VINA RESULT:      -7.6      0.000      0.000
REMARK  Name = 
REMARK  4 active torsions:
REMARK  status: ('A' for Active; 'I' for Inactive)
REMARK    1  A    between atoms: C_1  and  O_2
REMARK    2  A    between atoms: O_2  and  C_3
REMARK    3  A    between atoms: C_8  and  C_9
REMARK    4  A    between atoms: C_12  and  O_13
REMARK                            x       y       z     vdW  Elec       q    Type
REMARK                         _______ _______ _______ _____ _____    ______ ____
ROOT
ATOM      1  C   UNL     1       3.966   5.530  18.272  0.00  0.00    +0.000 A 
ATOM      2  C   UNL     1       3.755   4.470  19.189  0.00  0.00    +0.000 A 
ATOM      3  C   UNL     1       2.726   4.448  20.118  0.00  0.00    +0.000 A 
ATOM      4  C   UNL     1       1.982   5.576  20.362  0.00  0.00    +0.000 A 
ATOM      5  C   UNL     1       2.201   6.726  19.595  0.00  0.00    +0.000 A 
ATOM      6  C   UNL     1       1.516   7.912  19.933  0.00  0.00    +0.000 A 
ATOM      7  C   UNL     1       1.686   9.023  19.150  0.00  0.00    +0.000 A 
ATOM      8  C   UNL     1       2.414   8.962  17.997  0.00  0.00    +0.000 A 
ATOM      9  C   UNL     1       3.066   7.806  17.611  0.00  0.00    +0.000 A 
ATOM     10  C   UNL     1       3.105   6.678  18.465  0.00  0.00    +0.000 A 
ATOM     11  O   UNL     1       2.427  10.149  17.333  0.00  0.00    +0.000 OA
ATOM     12  C   UNL     1       1.675  10.977  18.245  0.00  0.00    +0.000 C 
ATOM     13  O   UNL     1       1.158  10.253  19.379  0.00  0.00    +0.000 OA
ATOM     14  C   UNL     1       2.581   3.093  20.678  0.00  0.00    +0.000 C 
ATOM     15  O   UNL     1       3.782   2.443  20.267  0.00  0.00    +0.000 OA
ATOM     16  C   UNL     1       4.523   3.227  19.430  0.00  0.00    +0.000 C 
ATOM     17  O   UNL     1       5.630   2.935  19.039  0.00  0.00    +0.000 OA
ENDROOT
BRANCH   1  23
ATOM     18  C   UNL     1       6.346   5.853  17.212  0.00  0.00    +0.000 A 
ATOM     19  C   UNL     1       7.253   5.544  16.175  0.00  0.00    +0.000 A 
ATOM     20  C   UNL     1       6.863   4.796  15.072  0.00  0.00    +0.000 A 
ATOM     21  C   UNL     1       5.550   4.376  14.978  0.00  0.00    +0.000 A 
ATOM     22  C   UNL     1       4.637   4.706  15.988  0.00  0.00    +0.000 A 
ATOM     23  C   UNL     1       5.002   5.395  17.173  0.00  0.00    +0.000 A 
BRANCH  18  25
ATOM     24  C   UNL     1       7.716   5.797  19.123  0.00  0.00    +0.000 C 
ATOM     25  O   UNL     1       6.815   6.555  18.302  0.00  0.00    +0.000 OA
ENDBRANCH  18  25
ENDBRANCH   1  23
BRANCH   4  26
ATOM     26  O   UNL     1       1.022   5.584  21.336  0.00  0.00    +0.000 OA
ATOM     27  H   UNL     1       1.433   5.575  22.216  0.00  0.00    +0.000 HD
ENDBRANCH   4  26
TORSDOF 3
ENDMDL
MODEL 2
REMARK VINA RESULT:      -6.9      8.098     10.712
REMARK  Name = 
REMARK  4 active torsions:
REMARK  status: ('A' for Active; 'I' for Inactive)
REMARK    1  A    between atoms: C_1  and  O_2
REMARK    2  A    between atoms: O_2  and  C_3
REMARK    3  A    between atoms: C_8  and  C_9
REMARK    4  A    between atoms: C_12  and  O_13
REMARK                            x       y       z     vdW  Elec       q    Type
REMARK                         _______ _______ _______ _____ _____    ______ ____
ROOT
ATOM      1  C   UNL     1       9.131  14.453  18.563  0.00  0.00    +0.000 A 
ATOM      2  C   UNL     1      10.164  15.185  17.928  0.00  0.00    +0.000 A 
ATOM      3  C   UNL     1      10.150  16.564  17.777  0.00  0.00    +0.000 A 
ATOM      4  C   UNL     1       9.009  17.282  18.030  0.00  0.00    +0.000 A 
ATOM      5  C   UNL     1       7.881  16.628  18.542  0.00  0.00    +0.000 A 
ATOM      6  C   UNL     1       6.679  17.352  18.686  0.00  0.00    +0.000 A 
ATOM      7  C   UNL     1       5.591  16.729  19.237  0.00  0.00    +0.000 A 
ATOM      8  C   UNL     1       5.690  15.466  19.745  0.00  0.00    +0.000 A 
ATOM      9  C   UNL     1       6.863  14.740  19.658  0.00  0.00    +0.000 A 
ATOM     10  C   UNL     1       7.969  15.235  18.927  0.00  0.00    +0.000 A 
ATOM     11  O   UNL     1       4.521  15.038  20.293  0.00  0.00    +0.000 OA
ATOM     12  C   UNL     1       3.661  16.161  20.006  0.00  0.00    +0.000 C 
ATOM     13  O   UNL     1       4.350  17.261  19.379  0.00  0.00    +0.000 OA
ATOM     14  C   UNL     1      11.489  17.042  17.388  0.00  0.00    +0.000 C 
ATOM     15  O   UNL     1      12.163  15.844  17.008  0.00  0.00    +0.000 OA
ATOM     16  C   UNL     1      11.409  14.734  17.264  0.00  0.00    +0.000 C 
ATOM     17  O   UNL     1      11.723  13.615  16.929  0.00  0.00    +0.000 OA
ENDROOT
BRANCH   1  23
ATOM     18  C   UNL     1       9.851  12.390  20.020  0.00  0.00    +0.000 A 
ATOM     19  C   UNL     1       9.835  10.992  20.217  0.00  0.00    +0.000 A 
ATOM     20  C   UNL     1       9.300  10.134  19.266  0.00  0.00    +0.000 A 
ATOM     21  C   UNL     1       8.808  10.663  18.088  0.00  0.00    +0.000 A 
ATOM     22  C   UNL     1       8.849  12.046  17.872  0.00  0.00    +0.000 A 
ATOM     23  C   UNL     1       9.306  12.972  18.845  0.00  0.00    +0.000 A 
BRANCH  18  25
ATOM     24  C   UNL     1       9.381  13.486  22.047  0.00  0.00    +0.000 C 
ATOM     25  O   UNL     1      10.349  13.186  21.029  0.00  0.00    +0.000 OA
ENDBRANCH  18  25
ENDBRANCH   1  23
BRANCH   4  26
ATOM     26  O   UNL     1       8.964  18.630  17.803  0.00  0.00    +0.000 OA
ATOM     27  H   UNL     1       9.265  19.115  18.589  0.00  0.00    +0.000 HD
ENDBRANCH   4  26
TORSDOF 3
ENDMDL
MODEL 3
REMARK VINA RESULT:      -6.7      8.709     11.433
REMARK  Name = 
REMARK  4 active torsions:
REMARK  status: ('A' for Active; 'I' for Inactive)
REMARK    1  A    between atoms: C_1  and  O_2
REMARK    2  A    between atoms: O_2  and  C_3
REMARK    3  A    between atoms: C_8  and  C_9
REMARK    4  A    between atoms: C_12  and  O_13
REMARK                            x       y       z     vdW  Elec       q    Type
REMARK                         _______ _______ _______ _____ _____    ______ ____
ROOT
ATOM      1  C   UNL     1      -4.169  12.907  20.992  0.00  0.00    +0.000 A 
ATOM      2  C   UNL     1      -5.423  12.950  21.650  0.00  0.00    +0.000 A 
ATOM      3  C   UNL     1      -6.544  12.256  21.218  0.00  0.00    +0.000 A 
ATOM      4  C   UNL     1      -6.565  11.667  19.979  0.00  0.00    +0.000 A 
ATOM      5  C   UNL     1      -5.409  11.680  19.189  0.00  0.00    +0.000 A 
ATOM      6  C   UNL     1      -5.477  11.177  17.872  0.00  0.00    +0.000 A 
ATOM      7  C   UNL     1      -4.335  11.138  17.117  0.00  0.00    +0.000 A 
ATOM      8  C   UNL     1      -3.127  11.473  17.656  0.00  0.00    +0.000 A 
ATOM      9  C   UNL     1      -3.015  11.932  18.955  0.00  0.00    +0.000 A 
ATOM     10  C   UNL     1      -4.169  12.191  19.734  0.00  0.00    +0.000 A 
ATOM     11  O   UNL     1      -2.107  11.324  16.769  0.00  0.00    +0.000 OA
ATOM     12  C   UNL     1      -2.834  10.921  15.588  0.00  0.00    +0.000 C 
ATOM     13  O   UNL     1      -4.247  10.752  15.818  0.00  0.00    +0.000 OA
ATOM     14  C   UNL     1      -7.567  12.241  22.278  0.00  0.00    +0.000 C 
ATOM     15  O   UNL     1      -7.101  13.232  23.192  0.00  0.00    +0.000 OA
ATOM     16  C   UNL     1      -5.870  13.708  22.841  0.00  0.00    +0.000 C 
ATOM     17  O   UNL     1      -5.320  14.630  23.399  0.00  0.00    +0.000 OA
ENDROOT
BRANCH   1  23
ATOM     18  C   UNL     1      -2.089  12.965  22.593  0.00  0.00    +0.000 A 
ATOM     19  C   UNL     1      -0.907  13.618  23.007  0.00  0.00    +0.000 A 
ATOM     20  C   UNL     1      -0.550  14.858  22.497  0.00  0.00    +0.000 A 
ATOM     21  C   UNL     1      -1.390  15.478  21.592  0.00  0.00    +0.000 A 
ATOM     22  C   UNL     1      -2.580  14.851  21.201  0.00  0.00    +0.000 A 
ATOM     23  C   UNL     1      -2.950  13.549  21.627  0.00  0.00    +0.000 A 
BRANCH  18  25
ATOM     24  C   UNL     1      -1.216  10.838  23.087  0.00  0.00    +0.000 C 
ATOM     25  O   UNL     1      -2.355  11.712  23.102  0.00  0.00    +0.000 OA
ENDBRANCH  18  25
ENDBRANCH   1  23
BRANCH   4  26
ATOM     26  O   UNL     1      -7.696  11.054  19.514  0.00  0.00    +0.000 OA
ATOM     27  H   UNL     1      -8.474  11.608  19.686  0.00  0.00    +0.000 HD
ENDBRANCH   4  26
TORSDOF 3
ENDMDL
MODEL 4
REMARK VINA RESULT:      -6.6      1.635      4.441
REMARK  Name = 
REMARK  4 active torsions:
REMARK  status: ('A' for Active; 'I' for Inactive)
REMARK    1  A    between atoms: C_1  and  O_2
REMARK    2  A    between atoms: O_2  and  C_3
REMARK    3  A    between atoms: C_8  and  C_9
REMARK    4  A    between atoms: C_12  and  O_13
REMARK                            x       y       z     vdW  Elec       q    Type
REMARK                         _______ _______ _______ _____ _____    ______ ____
ROOT
ATOM      1  C   UNL     1       3.225   4.863  18.565  0.00  0.00    +0.000 A 
ATOM      2  C   UNL     1       4.078   4.363  17.550  0.00  0.00    +0.000 A 
ATOM      3  C   UNL     1       4.787   5.170  16.673  0.00  0.00    +0.000 A 
ATOM      4  C   UNL     1       4.518   6.513  16.588  0.00  0.00    +0.000 A 
ATOM      5  C   UNL     1       3.590   7.088  17.464  0.00  0.00    +0.000 A 
ATOM      6  C   UNL     1       3.233   8.442  17.289  0.00  0.00    +0.000 A 
ATOM      7  C   UNL     1       2.368   9.021  18.179  0.00  0.00    +0.000 A 
ATOM      8  C   UNL     1       1.941   8.342  19.283  0.00  0.00    +0.000 A 
ATOM      9  C   UNL     1       2.301   7.026  19.510  0.00  0.00    +0.000 A 
ATOM     10  C   UNL     1       3.026   6.296  18.538  0.00  0.00    +0.000 A 
ATOM     11  O   UNL     1       1.129   9.097  20.071  0.00  0.00    +0.000 OA
ATOM     12  C   UNL     1       1.047  10.308  19.290  0.00  0.00    +0.000 C 
ATOM     13  O   UNL     1       1.873  10.283  18.109  0.00  0.00    +0.000 OA
ATOM     14  C   UNL     1       5.815   4.377  15.977  0.00  0.00    +0.000 C 
ATOM     15  O   UNL     1       5.432   3.032  16.258  0.00  0.00    +0.000 OA
ATOM     16  C   UNL     1       4.390   2.975  17.139  0.00  0.00    +0.000 C 
ATOM     17  O   UNL     1       3.821   1.951  17.444  0.00  0.00    +0.000 OA
ENDROOT
BRANCH   1  23
ATOM     18  C   UNL     1       3.339   3.086  20.495  0.00  0.00    +0.000 A 
ATOM     19  C   UNL     1       2.666   2.354  21.498  0.00  0.00    +0.000 A 
ATOM     20  C   UNL     1       1.285   2.412  21.632  0.00  0.00    +0.000 A 
ATOM     21  C   UNL     1       0.557   3.176  20.740  0.00  0.00    +0.000 A 
ATOM     22  C   UNL     1       1.215   3.879  19.722  0.00  0.00    +0.000 A 
ATOM     23  C   UNL     1       2.627   3.921  19.593  0.00  0.00    +0.000 A 
BRANCH  18  25
ATOM     24  C   UNL     1       5.232   1.704  20.687  0.00  0.00    +0.000 C 
ATOM     25  O   UNL     1       4.715   3.023  20.453  0.00  0.00    +0.000 OA
ENDBRANCH  18  25
ENDBRANCH   1  23
BRANCH   4  26
ATOM     26  O   UNL     1       5.155   7.298  15.667  0.00  0.00    +0.000 OA
ATOM     27  H   UNL     1       5.368   8.164  16.051  0.00  0.00    +0.000 HD
ENDBRANCH   4  26
TORSDOF 3
ENDMDL
MODEL 5
REMARK VINA RESULT:      -6.5      7.220      9.878
REMARK  Name = 
REMARK  4 active torsions:
REMARK  status: ('A' for Active; 'I' for Inactive)
REMARK    1  A    between atoms: C_1  and  O_2
REMARK    2  A    between atoms: O_2  and  C_3
REMARK    3  A    between atoms: C_8  and  C_9
REMARK    4  A    between atoms: C_12  and  O_13
REMARK                            x       y       z     vdW  Elec       q    Type
REMARK                         _______ _______ _______ _____ _____    ______ ____
ROOT
ATOM      1  C   UNL     1      -2.623  11.748  18.951  0.00  0.00    +0.000 A 
ATOM      2  C   UNL     1      -2.901  11.110  17.717  0.00  0.00    +0.000 A 
ATOM      3  C   UNL     1      -4.126  11.183  17.070  0.00  0.00    +0.000 A 
ATOM      4  C   UNL     1      -5.226  11.693  17.714  0.00  0.00    +0.000 A 
ATOM      5  C   UNL     1      -5.084  12.234  18.997  0.00  0.00    +0.000 A 
ATOM      6  C   UNL     1      -6.239  12.646  19.696  0.00  0.00    +0.000 A 
ATOM      7  C   UNL     1      -6.099  13.227  20.928  0.00  0.00    +0.000 A 
ATOM      8  C   UNL     1      -4.862  13.510  21.431  0.00  0.00    +0.000 A 
ATOM      9  C   UNL     1      -3.707  13.159  20.758  0.00  0.00    +0.000 A 
ATOM     10  C   UNL     1      -3.766  12.379  19.578  0.00  0.00    +0.000 A 
ATOM     11  O   UNL     1      -4.927  14.129  22.640  0.00  0.00    +0.000 OA
ATOM     12  C   UNL     1      -6.353  14.138  22.862  0.00  0.00    +0.000 C 
ATOM     13  O   UNL     1      -7.107  13.609  21.753  0.00  0.00    +0.000 OA
ATOM     14  C   UNL     1      -3.993  10.706  15.683  0.00  0.00    +0.000 C 
ATOM     15  O   UNL     1      -2.723  10.057  15.684  0.00  0.00    +0.000 OA
ATOM     16  C   UNL     1      -2.066  10.228  16.869  0.00  0.00    +0.000 C 
ATOM     17  O   UNL     1      -1.023   9.682  17.146  0.00  0.00    +0.000 OA
ENDROOT
BRANCH   1  23
ATOM     18  C   UNL     1      -0.201  12.726  19.219  0.00  0.00    +0.000 A 
ATOM     19  C   UNL     1       1.035  12.708  19.901  0.00  0.00    +0.000 A 
ATOM     20  C   UNL     1       1.317  11.745  20.860  0.00  0.00    +0.000 A 
ATOM     21  C   UNL     1       0.378  10.766  21.123  0.00  0.00    +0.000 A 
ATOM     22  C   UNL     1      -0.838  10.759  20.427  0.00  0.00    +0.000 A 
ATOM     23  C   UNL     1      -1.209  11.766  19.500  0.00  0.00    +0.000 A 
BRANCH  18  25
ATOM     24  C   UNL     1      -0.089  15.041  18.821  0.00  0.00    +0.000 C 
ATOM     25  O   UNL     1      -0.434  13.742  18.317  0.00  0.00    +0.000 OA
ENDBRANCH  18  25
ENDBRANCH   1  23
BRANCH   4  26
ATOM     26  O   UNL     1      -6.454  11.690  17.112  0.00  0.00    +0.000 OA
ATOM     27  H   UNL     1      -6.538  12.450  16.514  0.00  0.00    +0.000 HD
ENDBRANCH   4  26
TORSDOF 3
ENDMDL
MODEL 6
REMARK VINA RESULT:      -6.5      4.227      7.593
REMARK  Name = 
REMARK  4 active torsions:
REMARK  status: ('A' for Active; 'I' for Inactive)
REMARK    1  A    between atoms: C_1  and  O_2
REMARK    2  A    between atoms: O_2  and  C_3
REMARK    3  A    between atoms: C_8  and  C_9
REMARK    4  A    between atoms: C_12  and  O_13
REMARK                            x       y       z     vdW  Elec       q    Type
REMARK                         _______ _______ _______ _____ _____    ______ ____
ROOT
ATOM      1  C   UNL     1      -0.446  10.602  19.238  0.00  0.00    +0.000 A 
ATOM      2  C   UNL     1      -0.511  11.536  20.302  0.00  0.00    +0.000 A 
ATOM      3  C   UNL     1      -1.614  12.335  20.560  0.00  0.00    +0.000 A 
ATOM      4  C   UNL     1      -2.632  12.435  19.644  0.00  0.00    +0.000 A 
ATOM      5  C   UNL     1      -2.601  11.646  18.488  0.00  0.00    +0.000 A 
ATOM      6  C   UNL     1      -3.588  11.844  17.500  0.00  0.00    +0.000 A 
ATOM      7  C   UNL     1      -3.592  11.035  16.394  0.00  0.00    +0.000 A 
ATOM      8  C   UNL     1      -2.730   9.982  16.295  0.00  0.00    +0.000 A 
ATOM      9  C   UNL     1      -1.775   9.732  17.262  0.00  0.00    +0.000 A 
ATOM     10  C   UNL     1      -1.574  10.637  18.332  0.00  0.00    +0.000 A 
ATOM     11  O   UNL     1      -2.918   9.269  15.152  0.00  0.00    +0.000 OA
ATOM     12  C   UNL     1      -3.957  10.045  14.518  0.00  0.00    +0.000 C 
ATOM     13  O   UNL     1      -4.425  11.142  15.328  0.00  0.00    +0.000 OA
ATOM     14  C   UNL     1      -1.499  12.937  21.900  0.00  0.00    +0.000 C 
ATOM     15  O   UNL     1      -0.135  12.704  22.243  0.00  0.00    +0.000 OA
ATOM     16  C   UNL     1       0.497  11.926  21.315  0.00  0.00    +0.000 C 
ATOM     17  O   UNL     1       1.682  11.685  21.333  0.00  0.00    +0.000 OA
ENDROOT
BRANCH   1  23
ATOM     18  C   UNL     1       1.055   8.603  20.043  0.00  0.00    +0.000 A 
ATOM     19  C   UNL     1       2.094   7.690  19.761  0.00  0.00    +0.000 A 
ATOM     20  C   UNL     1       2.841   7.781  18.595  0.00  0.00    +0.000 A 
ATOM     21  C   UNL     1       2.580   8.812  17.711  0.00  0.00    +0.000 A 
ATOM     22  C   UNL     1       1.571   9.740  17.999  0.00  0.00    +0.000 A 
ATOM     23  C   UNL     1       0.725   9.643  19.133  0.00  0.00    +0.000 A 
BRANCH  18  25
ATOM     24  C   UNL     1       1.055   8.716  22.392  0.00  0.00    +0.000 C 
ATOM     25  O   UNL     1       0.320   8.422  21.194  0.00  0.00    +0.000 OA
ENDBRANCH  18  25
ENDBRANCH   1  23
BRANCH   4  26
ATOM     26  O   UNL     1      -3.682  13.286  19.855  0.00  0.00    +0.000 OA
ATOM     27  H   UNL     1      -3.571  13.757  20.696  0.00  0.00    +0.000 HD
ENDBRANCH   4  26
TORSDOF 3
ENDMDL
MODEL 7
REMARK VINA RESULT:      -6.5      7.666     11.465
REMARK  Name = 
REMARK  4 active torsions:
REMARK  status: ('A' for Active; 'I' for Inactive)
REMARK    1  A    between atoms: C_1  and  O_2
REMARK    2  A    between atoms: O_2  and  C_3
REMARK    3  A    between atoms: C_8  and  C_9
REMARK    4  A    between atoms: C_12  and  O_13
REMARK                            x       y       z     vdW  Elec       q    Type
REMARK                         _______ _______ _______ _____ _____    ______ ____
ROOT
ATOM      1  C   UNL     1      -3.849  12.547  20.280  0.00  0.00    +0.000 A 
ATOM      2  C   UNL     1      -2.934  12.572  21.362  0.00  0.00    +0.000 A 
ATOM      3  C   UNL     1      -1.605  12.191  21.256  0.00  0.00    +0.000 A 
ATOM      4  C   UNL     1      -1.153  11.537  20.137  0.00  0.00    +0.000 A 
ATOM      5  C   UNL     1      -2.019  11.345  19.054  0.00  0.00    +0.000 A 
ATOM      6  C   UNL     1      -1.581  10.569  17.960  0.00  0.00    +0.000 A 
ATOM      7  C   UNL     1      -2.406  10.426  16.875  0.00  0.00    +0.000 A 
ATOM      8  C   UNL     1      -3.584  11.109  16.797  0.00  0.00    +0.000 A 
ATOM      9  C   UNL     1      -4.028  11.910  17.832  0.00  0.00    +0.000 A 
ATOM     10  C   UNL     1      -3.333  11.952  19.065  0.00  0.00    +0.000 A 
ATOM     11  O   UNL     1      -4.238  10.877  15.627  0.00  0.00    +0.000 OA
ATOM     12  C   UNL     1      -3.357   9.913  15.013  0.00  0.00    +0.000 C 
ATOM     13  O   UNL     1      -2.163   9.660  15.781  0.00  0.00    +0.000 OA
ATOM     14  C   UNL     1      -0.856  12.641  22.443  0.00  0.00    +0.000 C 
ATOM     15  O   UNL     1      -1.887  12.997  23.361  0.00  0.00    +0.000 OA
ATOM     16  C   UNL     1      -3.124  12.928  22.787  0.00  0.00    +0.000 C 
ATOM     17  O   UNL     1      -4.159  13.079  23.396  0.00  0.00    +0.000 OA
ENDROOT
BRANCH   1  23
ATOM     18  C   UNL     1      -6.438  12.444  20.706  0.00  0.00    +0.000 A 
ATOM     19  C   UNL     1      -7.643  13.134  20.963  0.00  0.00    +0.000 A 
ATOM     20  C   UNL     1      -7.699  14.521  20.948  0.00  0.00    +0.000 A 
ATOM     21  C   UNL     1      -6.557  15.235  20.640  0.00  0.00    +0.000 A 
ATOM     22  C   UNL     1      -5.366  14.556  20.352  0.00  0.00    +0.000 A 
ATOM     23  C   UNL     1      -5.233  13.147  20.435  0.00  0.00    +0.000 A 
BRANCH  18  25
ATOM     24  C   UNL     1      -7.761  10.502  20.778  0.00  0.00    +0.000 C 
ATOM     25  O   UNL     1      -6.442  11.069  20.789  0.00  0.00    +0.000 OA
ENDBRANCH  18  25
ENDBRANCH   1  23
BRANCH   4  26
ATOM     26  O   UNL     1       0.135  11.085  20.062  0.00  0.00    +0.000 OA
ATOM     27  H   UNL     1       0.149  10.121  19.949  0.00  0.00    +0.000 HD
ENDBRANCH   4  26
TORSDOF 3
ENDMDL
MODEL 8
REMARK VINA RESULT:      -6.5      7.442      9.742
REMARK  Name = 
REMARK  4 active torsions:
REMARK  status: ('A' for Active; 'I' for Inactive)
REMARK    1  A    between atoms: C_1  and  O_2
REMARK    2  A    between atoms: O_2  and  C_3
REMARK    3  A    between atoms: C_8  and  C_9
REMARK    4  A    between atoms: C_12  and  O_13
REMARK                            x       y       z     vdW  Elec       q    Type
REMARK                         _______ _______ _______ _____ _____    ______ ____
ROOT
ATOM      1  C   UNL     1      -2.439  11.990  19.195  0.00  0.00    +0.000 A 
ATOM      2  C   UNL     1      -2.688  11.152  18.080  0.00  0.00    +0.000 A 
ATOM      3  C   UNL     1      -3.945  10.961  17.525  0.00  0.00    +0.000 A 
ATOM      4  C   UNL     1      -5.070  11.397  18.180  0.00  0.00    +0.000 A 
ATOM      5  C   UNL     1      -4.938  12.128  19.367  0.00  0.00    +0.000 A 
ATOM      6  C   UNL     1      -6.100  12.468  20.092  0.00  0.00    +0.000 A 
ATOM      7  C   UNL     1      -5.977  13.230  21.223  0.00  0.00    +0.000 A 
ATOM      8  C   UNL     1      -4.770  13.752  21.588  0.00  0.00    +0.000 A 
ATOM      9  C   UNL     1      -3.616  13.474  20.880  0.00  0.00    +0.000 A 
ATOM     10  C   UNL     1      -3.625  12.536  19.820  0.00  0.00    +0.000 A 
ATOM     11  O   UNL     1      -4.858  14.519  22.707  0.00  0.00    +0.000 OA
ATOM     12  C   UNL     1      -6.255  14.359  23.035  0.00  0.00    +0.000 C 
ATOM     13  O   UNL     1      -6.983  13.580  22.066  0.00  0.00    +0.000 OA
ATOM     14  C   UNL     1      -3.822  10.317  16.206  0.00  0.00    +0.000 C 
ATOM     15  O   UNL     1      -2.471   9.859  16.194  0.00  0.00    +0.000 OA
ATOM     16  C   UNL     1      -1.781  10.285  17.293  0.00  0.00    +0.000 C 
ATOM     17  O   UNL     1      -0.654   9.934  17.558  0.00  0.00    +0.000 OA
ENDROOT
BRANCH   1  23
ATOM     18  C   UNL     1      -0.297  11.647  20.675  0.00  0.00    +0.000 A 
ATOM     19  C   UNL     1       1.072  11.916  20.890  0.00  0.00    +0.000 A 
ATOM     20  C   UNL     1       1.765  12.821  20.096  0.00  0.00    +0.000 A 
ATOM     21  C   UNL     1       1.085  13.494  19.099  0.00  0.00    +0.000 A 
ATOM     22  C   UNL     1      -0.281  13.256  18.901  0.00  0.00    +0.000 A 
ATOM     23  C   UNL     1      -1.015  12.283  19.627  0.00  0.00    +0.000 A 
BRANCH  18  25
ATOM     24  C   UNL     1      -1.119  11.136  22.818  0.00  0.00    +0.000 C 
ATOM     25  O   UNL     1      -0.908  10.699  21.467  0.00  0.00    +0.000 OA
ENDBRANCH  18  25
ENDBRANCH   1  23
BRANCH   4  26
ATOM     26  O   UNL     1      -6.316  11.138  17.679  0.00  0.00    +0.000 OA
ATOM     27  H   UNL     1      -6.260  10.898  16.741  0.00  0.00    +0.000 HD
ENDBRANCH   4  26
TORSDOF 3
ENDMDL
MODEL 9
REMARK VINA RESULT:      -6.3      6.747     10.558
REMARK  Name = 
REMARK  4 active torsions:
REMARK  status: ('A' for Active; 'I' for Inactive)
REMARK    1  A    between atoms: C_1  and  O_2
REMARK    2  A    between atoms: O_2  and  C_3
REMARK    3  A    between atoms: C_8  and  C_9
REMARK    4  A    between atoms: C_12  and  O_13
REMARK                            x       y       z     vdW  Elec       q    Type
REMARK                         _______ _______ _______ _____ _____    ______ ____
ROOT
ATOM      1  C   UNL     1      -2.368  12.352  20.993  0.00  0.00    +0.000 A 
ATOM      2  C   UNL     1      -1.163  11.668  20.693  0.00  0.00    +0.000 A 
ATOM      3  C   UNL     1      -0.847  11.182  19.433  0.00  0.00    +0.000 A 
ATOM      4  C   UNL     1      -1.799  11.129  18.446  0.00  0.00    +0.000 A 
ATOM      5  C   UNL     1      -3.071  11.664  18.685  0.00  0.00    +0.000 A 
ATOM      6  C   UNL     1      -4.076  11.498  17.708  0.00  0.00    +0.000 A 
ATOM      7  C   UNL     1      -5.304  12.068  17.915  0.00  0.00    +0.000 A 
ATOM      8  C   UNL     1      -5.526  12.879  18.990  0.00  0.00    +0.000 A 
ATOM      9  C   UNL     1      -4.554  13.098  19.948  0.00  0.00    +0.000 A 
ATOM     10  C   UNL     1      -3.330  12.387  19.912  0.00  0.00    +0.000 A 
ATOM     11  O   UNL     1      -6.787  13.389  18.998  0.00  0.00    +0.000 OA
ATOM     12  C   UNL     1      -7.346  12.745  17.833  0.00  0.00    +0.000 C 
ATOM     13  O   UNL     1      -6.391  11.942  17.112  0.00  0.00    +0.000 OA
ATOM     14  C   UNL     1       0.582  10.830  19.373  0.00  0.00    +0.000 C 
ATOM     15  O   UNL     1       0.974  10.831  20.744  0.00  0.00    +0.000 OA
ATOM     16  C   UNL     1      -0.029  11.271  21.559  0.00  0.00    +0.000 C 
ATOM     17  O   UNL     1       0.029  11.257  22.767  0.00  0.00    +0.000 OA
ENDROOT
BRANCH   1  23
ATOM     18  C   UNL     1      -2.030  14.257  22.768  0.00  0.00    +0.000 A 
ATOM     19  C   UNL     1      -2.392  14.821  24.011  0.00  0.00    +0.000 A 
ATOM     20  C   UNL     1      -3.263  14.170  24.874  0.00  0.00    +0.000 A 
ATOM     21  C   UNL     1      -3.754  12.928  24.519  0.00  0.00    +0.000 A 
ATOM     22  C   UNL     1      -3.375  12.349  23.302  0.00  0.00    +0.000 A 
ATOM     23  C   UNL     1      -2.557  13.007  22.348  0.00  0.00    +0.000 A 
BRANCH  18  25
ATOM     24  C   UNL     1       0.185  14.886  22.291  0.00  0.00    +0.000 C 
ATOM     25  O   UNL     1      -1.203  14.983  21.938  0.00  0.00    +0.000 OA
ENDBRANCH  18  25
ENDBRANCH   1  23
BRANCH   4  26
ATOM     26  O   UNL     1      -1.517  10.573  17.229  0.00  0.00    +0.000 OA
ATOM     27  H   UNL     1      -1.560  11.247  16.532  0.00  0.00    +0.000 HD
ENDBRANCH   4  26
TORSDOF 3
ENDMDL
