MODEL 1
REMARK VINA RESULT:      -7.5      0.000      0.000
REMARK  Name = 
REMARK  11 active torsions:
REMARK  status: ('A' for Active; 'I' for Inactive)
REMARK    1  A    between atoms: C_1  and  O_2
REMARK    2  A    between atoms: O_2  and  C_3
REMARK    3  A    between atoms: C_6  and  N_7
REMARK    4  A    between atoms: N_10  and  C_11
REMARK    5  A    between atoms: C_11  and  C_12
REMARK    6  A    between atoms: N_18  and  C_19
REMARK    7  A    between atoms: N_22  and  C_23
REMARK    8  A    between atoms: N_24  and  C_25
REMARK    9  A    between atoms: C_25  and  C_26
REMARK   10  A    between atoms: C_25  and  C_27
REMARK   11  A    between atoms: C_27  and  C_28
REMARK                            x       y       z     vdW  Elec       q    Type
REMARK                         _______ _______ _______ _____ _____    ______ ____
ROOT
ATOM      1  C   UNL     1       1.173  12.665  20.205  0.00  0.00    +0.000 A 
ATOM      2  N   UNL     1       2.205  13.191  19.568  0.00  0.00    +0.000 NA
ATOM      3  C   UNL     1       1.823  14.421  19.192  0.00  0.00    +0.000 A 
ATOM      4  C   UNL     1       0.558  14.718  19.598  0.00  0.00    +0.000 A 
ATOM      5  C   UNL     1      -0.031  15.987  19.296  0.00  0.00    +0.000 A 
ATOM      6  O   UNL     1      -1.156  16.311  19.674  0.00  0.00    +0.000 OA
ATOM      7  N   UNL     1       0.785  16.816  18.524  0.00  0.00    +0.000 N 
ATOM      8  C   UNL     1       0.258  18.100  18.106  0.00  0.00    +0.000 C 
ATOM      9  C   UNL     1       2.099  16.528  18.110  0.00  0.00    +0.000 A 
ATOM     10  O   UNL     1       2.757  17.341  17.458  0.00  0.00    +0.000 OA
ATOM     11  N   UNL     1       2.610  15.288  18.475  0.00  0.00    +0.000 N 
ATOM     12  C   UNL     1       3.960  14.899  18.103  0.00  0.00    +0.000 C 
ATOM     13  N   UNL     1       0.114  13.584  20.274  0.00  0.00    +0.000 N 
ENDROOT
BRANCH  13  14
ATOM     14  C   UNL     1      -1.124  13.439  21.054  0.00  0.00    +0.000 C 
ATOM     15  C   UNL     1      -2.253  12.725  20.301  0.00  0.00    +0.000 C 
BRANCH  14  16
ATOM     16  C   UNL     1      -1.016  12.934  22.488  0.00  0.00    +0.000 C 
ATOM     17  C   UNL     1      -1.796  11.749  22.981  0.00  0.00    +0.000 C 
ATOM     18  O   UNL     1      -0.346  13.576  23.310  0.00  0.00    +0.000 OA
ENDBRANCH  14  16
ENDBRANCH  13  14
BRANCH   1  19
ATOM     19  C   UNL     1       1.252  11.230  20.663  0.00  0.00    +0.000 C 
BRANCH  19  23
ATOM     20  N   UNL     1       1.796   7.742  19.942  0.00  0.00    +0.000 N 
ATOM     21  C   UNL     1       1.998   8.786  18.931  0.00  0.00    +0.000 C 
ATOM     22  C   UNL     1       0.762   9.723  18.844  0.00  0.00    +0.000 C 
ATOM     23  N   UNL     1       0.270  10.268  20.147  0.00  0.00    +0.000 NA
ATOM     24  C   UNL     1       0.062   9.110  21.047  0.00  0.00    +0.000 C 
ATOM     25  C   UNL     1       1.277   8.176  21.245  0.00  0.00    +0.000 C 
BRANCH  20  29
ATOM     26  C   UNL     1       2.303   3.635  19.121  0.00  0.00    +0.000 A 
ATOM     27  C   UNL     1       1.912   4.055  20.388  0.00  0.00    +0.000 A 
ATOM     28  C   UNL     1       1.751   5.420  20.658  0.00  0.00    +0.000 A 
ATOM     29  C   UNL     1       1.997   6.401  19.683  0.00  0.00    +0.000 A 
ATOM     30  C   UNL     1       2.432   5.952  18.435  0.00  0.00    +0.000 A 
ATOM     31  C   UNL     1       2.585   4.589  18.149  0.00  0.00    +0.000 A 
BRANCH  26  33
ATOM     32  C   UNL     1       3.438   1.874  18.046  0.00  0.00    +0.000 C 
ATOM     33  O   UNL     1       2.413   2.283  18.949  0.00  0.00    +0.000 OA
ENDBRANCH  26  33
ENDBRANCH  20  29
ENDBRANCH  19  23
ENDBRANCH   1  19
TORSDOF 6
ENDMDL
MODEL 2
REMARK VINA RESULT:      -6.9      1.022      1.298
REMARK  Name = 
REMARK  11 active torsions:
REMARK  status: ('A' for Active; 'I' for Inactive)
REMARK    1  A    between atoms: C_1  and  O_2
REMARK    2  A    between atoms: O_2  and  C_3
REMARK    3  A    between atoms: C_6  and  N_7
REMARK    4  A    between atoms: N_10  and  C_11
REMARK    5  A    between atoms: C_11  and  C_12
REMARK    6  A    between atoms: N_18  and  C_19
REMARK    7  A    between atoms: N_22  and  C_23
REMARK    8  A    between atoms: N_24  and  C_25
REMARK    9  A    between atoms: C_25  and  C_26
REMARK   10  A    between atoms: C_25  and  C_27
REMARK   11  A    between atoms: C_27  and  C_28
REMARK                            x       y       z     vdW  Elec       q    Type
REMARK                         _______ _______ _______ _____ _____    ______ ____
ROOT
ATOM      1  C   UNL     1       1.243  12.733  19.671  0.00  0.00    +0.000 A 
ATOM      2  N   UNL     1       2.121  13.479  19.022  0.00  0.00    +0.000 NA
ATOM      3  C   UNL     1       1.565  14.696  18.912  0.00  0.00    +0.000 A 
ATOM      4  C   UNL     1       0.343  14.763  19.505  0.00  0.00    +0.000 A 
ATOM      5  C   UNL     1      -0.410  15.981  19.498  0.00  0.00    +0.000 A 
ATOM      6  O   UNL     1      -1.502  16.096  20.053  0.00  0.00    +0.000 OA
ATOM      7  N   UNL     1       0.204  17.017  18.793  0.00  0.00    +0.000 N 
ATOM      8  C   UNL     1      -0.504  18.275  18.668  0.00  0.00    +0.000 C 
ATOM      9  C   UNL     1       1.474  16.965  18.189  0.00  0.00    +0.000 A 
ATOM     10  O   UNL     1       1.951  17.948  17.617  0.00  0.00    +0.000 OA
ATOM     11  N   UNL     1       2.156  15.757  18.271  0.00  0.00    +0.000 N 
ATOM     12  C   UNL     1       3.476  15.605  17.686  0.00  0.00    +0.000 C 
ATOM     13  N   UNL     1       0.114  13.489  20.020  0.00  0.00    +0.000 N 
ENDROOT
BRANCH  13  14
ATOM     14  C   UNL     1      -0.987  13.068  20.899  0.00  0.00    +0.000 C 
ATOM     15  C   UNL     1      -1.058  13.844  22.220  0.00  0.00    +0.000 C 
BRANCH  14  16
ATOM     16  C   UNL     1      -2.373  12.898  20.287  0.00  0.00    +0.000 C 
ATOM     17  C   UNL     1      -3.619  13.352  20.990  0.00  0.00    +0.000 C 
ATOM     18  O   UNL     1      -2.495  12.273  19.224  0.00  0.00    +0.000 OA
ENDBRANCH  14  16
ENDBRANCH  13  14
BRANCH   1  19
ATOM     19  C   UNL     1       1.532  11.265  19.861  0.00  0.00    +0.000 C 
BRANCH  19  23
ATOM     20  N   UNL     1       1.957   7.702  19.534  0.00  0.00    +0.000 N 
ATOM     21  C   UNL     1       2.198   8.620  18.415  0.00  0.00    +0.000 C 
ATOM     22  C   UNL     1       0.996   9.584  18.216  0.00  0.00    +0.000 C 
ATOM     23  N   UNL     1       0.519  10.285  19.447  0.00  0.00    +0.000 NA
ATOM     24  C   UNL     1       0.268   9.242  20.469  0.00  0.00    +0.000 C 
ATOM     25  C   UNL     1       1.448   8.294  20.777  0.00  0.00    +0.000 C 
BRANCH  20  29
ATOM     26  C   UNL     1       2.321   3.513  19.184  0.00  0.00    +0.000 A 
ATOM     27  C   UNL     1       2.037   4.093  20.416  0.00  0.00    +0.000 A 
ATOM     28  C   UNL     1       1.924   5.484  20.529  0.00  0.00    +0.000 A 
ATOM     29  C   UNL     1       2.112   6.334  19.426  0.00  0.00    +0.000 A 
ATOM     30  C   UNL     1       2.440   5.727  18.212  0.00  0.00    +0.000 A 
ATOM     31  C   UNL     1       2.544   4.336  18.084  0.00  0.00    +0.000 A 
BRANCH  26  33
ATOM     32  C   UNL     1       3.515   1.612  18.475  0.00  0.00    +0.000 C 
ATOM     33  O   UNL     1       2.392   2.148  19.170  0.00  0.00    +0.000 OA
ENDBRANCH  26  33
ENDBRANCH  20  29
ENDBRANCH  19  23
ENDBRANCH   1  19
TORSDOF 6
ENDMDL
MODEL 3
REMARK VINA RESULT:      -6.9      1.165      1.692
REMARK  Name = 
REMARK  11 active torsions:
REMARK  status: ('A' for Active; 'I' for Inactive)
REMARK    1  A    between atoms: C_1  and  O_2
REMARK    2  A    between atoms: O_2  and  C_3
REMARK    3  A    between atoms: C_6  and  N_7
REMARK    4  A    between atoms: N_10  and  C_11
REMARK    5  A    between atoms: C_11  and  C_12
REMARK    6  A    between atoms: N_18  and  C_19
REMARK    7  A    between atoms: N_22  and  C_23
REMARK    8  A    between atoms: N_24  and  C_25
REMARK    9  A    between atoms: C_25  and  C_26
REMARK   10  A    between atoms: C_25  and  C_27
REMARK   11  A    between atoms: C_27  and  C_28
REMARK                            x       y       z     vdW  Elec       q    Type
REMARK                         _______ _______ _______ _____ _____    ______ ____
ROOT
ATOM      1  C   UNL     1       1.428  12.674  19.252  0.00  0.00    +0.000 A 
ATOM      2  N   UNL     1       2.240  13.553  18.689  0.00  0.00    +0.000 NA
ATOM      3  C   UNL     1       1.600  14.732  18.734  0.00  0.00    +0.000 A 
ATOM      4  C   UNL     1       0.387  14.640  19.345  0.00  0.00    +0.000 A 
ATOM      5  C   UNL     1      -0.448  15.793  19.496  0.00  0.00    +0.000 A 
ATOM      6  O   UNL     1      -1.534  15.764  20.073  0.00  0.00    +0.000 OA
ATOM      7  N   UNL     1       0.080  16.949  18.916  0.00  0.00    +0.000 N 
ATOM      8  C   UNL     1      -0.716  18.159  18.954  0.00  0.00    +0.000 C 
ATOM      9  C   UNL     1       1.338  17.060  18.296  0.00  0.00    +0.000 A 
ATOM     10  O   UNL     1       1.734  18.136  17.843  0.00  0.00    +0.000 OA
ATOM     11  N   UNL     1       2.102  15.902  18.222  0.00  0.00    +0.000 N 
ATOM     12  C   UNL     1       3.419  15.916  17.608  0.00  0.00    +0.000 C 
ATOM     13  N   UNL     1       0.257  13.300  19.703  0.00  0.00    +0.000 N 
ENDROOT
BRANCH  13  14
ATOM     14  C   UNL     1      -0.795  12.699  20.536  0.00  0.00    +0.000 C 
ATOM     15  C   UNL     1      -0.896  13.304  21.942  0.00  0.00    +0.000 C 
BRANCH  14  16
ATOM     16  C   UNL     1      -2.177  12.503  19.923  0.00  0.00    +0.000 C 
ATOM     17  C   UNL     1      -2.369  11.913  18.556  0.00  0.00    +0.000 C 
ATOM     18  O   UNL     1      -3.173  12.937  20.519  0.00  0.00    +0.000 OA
ENDBRANCH  14  16
ENDBRANCH  13  14
BRANCH   1  19
ATOM     19  C   UNL     1       1.821  11.217  19.257  0.00  0.00    +0.000 C 
BRANCH  19  23
ATOM     20  N   UNL     1       2.193   7.636  19.386  0.00  0.00    +0.000 N 
ATOM     21  C   UNL     1       2.469   8.403  18.166  0.00  0.00    +0.000 C 
ATOM     22  C   UNL     1       1.286   9.351  17.826  0.00  0.00    +0.000 C 
ATOM     23  N   UNL     1       0.799  10.208  18.950  0.00  0.00    +0.000 NA
ATOM     24  C   UNL     1       0.514   9.305  20.089  0.00  0.00    +0.000 C 
ATOM     25  C   UNL     1       1.674   8.387  20.536  0.00  0.00    +0.000 C 
BRANCH  20  29
ATOM     26  C   UNL     1       2.701   3.456  19.646  0.00  0.00    +0.000 A 
ATOM     27  C   UNL     1       3.218   4.160  18.564  0.00  0.00    +0.000 A 
ATOM     28  C   UNL     1       3.042   5.547  18.478  0.00  0.00    +0.000 A 
ATOM     29  C   UNL     1       2.328   6.263  19.453  0.00  0.00    +0.000 A 
ATOM     30  C   UNL     1       1.782   5.524  20.504  0.00  0.00    +0.000 A 
ATOM     31  C   UNL     1       1.962   4.138  20.607  0.00  0.00    +0.000 A 
BRANCH  26  33
ATOM     32  C   UNL     1       3.442   1.586  18.422  0.00  0.00    +0.000 C 
ATOM     33  O   UNL     1       2.943   2.110  19.651  0.00  0.00    +0.000 OA
ENDBRANCH  26  33
ENDBRANCH  20  29
ENDBRANCH  19  23
ENDBRANCH   1  19
TORSDOF 6
ENDMDL
MODEL 4
REMARK VINA RESULT:      -6.8      3.361      5.708
REMARK  Name = 
REMARK  11 active torsions:
REMARK  status: ('A' for Active; 'I' for Inactive)
REMARK    1  A    between atoms: C_1  and  O_2
REMARK    2  A    between atoms: O_2  and  C_3
REMARK    3  A    between atoms: C_6  and  N_7
REMARK    4  A    between atoms: N_10  and  C_11
REMARK    5  A    between atoms: C_11  and  C_12
REMARK    6  A    between atoms: N_18  and  C_19
REMARK    7  A    between atoms: N_22  and  C_23
REMARK    8  A    between atoms: N_24  and  C_25
REMARK    9  A    between atoms: C_25  and  C_26
REMARK   10  A    between atoms: C_25  and  C_27
REMARK   11  A    between atoms: C_27  and  C_28
REMARK                            x       y       z     vdW  Elec       q    Type
REMARK                         _______ _______ _______ _____ _____    ______ ____
ROOT
ATOM      1  C   UNL     1      -2.443  13.055  20.319  0.00  0.00    +0.000 A 
ATOM      2  N   UNL     1      -3.336  12.394  19.602  0.00  0.00    +0.000 NA
ATOM      3  C   UNL     1      -4.475  12.419  20.312  0.00  0.00    +0.000 A 
ATOM      4  C   UNL     1      -4.345  13.112  21.476  0.00  0.00    +0.000 A 
ATOM      5  C   UNL     1      -5.453  13.256  22.372  0.00  0.00    +0.000 A 
ATOM      6  O   UNL     1      -5.390  13.903  23.416  0.00  0.00    +0.000 OA
ATOM      7  N   UNL     1      -6.603  12.582  21.956  0.00  0.00    +0.000 N 
ATOM      8  C   UNL     1      -7.763  12.608  22.824  0.00  0.00    +0.000 C 
ATOM      9  C   UNL     1      -6.754  11.875  20.749  0.00  0.00    +0.000 A 
ATOM     10  O   UNL     1      -7.825  11.342  20.451  0.00  0.00    +0.000 OA
ATOM     11  N   UNL     1      -5.642  11.813  19.918  0.00  0.00    +0.000 N 
ATOM     12  C   UNL     1      -5.700  11.114  18.646  0.00  0.00    +0.000 C 
ATOM     13  N   UNL     1      -3.022  13.548  21.498  0.00  0.00    +0.000 N 
ENDROOT
BRANCH  13  14
ATOM     14  C   UNL     1      -2.407  14.479  22.456  0.00  0.00    +0.000 C 
ATOM     15  C   UNL     1      -1.544  13.794  23.523  0.00  0.00    +0.000 C 
BRANCH  14  16
ATOM     16  C   UNL     1      -1.717  15.723  21.908  0.00  0.00    +0.000 C 
ATOM     17  C   UNL     1      -2.395  16.658  20.948  0.00  0.00    +0.000 C 
ATOM     18  O   UNL     1      -0.523  15.923  22.175  0.00  0.00    +0.000 OA
ENDBRANCH  14  16
ENDBRANCH  13  14
BRANCH   1  19
ATOM     19  C   UNL     1      -1.015  13.112  19.835  0.00  0.00    +0.000 C 
BRANCH  19  23
ATOM     20  N   UNL     1       0.885  10.106  19.256  0.00  0.00    +0.000 N 
ATOM     21  C   UNL     1      -0.372  10.098  20.014  0.00  0.00    +0.000 C 
ATOM     22  C   UNL     1      -0.359  11.183  21.126  0.00  0.00    +0.000 C 
ATOM     23  N   UNL     1       0.043  12.554  20.687  0.00  0.00    +0.000 NA
ATOM     24  C   UNL     1       1.342  12.420  19.987  0.00  0.00    +0.000 C 
ATOM     25  C   UNL     1       1.382  11.415  18.814  0.00  0.00    +0.000 C 
BRANCH  20  29
ATOM     26  C   UNL     1       3.061   6.568  18.518  0.00  0.00    +0.000 A 
ATOM     27  C   UNL     1       2.452   6.773  19.751  0.00  0.00    +0.000 A 
ATOM     28  C   UNL     1       1.736   7.952  19.995  0.00  0.00    +0.000 A 
ATOM     29  C   UNL     1       1.627   8.965  19.027  0.00  0.00    +0.000 A 
ATOM     30  C   UNL     1       2.287   8.750  17.815  0.00  0.00    +0.000 A 
ATOM     31  C   UNL     1       2.996   7.570  17.556  0.00  0.00    +0.000 A 
BRANCH  26  33
ATOM     32  C   UNL     1       4.782   5.161  19.296  0.00  0.00    +0.000 C 
ATOM     33  O   UNL     1       3.719   5.379  18.370  0.00  0.00    +0.000 OA
ENDBRANCH  26  33
ENDBRANCH  20  29
ENDBRANCH  19  23
ENDBRANCH   1  19
TORSDOF 6
ENDMDL
MODEL 5
REMARK VINA RESULT:      -6.8      3.008      5.095
REMARK  Name = 
REMARK  11 active torsions:
REMARK  status: ('A' for Active; 'I' for Inactive)
REMARK    1  A    between atoms: C_1  and  O_2
REMARK    2  A    between atoms: O_2  and  C_3
REMARK    3  A    between atoms: C_6  and  N_7
REMARK    4  A    between atoms: N_10  and  C_11
REMARK    5  A    between atoms: C_11  and  C_12
REMARK    6  A    between atoms: N_18  and  C_19
REMARK    7  A    between atoms: N_22  and  C_23
REMARK    8  A    between atoms: N_24  and  C_25
REMARK    9  A    between atoms: C_25  and  C_26
REMARK   10  A    between atoms: C_25  and  C_27
REMARK   11  A    between atoms: C_27  and  C_28
REMARK                            x       y       z     vdW  Elec       q    Type
REMARK                         _______ _______ _______ _____ _____    ______ ____
ROOT
ATOM      1  C   UNL     1      -1.911  12.285  19.256  0.00  0.00    +0.000 A 
ATOM      2  N   UNL     1      -2.988  11.866  18.614  0.00  0.00    +0.000 NA
ATOM      3  C   UNL     1      -4.025  12.103  19.432  0.00  0.00    +0.000 A 
ATOM      4  C   UNL     1      -3.642  12.698  20.595  0.00  0.00    +0.000 A 
ATOM      5  C   UNL     1      -4.605  13.037  21.598  0.00  0.00    +0.000 A 
ATOM      6  O   UNL     1      -4.309  13.607  22.647  0.00  0.00    +0.000 OA
ATOM      7  N   UNL     1      -5.908  12.647  21.281  0.00  0.00    +0.000 N 
ATOM      8  C   UNL     1      -6.951  12.883  22.258  0.00  0.00    +0.000 C 
ATOM      9  C   UNL     1      -6.319  12.045  20.077  0.00  0.00    +0.000 A 
ATOM     10  O   UNL     1      -7.503  11.769  19.872  0.00  0.00    +0.000 OA
ATOM     11  N   UNL     1      -5.328  11.783  19.139  0.00  0.00    +0.000 N 
ATOM     12  C   UNL     1      -5.652  11.171  17.862  0.00  0.00    +0.000 C 
ATOM     13  N   UNL     1      -2.259  12.837  20.498  0.00  0.00    +0.000 N 
ENDROOT
BRANCH  13  14
ATOM     14  C   UNL     1      -1.371  13.569  21.413  0.00  0.00    +0.000 C 
ATOM     15  C   UNL     1      -1.633  15.080  21.457  0.00  0.00    +0.000 C 
BRANCH  14  16
ATOM     16  C   UNL     1      -1.160  13.008  22.814  0.00  0.00    +0.000 C 
ATOM     17  C   UNL     1      -1.467  11.579  23.159  0.00  0.00    +0.000 C 
ATOM     18  O   UNL     1      -0.822  13.772  23.730  0.00  0.00    +0.000 OA
ENDBRANCH  14  16
ENDBRANCH  13  14
BRANCH   1  19
ATOM     19  C   UNL     1      -0.556  12.055  18.635  0.00  0.00    +0.000 C 
BRANCH  19  23
ATOM     20  N   UNL     1       1.517   9.108  18.674  0.00  0.00    +0.000 N 
ATOM     21  C   UNL     1       0.311   9.222  19.503  0.00  0.00    +0.000 C 
ATOM     22  C   UNL     1       0.313  10.550  20.308  0.00  0.00    +0.000 C 
ATOM     23  N   UNL     1       0.589  11.787  19.515  0.00  0.00    +0.000 NA
ATOM     24  C   UNL     1       1.850  11.553  18.774  0.00  0.00    +0.000 C 
ATOM     25  C   UNL     1       1.892  10.289  17.886  0.00  0.00    +0.000 C 
BRANCH  20  29
ATOM     26  C   UNL     1       3.903   5.629  18.631  0.00  0.00    +0.000 A 
ATOM     27  C   UNL     1       3.023   5.864  19.682  0.00  0.00    +0.000 A 
ATOM     28  C   UNL     1       2.237   7.023  19.696  0.00  0.00    +0.000 A 
ATOM     29  C   UNL     1       2.324   7.988  18.678  0.00  0.00    +0.000 A 
ATOM     30  C   UNL     1       3.249   7.746  17.660  0.00  0.00    +0.000 A 
ATOM     31  C   UNL     1       4.031   6.585  17.629  0.00  0.00    +0.000 A 
BRANCH  26  33
ATOM     32  C   UNL     1       3.931   3.317  18.186  0.00  0.00    +0.000 C 
ATOM     33  O   UNL     1       4.611   4.461  18.698  0.00  0.00    +0.000 OA
ENDBRANCH  26  33
ENDBRANCH  20  29
ENDBRANCH  19  23
ENDBRANCH   1  19
TORSDOF 6
ENDMDL
MODEL 6
REMARK VINA RESULT:      -6.8      3.084      4.781
REMARK  Name = 
REMARK  11 active torsions:
REMARK  status: ('A' for Active; 'I' for Inactive)
REMARK    1  A    between atoms: C_1  and  O_2
REMARK    2  A    between atoms: O_2  and  C_3
REMARK    3  A    between atoms: C_6  and  N_7
REMARK    4  A    between atoms: N_10  and  C_11
REMARK    5  A    between atoms: C_11  and  C_12
REMARK    6  A    between atoms: N_18  and  C_19
REMARK    7  A    between atoms: N_22  and  C_23
REMARK    8  A    between atoms: N_24  and  C_25
REMARK    9  A    between atoms: C_25  and  C_26
REMARK   10  A    between atoms: C_25  and  C_27
REMARK   11  A    between atoms: C_27  and  C_28
REMARK                            x       y       z     vdW  Elec       q    Type
REMARK                         _______ _______ _______ _____ _____    ______ ____
ROOT
ATOM      1  C   UNL     1      -1.648  11.110  19.063  0.00  0.00    +0.000 A 
ATOM      2  N   UNL     1      -2.789  11.101  18.394  0.00  0.00    +0.000 NA
ATOM      3  C   UNL     1      -3.594  11.973  19.020  0.00  0.00    +0.000 A 
ATOM      4  C   UNL     1      -2.984  12.574  20.078  0.00  0.00    +0.000 A 
ATOM      5  C   UNL     1      -3.679  13.541  20.873  0.00  0.00    +0.000 A 
ATOM      6  O   UNL     1      -3.156  14.135  21.815  0.00  0.00    +0.000 OA
ATOM      7  N   UNL     1      -5.007  13.736  20.488  0.00  0.00    +0.000 N 
ATOM      8  C   UNL     1      -5.820  14.646  21.268  0.00  0.00    +0.000 C 
ATOM      9  C   UNL     1      -5.644  13.133  19.388  0.00  0.00    +0.000 A 
ATOM     10  O   UNL     1      -6.814  13.396  19.103  0.00  0.00    +0.000 OA
ATOM     11  N   UNL     1      -4.889  12.233  18.645  0.00  0.00    +0.000 N 
ATOM     12  C   UNL     1      -5.454  11.564  17.486  0.00  0.00    +0.000 C 
ATOM     13  N   UNL     1      -1.703  12.031  20.120  0.00  0.00    +0.000 N 
ENDROOT
BRANCH  13  14
ATOM     14  C   UNL     1      -0.581  12.458  20.969  0.00  0.00    +0.000 C 
ATOM     15  C   UNL     1      -0.089  13.882  20.680  0.00  0.00    +0.000 C 
BRANCH  14  16
ATOM     16  C   UNL     1      -0.677  12.206  22.470  0.00  0.00    +0.000 C 
ATOM     17  C   UNL     1      -1.181  10.908  23.033  0.00  0.00    +0.000 C 
ATOM     18  O   UNL     1      -0.432  13.130  23.259  0.00  0.00    +0.000 OA
ENDBRANCH  14  16
ENDBRANCH  13  14
BRANCH   1  19
ATOM     19  C   UNL     1      -0.561  10.143  18.665  0.00  0.00    +0.000 C 
BRANCH  19  23
ATOM     20  N   UNL     1       2.176   7.800  18.625  0.00  0.00    +0.000 N 
ATOM     21  C   UNL     1       1.243   7.887  19.754  0.00  0.00    +0.000 C 
ATOM     22  C   UNL     1       1.089   9.355  20.238  0.00  0.00    +0.000 C 
ATOM     23  N   UNL     1       0.800  10.361  19.171  0.00  0.00    +0.000 NA
ATOM     24  C   UNL     1       1.840  10.196  18.129  0.00  0.00    +0.000 C 
ATOM     25  C   UNL     1       1.996   8.776  17.542  0.00  0.00    +0.000 C 
BRANCH  20  29
ATOM     26  C   UNL     1       5.462   5.155  18.591  0.00  0.00    +0.000 A 
ATOM     27  C   UNL     1       5.334   6.128  17.605  0.00  0.00    +0.000 A 
ATOM     28  C   UNL     1       4.238   7.000  17.616  0.00  0.00    +0.000 A 
ATOM     29  C   UNL     1       3.232   6.911  18.593  0.00  0.00    +0.000 A 
ATOM     30  C   UNL     1       3.365   5.896  19.543  0.00  0.00    +0.000 A 
ATOM     31  C   UNL     1       4.463   5.026  19.549  0.00  0.00    +0.000 A 
BRANCH  26  33
ATOM     32  C   UNL     1       7.466   4.696  17.442  0.00  0.00    +0.000 C 
ATOM     33  O   UNL     1       6.576   4.366  18.506  0.00  0.00    +0.000 OA
ENDBRANCH  26  33
ENDBRANCH  20  29
ENDBRANCH  19  23
ENDBRANCH   1  19
TORSDOF 6
ENDMDL
MODEL 7
REMARK VINA RESULT:      -6.8      3.371      5.824
REMARK  Name = 
REMARK  11 active torsions:
REMARK  status: ('A' for Active; 'I' for Inactive)
REMARK    1  A    between atoms: C_1  and  O_2
REMARK    2  A    between atoms: O_2  and  C_3
REMARK    3  A    between atoms: C_6  and  N_7
REMARK    4  A    between atoms: N_10  and  C_11
REMARK    5  A    between atoms: C_11  and  C_12
REMARK    6  A    between atoms: N_18  and  C_19
REMARK    7  A    between atoms: N_22  and  C_23
REMARK    8  A    between atoms: N_24  and  C_25
REMARK    9  A    between atoms: C_25  and  C_26
REMARK   10  A    between atoms: C_25  and  C_27
REMARK   11  A    between atoms: C_27  and  C_28
REMARK                            x       y       z     vdW  Elec       q    Type
REMARK                         _______ _______ _______ _____ _____    ______ ____
ROOT
ATOM      1  C   UNL     1      -2.454  13.188  20.520  0.00  0.00    +0.000 A 
ATOM      2  N   UNL     1      -3.341  12.537  19.786  0.00  0.00    +0.000 NA
ATOM      3  C   UNL     1      -4.480  12.534  20.496  0.00  0.00    +0.000 A 
ATOM      4  C   UNL     1      -4.357  13.198  21.677  0.00  0.00    +0.000 A 
ATOM      5  C   UNL     1      -5.466  13.310  22.576  0.00  0.00    +0.000 A 
ATOM      6  O   UNL     1      -5.410  13.931  23.635  0.00  0.00    +0.000 OA
ATOM      7  N   UNL     1      -6.610  12.636  22.142  0.00  0.00    +0.000 N 
ATOM      8  C   UNL     1      -7.770  12.630  23.009  0.00  0.00    +0.000 C 
ATOM      9  C   UNL     1      -6.755  11.959  20.917  0.00  0.00    +0.000 A 
ATOM     10  O   UNL     1      -7.820  11.423  20.605  0.00  0.00    +0.000 OA
ATOM     11  N   UNL     1      -5.642  11.928  20.086  0.00  0.00    +0.000 N 
ATOM     12  C   UNL     1      -5.693  11.260  18.796  0.00  0.00    +0.000 C 
ATOM     13  N   UNL     1      -3.038  13.645  21.711  0.00  0.00    +0.000 N 
ENDROOT
BRANCH  13  14
ATOM     14  C   UNL     1      -2.432  14.558  22.691  0.00  0.00    +0.000 C 
ATOM     15  C   UNL     1      -1.580  13.852  23.754  0.00  0.00    +0.000 C 
BRANCH  14  16
ATOM     16  C   UNL     1      -1.735  15.812  22.174  0.00  0.00    +0.000 C 
ATOM     17  C   UNL     1      -0.281  16.083  22.430  0.00  0.00    +0.000 C 
ATOM     18  O   UNL     1      -2.404  16.690  21.611  0.00  0.00    +0.000 OA
ENDBRANCH  14  16
ENDBRANCH  13  14
BRANCH   1  19
ATOM     19  C   UNL     1      -1.027  13.269  20.038  0.00  0.00    +0.000 C 
BRANCH  19  23
ATOM     20  N   UNL     1       0.757  10.201  19.418  0.00  0.00    +0.000 N 
ATOM     21  C   UNL     1      -0.480  10.236  20.207  0.00  0.00    +0.000 C 
ATOM     22  C   UNL     1      -0.402  11.321  21.316  0.00  0.00    +0.000 C 
ATOM     23  N   UNL     1       0.034  12.678  20.864  0.00  0.00    +0.000 NA
ATOM     24  C   UNL     1       1.309  12.500  20.132  0.00  0.00    +0.000 C 
ATOM     25  C   UNL     1       1.286  11.492  18.961  0.00  0.00    +0.000 C 
BRANCH  20  29
ATOM     26  C   UNL     1       2.984   6.689  18.707  0.00  0.00    +0.000 A 
ATOM     27  C   UNL     1       2.876   7.664  17.720  0.00  0.00    +0.000 A 
ATOM     28  C   UNL     1       2.130   8.825  17.958  0.00  0.00    +0.000 A 
ATOM     29  C   UNL     1       1.456   9.036  19.173  0.00  0.00    +0.000 A 
ATOM     30  C   UNL     1       1.545   8.020  20.127  0.00  0.00    +0.000 A 
ATOM     31  C   UNL     1       2.298   6.859  19.905  0.00  0.00    +0.000 A 
BRANCH  26  33
ATOM     32  C   UNL     1       4.951   5.471  19.144  0.00  0.00    +0.000 C 
ATOM     33  O   UNL     1       3.749   5.602  18.388  0.00  0.00    +0.000 OA
ENDBRANCH  26  33
ENDBRANCH  20  29
ENDBRANCH  19  23
ENDBRANCH   1  19
TORSDOF 6
ENDMDL
MODEL 8
REMARK VINA RESULT:      -6.8      2.009      4.373
REMARK  Name = 
REMARK  11 active torsions:
REMARK  status: ('A' for Active; 'I' for Inactive)
REMARK    1  A    between atoms: C_1  and  O_2
REMARK    2  A    between atoms: O_2  and  C_3
REMARK    3  A    between atoms: C_6  and  N_7
REMARK    4  A    between atoms: N_10  and  C_11
REMARK    5  A    between atoms: C_11  and  C_12
REMARK    6  A    between atoms: N_18  and  C_19
REMARK    7  A    between atoms: N_22  and  C_23
REMARK    8  A    between atoms: N_24  and  C_25
REMARK    9  A    between atoms: C_25  and  C_26
REMARK   10  A    between atoms: C_25  and  C_27
REMARK   11  A    between atoms: C_27  and  C_28
REMARK                            x       y       z     vdW  Elec       q    Type
REMARK                         _______ _______ _______ _____ _____    ______ ____
ROOT
ATOM      1  C   UNL     1       0.252  12.515  21.052  0.00  0.00    +0.000 A 
ATOM      2  N   UNL     1      -0.848  12.224  21.726  0.00  0.00    +0.000 NA
ATOM      3  C   UNL     1      -1.080  13.274  22.529  0.00  0.00    +0.000 A 
ATOM      4  C   UNL     1      -0.158  14.262  22.371  0.00  0.00    +0.000 A 
ATOM      5  C   UNL     1      -0.236  15.469  23.137  0.00  0.00    +0.000 A 
ATOM      6  O   UNL     1       0.553  16.402  23.001  0.00  0.00    +0.000 OA
ATOM      7  N   UNL     1      -1.283  15.481  24.061  0.00  0.00    +0.000 N 
ATOM      8  C   UNL     1      -1.412  16.629  24.936  0.00  0.00    +0.000 C 
ATOM      9  C   UNL     1      -2.252  14.473  24.225  0.00  0.00    +0.000 A 
ATOM     10  O   UNL     1      -3.164  14.589  25.046  0.00  0.00    +0.000 OA
ATOM     11  N   UNL     1      -2.125  13.349  23.416  0.00  0.00    +0.000 N 
ATOM     12  C   UNL     1      -3.080  12.257  23.503  0.00  0.00    +0.000 C 
ATOM     13  N   UNL     1       0.721  13.791  21.399  0.00  0.00    +0.000 N 
ENDROOT
BRANCH  13  14
ATOM     14  C   UNL     1       1.803  14.538  20.739  0.00  0.00    +0.000 C 
ATOM     15  C   UNL     1       3.201  13.962  20.994  0.00  0.00    +0.000 C 
BRANCH  14  16
ATOM     16  C   UNL     1       1.625  14.918  19.273  0.00  0.00    +0.000 C 
ATOM     17  C   UNL     1       0.569  15.883  18.819  0.00  0.00    +0.000 C 
ATOM     18  O   UNL     1       2.301  14.339  18.409  0.00  0.00    +0.000 OA
ENDBRANCH  14  16
ENDBRANCH  13  14
BRANCH   1  19
ATOM     19  C   UNL     1       0.841  11.475  20.132  0.00  0.00    +0.000 C 
BRANCH  19  23
ATOM     20  N   UNL     1       1.983   8.125  19.458  0.00  0.00    +0.000 N 
ATOM     21  C   UNL     1       1.871   9.137  18.401  0.00  0.00    +0.000 C 
ATOM     22  C   UNL     1       0.473   9.813  18.423  0.00  0.00    +0.000 C 
ATOM     23  N   UNL     1       0.020  10.318  19.755  0.00  0.00    +0.000 NA
ATOM     24  C   UNL     1       0.136   9.188  20.706  0.00  0.00    +0.000 C 
ATOM     25  C   UNL     1       1.524   8.515  20.797  0.00  0.00    +0.000 C 
BRANCH  20  29
ATOM     26  C   UNL     1       3.403   4.212  18.772  0.00  0.00    +0.000 A 
ATOM     27  C   UNL     1       3.603   5.209  17.822  0.00  0.00    +0.000 A 
ATOM     28  C   UNL     1       3.124   6.504  18.051  0.00  0.00    +0.000 A 
ATOM     29  C   UNL     1       2.415   6.836  19.218  0.00  0.00    +0.000 A 
ATOM     30  C   UNL     1       2.191   5.805  20.132  0.00  0.00    +0.000 A 
ATOM     31  C   UNL     1       2.675   4.507  19.919  0.00  0.00    +0.000 A 
BRANCH  26  33
ATOM     32  C   UNL     1       2.972   1.926  18.407  0.00  0.00    +0.000 C 
ATOM     33  O   UNL     1       3.924   2.986  18.466  0.00  0.00    +0.000 OA
ENDBRANCH  26  33
ENDBRANCH  20  29
ENDBRANCH  19  23
ENDBRANCH   1  19
TORSDOF 6
ENDMDL
MODEL 9
REMARK VINA RESULT:      -6.8      2.008      4.315
REMARK  Name = 
REMARK  11 active torsions:
REMARK  status: ('A' for Active; 'I' for Inactive)
REMARK    1  A    between atoms: C_1  and  O_2
REMARK    2  A    between atoms: O_2  and  C_3
REMARK    3  A    between atoms: C_6  and  N_7
REMARK    4  A    between atoms: N_10  and  C_11
REMARK    5  A    between atoms: C_11  and  C_12
REMARK    6  A    between atoms: N_18  and  C_19
REMARK    7  A    between atoms: N_22  and  C_23
REMARK    8  A    between atoms: N_24  and  C_25
REMARK    9  A    between atoms: C_25  and  C_26
REMARK   10  A    between atoms: C_25  and  C_27
REMARK   11  A    between atoms: C_27  and  C_28
REMARK                            x       y       z     vdW  Elec       q    Type
REMARK                         _______ _______ _______ _____ _____    ______ ____
ROOT
ATOM      1  C   UNL     1       0.191  12.534  21.145  0.00  0.00    +0.000 A 
ATOM      2  N   UNL     1      -0.908  12.251  21.823  0.00  0.00    +0.000 NA
ATOM      3  C   UNL     1      -1.149  13.318  22.601  0.00  0.00    +0.000 A 
ATOM      4  C   UNL     1      -0.234  14.309  22.421  0.00  0.00    +0.000 A 
ATOM      5  C   UNL     1      -0.322  15.533  23.159  0.00  0.00    +0.000 A 
ATOM      6  O   UNL     1       0.461  16.467  23.002  0.00  0.00    +0.000 OA
ATOM      7  N   UNL     1      -1.371  15.558  24.081  0.00  0.00    +0.000 N 
ATOM      8  C   UNL     1      -1.510  16.726  24.927  0.00  0.00    +0.000 C 
ATOM      9  C   UNL     1      -2.333  14.548  24.266  0.00  0.00    +0.000 A 
ATOM     10  O   UNL     1      -3.247  14.677  25.082  0.00  0.00    +0.000 OA
ATOM     11  N   UNL     1      -2.197  13.407  23.484  0.00  0.00    +0.000 N 
ATOM     12  C   UNL     1      -3.144  12.311  23.595  0.00  0.00    +0.000 C 
ATOM     13  N   UNL     1       0.651  13.821  21.462  0.00  0.00    +0.000 N 
ENDROOT
BRANCH  13  14
ATOM     14  C   UNL     1       1.728  14.560  20.787  0.00  0.00    +0.000 C 
ATOM     15  C   UNL     1       3.138  14.100  21.180  0.00  0.00    +0.000 C 
BRANCH  14  16
ATOM     16  C   UNL     1       1.621  14.773  19.281  0.00  0.00    +0.000 C 
ATOM     17  C   UNL     1       2.669  14.281  18.326  0.00  0.00    +0.000 C 
ATOM     18  O   UNL     1       0.696  15.464  18.830  0.00  0.00    +0.000 OA
ENDBRANCH  14  16
ENDBRANCH  13  14
BRANCH   1  19
ATOM     19  C   UNL     1       0.789  11.477  20.250  0.00  0.00    +0.000 C 
BRANCH  19  23
ATOM     20  N   UNL     1       1.948   8.147  19.508  0.00  0.00    +0.000 N 
ATOM     21  C   UNL     1       1.796   9.169  18.465  0.00  0.00    +0.000 C 
ATOM     22  C   UNL     1       0.391   9.829  18.534  0.00  0.00    +0.000 C 
ATOM     23  N   UNL     1      -0.030  10.314  19.884  0.00  0.00    +0.000 NA
ATOM     24  C   UNL     1       0.126   9.176  20.819  0.00  0.00    +0.000 C 
ATOM     25  C   UNL     1       1.523   8.518  20.863  0.00  0.00    +0.000 C 
BRANCH  20  29
ATOM     26  C   UNL     1       3.193   4.210  18.645  0.00  0.00    +0.000 A 
ATOM     27  C   UNL     1       2.539   4.494  19.839  0.00  0.00    +0.000 A 
ATOM     28  C   UNL     1       2.133   5.803  20.125  0.00  0.00    +0.000 A 
ATOM     29  C   UNL     1       2.388   6.866  19.241  0.00  0.00    +0.000 A 
ATOM     30  C   UNL     1       3.086   6.558  18.072  0.00  0.00    +0.000 A 
ATOM     31  C   UNL     1       3.487   5.250  17.770  0.00  0.00    +0.000 A 
BRANCH  26  33
ATOM     32  C   UNL     1       2.459   1.973  18.602  0.00  0.00    +0.000 C 
ATOM     33  O   UNL     1       3.532   2.900  18.448  0.00  0.00    +0.000 OA
ENDBRANCH  26  33
ENDBRANCH  20  29
ENDBRANCH  19  23
ENDBRANCH   1  19
TORSDOF 6
ENDMDL
