MODEL 1
REMARK VINA RESULT:      -8.5      0.000      0.000
REMARK  Name = 
REMARK  6 active torsions:
REMARK  status: ('A' for Active; 'I' for Inactive)
REMARK    1  A    between atoms: C_1  and  N_2
REMARK    2  A    between atoms: N_2  and  C_3
REMARK    3  A    between atoms: N_2  and  C_4
REMARK    4  A    between atoms: C_4  and  C_5
REMARK    5  A    between atoms: C_7  and  C_8
REMARK    6  A    between atoms: C_14  and  C_15
REMARK                            x       y       z     vdW  Elec       q    Type
REMARK                         _______ _______ _______ _____ _____    ______ ____
ROOT
ATOM      1  C   UNL     1       2.042   6.441  20.113  0.00  0.00    +0.000 A 
ATOM      2  C   UNL     1       1.476   5.522  21.007  0.00  0.00    +0.000 A 
ATOM      3  C   UNL     1       1.846   4.170  21.009  0.00  0.00    +0.000 A 
ATOM      4  C   UNL     1       2.818   3.777  20.083  0.00  0.00    +0.000 A 
ATOM      5  N   UNL     1       3.398   2.567  19.831  0.00  0.00    +0.000 N 
ATOM      6  N   UNL     1       4.309   2.580  18.845  0.00  0.00    +0.000 NA
ATOM      7  C   UNL     1       4.354   3.865  18.451  0.00  0.00    +0.000 A 
ATOM      8  C   UNL     1       3.410   4.653  19.182  0.00  0.00    +0.000 A 
ATOM      9  C   UNL     1       2.996   6.000  19.182  0.00  0.00    +0.000 A 
ATOM     10  H   UNL     1       3.216   1.687  20.300  0.00  0.00    +0.000 HD
ENDROOT
BRANCH   7  11
ATOM     11  C   UNL     1       5.292   4.307  17.415  0.00  0.00    +0.000 A 
ATOM     12  C   UNL     1       6.289   5.262  17.719  0.00  0.00    +0.000 A 
ATOM     13  C   UNL     1       7.186   5.710  16.741  0.00  0.00    +0.000 A 
ATOM     14  C   UNL     1       7.059   5.189  15.470  0.00  0.00    +0.000 A 
ATOM     15  C   UNL     1       6.092   4.264  15.165  0.00  0.00    +0.000 A 
ATOM     16  C   UNL     1       5.195   3.808  16.106  0.00  0.00    +0.000 A 
ATOM     17  O   UNL     1       6.126   3.884  13.858  0.00  0.00    +0.000 OA
ATOM     18  C   UNL     1       7.185   4.728  13.364  0.00  0.00    +0.000 C 
ATOM     19  O   UNL     1       7.821   5.515  14.393  0.00  0.00    +0.000 OA
ENDBRANCH   7  11
BRANCH   1  22
ATOM     20  C   UNL     1       1.248   9.805  19.446  0.00  0.00    +0.000 A 
ATOM     21  N   UNL     1       1.614   8.622  19.005  0.00  0.00    +0.000 NA
ATOM     22  C   UNL     1       1.651   7.845  20.142  0.00  0.00    +0.000 A 
ATOM     23  N   UNL     1       1.292   8.503  21.257  0.00  0.00    +0.000 NA
ATOM     24  N   UNL     1       1.058   9.738  20.793  0.00  0.00    +0.000 N 
ATOM     25  H   UNL     1       0.822  10.487  21.432  0.00  0.00    +0.000 HD
BRANCH  20  26
ATOM     26  C   UNL     1       1.116  11.075  18.684  0.00  0.00    +0.000 C 
BRANCH  26  28
ATOM     27  C   UNL     1      -0.197  13.090  18.359  0.00  0.00    +0.000 C 
ATOM     28  N   UNL     1      -0.191  11.725  18.906  0.00  0.00    +0.000 NA
ATOM     29  C   UNL     1      -1.242  10.939  18.252  0.00  0.00    +0.000 C 
ENDBRANCH  26  28
ENDBRANCH  20  26
ENDBRANCH   1  22
TORSDOF 4
ENDMDL
MODEL 2
REMARK VINA RESULT:      -8.5      1.320      1.576
REMARK  Name = 
REMARK  6 active torsions:
REMARK  status: ('A' for Active; 'I' for Inactive)
REMARK    1  A    between atoms: C_1  and  N_2
REMARK    2  A    between atoms: N_2  and  C_3
REMARK    3  A    between atoms: N_2  and  C_4
REMARK    4  A    between atoms: C_4  and  C_5
REMARK    5  A    between atoms: C_7  and  C_8
REMARK    6  A    between atoms: C_14  and  C_15
REMARK                            x       y       z     vdW  Elec       q    Type
REMARK                         _______ _______ _______ _____ _____    ______ ____
ROOT
ATOM      1  C   UNL     1       2.050   6.782  19.943  0.00  0.00    +0.000 A 
ATOM      2  C   UNL     1       1.490   5.946  20.918  0.00  0.00    +0.000 A 
ATOM      3  C   UNL     1       1.865   4.601  21.040  0.00  0.00    +0.000 A 
ATOM      4  C   UNL     1       2.834   4.128  20.148  0.00  0.00    +0.000 A 
ATOM      5  N   UNL     1       3.416   2.902  20.002  0.00  0.00    +0.000 N 
ATOM      6  N   UNL     1       4.321   2.829  19.014  0.00  0.00    +0.000 NA
ATOM      7  C   UNL     1       4.361   4.073  18.506  0.00  0.00    +0.000 A 
ATOM      8  C   UNL     1       3.418   4.921  19.169  0.00  0.00    +0.000 A 
ATOM      9  C   UNL     1       3.001   6.262  19.050  0.00  0.00    +0.000 A 
ATOM     10  H   UNL     1       3.238   2.067  20.548  0.00  0.00    +0.000 HD
ENDROOT
BRANCH   7  11
ATOM     11  C   UNL     1       5.292   4.423  17.430  0.00  0.00    +0.000 A 
ATOM     12  C   UNL     1       6.336   5.349  17.665  0.00  0.00    +0.000 A 
ATOM     13  C   UNL     1       7.228   5.708  16.647  0.00  0.00    +0.000 A 
ATOM     14  C   UNL     1       7.050   5.132  15.407  0.00  0.00    +0.000 A 
ATOM     15  C   UNL     1       6.038   4.235  15.169  0.00  0.00    +0.000 A 
ATOM     16  C   UNL     1       5.145   3.865  16.150  0.00  0.00    +0.000 A 
ATOM     17  O   UNL     1       6.026   3.790  13.883  0.00  0.00    +0.000 OA
ATOM     18  C   UNL     1       7.108   4.562  13.324  0.00  0.00    +0.000 C 
ATOM     19  O   UNL     1       7.800   5.371  14.299  0.00  0.00    +0.000 OA
ENDBRANCH   7  11
BRANCH   1  22
ATOM     20  C   UNL     1       0.972  10.095  20.452  0.00  0.00    +0.000 A 
ATOM     21  N   UNL     1       1.268   8.914  20.949  0.00  0.00    +0.000 NA
ATOM     22  C   UNL     1       1.655   8.183  19.848  0.00  0.00    +0.000 A 
ATOM     23  N   UNL     1       1.634   8.881  18.700  0.00  0.00    +0.000 NA
ATOM     24  N   UNL     1       1.186  10.077  19.107  0.00  0.00    +0.000 N 
ATOM     25  H   UNL     1       1.007  10.810  18.432  0.00  0.00    +0.000 HD
BRANCH  20  26
ATOM     26  C   UNL     1       0.414  11.280  21.155  0.00  0.00    +0.000 C 
BRANCH  26  28
ATOM     27  C   UNL     1      -1.136  11.063  23.010  0.00  0.00    +0.000 C 
ATOM     28  N   UNL     1      -0.996  11.083  21.546  0.00  0.00    +0.000 NA
ATOM     29  C   UNL     1      -1.809  12.175  21.000  0.00  0.00    +0.000 C 
ENDBRANCH  26  28
ENDBRANCH  20  26
ENDBRANCH   1  22
TORSDOF 4
ENDMDL
MODEL 3
REMARK VINA RESULT:      -8.4      1.306      1.601
REMARK  Name = 
REMARK  6 active torsions:
REMARK  status: ('A' for Active; 'I' for Inactive)
REMARK    1  A    between atoms: C_1  and  N_2
REMARK    2  A    between atoms: N_2  and  C_3
REMARK    3  A    between atoms: N_2  and  C_4
REMARK    4  A    between atoms: C_4  and  C_5
REMARK    5  A    between atoms: C_7  and  C_8
REMARK    6  A    between atoms: C_14  and  C_15
REMARK                            x       y       z     vdW  Elec       q    Type
REMARK                         _______ _______ _______ _____ _____    ______ ____
ROOT
ATOM      1  C   UNL     1       2.070   7.218  19.498  0.00  0.00    +0.000 A 
ATOM      2  C   UNL     1       1.536   6.503  20.578  0.00  0.00    +0.000 A 
ATOM      3  C   UNL     1       1.937   5.191  20.866  0.00  0.00    +0.000 A 
ATOM      4  C   UNL     1       2.905   4.625  20.029  0.00  0.00    +0.000 A 
ATOM      5  N   UNL     1       3.508   3.400  20.034  0.00  0.00    +0.000 N 
ATOM      6  N   UNL     1       4.405   3.218  19.052  0.00  0.00    +0.000 NA
ATOM      7  C   UNL     1       4.417   4.388  18.390  0.00  0.00    +0.000 A 
ATOM      8  C   UNL     1       3.465   5.297  18.951  0.00  0.00    +0.000 A 
ATOM      9  C   UNL     1       3.022   6.604  18.667  0.00  0.00    +0.000 A 
ATOM     10  H   UNL     1       3.351   2.639  20.684  0.00  0.00    +0.000 HD
ENDROOT
BRANCH   7  11
ATOM     11  C   UNL     1       5.331   4.613  17.267  0.00  0.00    +0.000 A 
ATOM     12  C   UNL     1       6.439   5.480  17.414  0.00  0.00    +0.000 A 
ATOM     13  C   UNL     1       7.317   5.721  16.349  0.00  0.00    +0.000 A 
ATOM     14  C   UNL     1       7.059   5.088  15.152  0.00  0.00    +0.000 A 
ATOM     15  C   UNL     1       5.985   4.247  14.998  0.00  0.00    +0.000 A 
ATOM     16  C   UNL     1       5.104   3.993  16.027  0.00  0.00    +0.000 A 
ATOM     17  O   UNL     1       5.900   3.731  13.742  0.00  0.00    +0.000 OA
ATOM     18  C   UNL     1       7.009   4.397  13.106  0.00  0.00    +0.000 C 
ATOM     19  O   UNL     1       7.784   5.213  14.009  0.00  0.00    +0.000 OA
ENDBRANCH   7  11
BRANCH   1  22
ATOM     20  C   UNL     1       0.797  10.500  19.558  0.00  0.00    +0.000 A 
ATOM     21  N   UNL     1       1.042   9.370  20.187  0.00  0.00    +0.000 NA
ATOM     22  C   UNL     1       1.648   8.587  19.230  0.00  0.00    +0.000 A 
ATOM     23  N   UNL     1       1.809   9.206  18.048  0.00  0.00    +0.000 NA
ATOM     24  N   UNL     1       1.253  10.403  18.278  0.00  0.00    +0.000 N 
ATOM     25  H   UNL     1       1.172  11.080  17.530  0.00  0.00    +0.000 HD
BRANCH  20  26
ATOM     26  C   UNL     1       0.079  11.700  20.061  0.00  0.00    +0.000 C 
BRANCH  26  28
ATOM     27  C   UNL     1       1.859  13.234  20.670  0.00  0.00    +0.000 C 
ATOM     28  N   UNL     1       0.796  12.352  21.175  0.00  0.00    +0.000 NA
ATOM     29  C   UNL     1      -0.152  13.143  21.966  0.00  0.00    +0.000 C 
ENDBRANCH  26  28
ENDBRANCH  20  26
ENDBRANCH   1  22
TORSDOF 4
ENDMDL
MODEL 4
REMARK VINA RESULT:      -8.4      1.112      1.501
REMARK  Name = 
REMARK  6 active torsions:
REMARK  status: ('A' for Active; 'I' for Inactive)
REMARK    1  A    between atoms: C_1  and  N_2
REMARK    2  A    between atoms: N_2  and  C_3
REMARK    3  A    between atoms: N_2  and  C_4
REMARK    4  A    between atoms: C_4  and  C_5
REMARK    5  A    between atoms: C_7  and  C_8
REMARK    6  A    between atoms: C_14  and  C_15
REMARK                            x       y       z     vdW  Elec       q    Type
REMARK                         _______ _______ _______ _____ _____    ______ ____
ROOT
ATOM      1  C   UNL     1       2.040   7.599  19.240  0.00  0.00    +0.000 A 
ATOM      2  C   UNL     1       1.477   6.966  20.356  0.00  0.00    +0.000 A 
ATOM      3  C   UNL     1       1.843   5.665  20.730  0.00  0.00    +0.000 A 
ATOM      4  C   UNL     1       2.807   5.026  19.943  0.00  0.00    +0.000 A 
ATOM      5  N   UNL     1       3.381   3.790  20.031  0.00  0.00    +0.000 N 
ATOM      6  N   UNL     1       4.284   3.526  19.075  0.00  0.00    +0.000 NA
ATOM      7  C   UNL     1       4.331   4.651  18.341  0.00  0.00    +0.000 A 
ATOM      8  C   UNL     1       3.395   5.616  18.831  0.00  0.00    +0.000 A 
ATOM      9  C   UNL     1       2.986   6.913  18.461  0.00  0.00    +0.000 A 
ATOM     10  H   UNL     1       3.198   3.075  20.726  0.00  0.00    +0.000 HD
ENDROOT
BRANCH   7  11
ATOM     11  C   UNL     1       5.263   4.785  17.217  0.00  0.00    +0.000 A 
ATOM     12  C   UNL     1       6.424   5.582  17.347  0.00  0.00    +0.000 A 
ATOM     13  C   UNL     1       7.320   5.735  16.281  0.00  0.00    +0.000 A 
ATOM     14  C   UNL     1       7.028   5.085  15.101  0.00  0.00    +0.000 A 
ATOM     15  C   UNL     1       5.902   4.311  14.965  0.00  0.00    +0.000 A 
ATOM     16  C   UNL     1       5.002   4.145  15.994  0.00  0.00    +0.000 A 
ATOM     17  O   UNL     1       5.790   3.766  13.723  0.00  0.00    +0.000 OA
ATOM     18  C   UNL     1       6.942   4.340  13.075  0.00  0.00    +0.000 C 
ATOM     19  O   UNL     1       7.764   5.130  13.960  0.00  0.00    +0.000 OA
ENDBRANCH   7  11
BRANCH   1  22
ATOM     20  C   UNL     1       0.695  10.844  19.001  0.00  0.00    +0.000 A 
ATOM     21  N   UNL     1       0.815   9.716  19.668  0.00  0.00    +0.000 NA
ATOM     22  C   UNL     1       1.654   8.959  18.881  0.00  0.00    +0.000 A 
ATOM     23  N   UNL     1       2.074   9.592  17.773  0.00  0.00    +0.000 NA
ATOM     24  N   UNL     1       1.444  10.771  17.866  0.00  0.00    +0.000 N 
ATOM     25  H   UNL     1       1.524  11.452  17.122  0.00  0.00    +0.000 HD
BRANCH  20  26
ATOM     26  C   UNL     1      -0.157  12.019  19.321  0.00  0.00    +0.000 C 
BRANCH  26  28
ATOM     27  C   UNL     1      -2.351  12.645  20.149  0.00  0.00    +0.000 C 
ATOM     28  N   UNL     1      -1.593  11.676  19.343  0.00  0.00    +0.000 NA
ATOM     29  C   UNL     1      -2.115  11.677  17.972  0.00  0.00    +0.000 C 
ENDBRANCH  26  28
ENDBRANCH  20  26
ENDBRANCH   1  22
TORSDOF 4
ENDMDL
MODEL 5
REMARK VINA RESULT:      -8.3      3.941      8.052
REMARK  Name = 
REMARK  6 active torsions:
REMARK  status: ('A' for Active; 'I' for Inactive)
REMARK    1  A    between atoms: C_1  and  N_2
REMARK    2  A    between atoms: N_2  and  C_3
REMARK    3  A    between atoms: N_2  and  C_4
REMARK    4  A    between atoms: C_4  and  C_5
REMARK    5  A    between atoms: C_7  and  C_8
REMARK    6  A    between atoms: C_14  and  C_15
REMARK                            x       y       z     vdW  Elec       q    Type
REMARK                         _______ _______ _______ _____ _____    ______ ____
ROOT
ATOM      1  C   UNL     1       4.732   4.568  17.113  0.00  0.00    +0.000 A 
ATOM      2  C   UNL     1       4.735   3.341  17.790  0.00  0.00    +0.000 A 
ATOM      3  C   UNL     1       4.032   3.157  18.989  0.00  0.00    +0.000 A 
ATOM      4  C   UNL     1       3.315   4.254  19.478  0.00  0.00    +0.000 A 
ATOM      5  N   UNL     1       2.536   4.410  20.588  0.00  0.00    +0.000 N 
ATOM      6  N   UNL     1       2.002   5.633  20.727  0.00  0.00    +0.000 NA
ATOM      7  C   UNL     1       2.423   6.306  19.642  0.00  0.00    +0.000 A 
ATOM      8  C   UNL     1       3.280   5.486  18.839  0.00  0.00    +0.000 A 
ATOM      9  C   UNL     1       4.019   5.651  17.651  0.00  0.00    +0.000 A 
ATOM     10  H   UNL     1       2.326   3.715  21.296  0.00  0.00    +0.000 HD
ENDROOT
BRANCH   7  11
ATOM     11  C   UNL     1       1.995   7.684  19.391  0.00  0.00    +0.000 A 
ATOM     12  C   UNL     1       2.187   8.268  18.117  0.00  0.00    +0.000 A 
ATOM     13  C   UNL     1       1.798   9.589  17.860  0.00  0.00    +0.000 A 
ATOM     14  C   UNL     1       1.227  10.301  18.894  0.00  0.00    +0.000 A 
ATOM     15  C   UNL     1       1.040   9.744  20.135  0.00  0.00    +0.000 A 
ATOM     16  C   UNL     1       1.414   8.449  20.416  0.00  0.00    +0.000 A 
ATOM     17  O   UNL     1       0.473  10.611  21.016  0.00  0.00    +0.000 OA
ATOM     18  C   UNL     1       0.386  11.798  20.204  0.00  0.00    +0.000 C 
ATOM     19  O   UNL     1       0.808  11.593  18.839  0.00  0.00    +0.000 OA
ENDBRANCH   7  11
BRANCH   1  22
ATOM     20  C   UNL     1       6.161   4.300  13.906  0.00  0.00    +0.000 A 
ATOM     21  N   UNL     1       5.348   3.824  14.825  0.00  0.00    +0.000 NA
ATOM     22  C   UNL     1       5.458   4.728  15.858  0.00  0.00    +0.000 A 
ATOM     23  N   UNL     1       6.285   5.753  15.595  0.00  0.00    +0.000 NA
ATOM     24  N   UNL     1       6.724   5.452  14.365  0.00  0.00    +0.000 N 
ATOM     25  H   UNL     1       7.426   6.029  13.919  0.00  0.00    +0.000 HD
BRANCH  20  26
ATOM     26  C   UNL     1       6.522   3.703  12.594  0.00  0.00    +0.000 C 
BRANCH  26  28
ATOM     27  C   UNL     1       4.451   3.305  11.392  0.00  0.00    +0.000 C 
ATOM     28  N   UNL     1       5.544   2.686  12.157  0.00  0.00    +0.000 NA
ATOM     29  C   UNL     1       6.219   1.693  11.315  0.00  0.00    +0.000 C 
ENDBRANCH  26  28
ENDBRANCH  20  26
ENDBRANCH   1  22
TORSDOF 4
ENDMDL
MODEL 6
REMARK VINA RESULT:      -8.0      1.461      1.811
REMARK  Name = 
REMARK  6 active torsions:
REMARK  status: ('A' for Active; 'I' for Inactive)
REMARK    1  A    between atoms: C_1  and  N_2
REMARK    2  A    between atoms: N_2  and  C_3
REMARK    3  A    between atoms: N_2  and  C_4
REMARK    4  A    between atoms: C_4  and  C_5
REMARK    5  A    between atoms: C_7  and  C_8
REMARK    6  A    between atoms: C_14  and  C_15
REMARK                            x       y       z     vdW  Elec       q    Type
REMARK                         _______ _______ _______ _____ _____    ______ ____
ROOT
ATOM      1  C   UNL     1       1.789   5.570  19.946  0.00  0.00    +0.000 A 
ATOM      2  C   UNL     1       1.044   4.536  20.529  0.00  0.00    +0.000 A 
ATOM      3  C   UNL     1       1.260   3.191  20.194  0.00  0.00    +0.000 A 
ATOM      4  C   UNL     1       2.263   2.924  19.256  0.00  0.00    +0.000 A 
ATOM      5  N   UNL     1       2.725   1.753  18.726  0.00  0.00    +0.000 N 
ATOM      6  N   UNL     1       3.718   1.899  17.836  0.00  0.00    +0.000 NA
ATOM      7  C   UNL     1       3.943   3.224  17.800  0.00  0.00    +0.000 A 
ATOM      8  C   UNL     1       3.029   3.915  18.657  0.00  0.00    +0.000 A 
ATOM      9  C   UNL     1       2.770   5.260  18.990  0.00  0.00    +0.000 A 
ATOM     10  H   UNL     1       2.403   0.815  18.933  0.00  0.00    +0.000 HD
ENDROOT
BRANCH   7  11
ATOM     11  C   UNL     1       5.015   3.789  16.977  0.00  0.00    +0.000 A 
ATOM     12  C   UNL     1       6.025   4.582  17.570  0.00  0.00    +0.000 A 
ATOM     13  C   UNL     1       7.051   5.144  16.799  0.00  0.00    +0.000 A 
ATOM     14  C   UNL     1       7.038   4.900  15.442  0.00  0.00    +0.000 A 
ATOM     15  C   UNL     1       6.060   4.134  14.857  0.00  0.00    +0.000 A 
ATOM     16  C   UNL     1       5.039   3.572  15.589  0.00  0.00    +0.000 A 
ATOM     17  O   UNL     1       6.220   4.023  13.510  0.00  0.00    +0.000 OA
ATOM     18  C   UNL     1       7.374   4.862  13.309  0.00  0.00    +0.000 C 
ATOM     19  O   UNL     1       7.934   5.374  14.536  0.00  0.00    +0.000 OA
ENDBRANCH   7  11
BRANCH   1  22
ATOM     20  C   UNL     1       0.801   8.621  21.398  0.00  0.00    +0.000 A 
ATOM     21  N   UNL     1       0.789   7.306  21.413  0.00  0.00    +0.000 NA
ATOM     22  C   UNL     1       1.556   6.959  20.323  0.00  0.00    +0.000 A 
ATOM     23  N   UNL     1       2.060   8.012  19.659  0.00  0.00    +0.000 NA
ATOM     24  N   UNL     1       1.557   9.046  20.348  0.00  0.00    +0.000 N 
ATOM     25  H   UNL     1       1.721   9.995  20.035  0.00  0.00    +0.000 HD
BRANCH  20  26
ATOM     26  C   UNL     1       0.074   9.561  22.290  0.00  0.00    +0.000 C 
BRANCH  26  28
ATOM     27  C   UNL     1      -0.933  10.771  20.442  0.00  0.00    +0.000 C 
ATOM     28  N   UNL     1      -0.122  10.884  21.664  0.00  0.00    +0.000 NA
ATOM     29  C   UNL     1      -0.799  11.776  22.611  0.00  0.00    +0.000 C 
ENDBRANCH  26  28
ENDBRANCH  20  26
ENDBRANCH   1  22
TORSDOF 4
ENDMDL
MODEL 7
REMARK VINA RESULT:      -7.8      3.533      5.511
REMARK  Name = 
REMARK  6 active torsions:
REMARK  status: ('A' for Active; 'I' for Inactive)
REMARK    1  A    between atoms: C_1  and  N_2
REMARK    2  A    between atoms: N_2  and  C_3
REMARK    3  A    between atoms: N_2  and  C_4
REMARK    4  A    between atoms: C_4  and  C_5
REMARK    5  A    between atoms: C_7  and  C_8
REMARK    6  A    between atoms: C_14  and  C_15
REMARK                            x       y       z     vdW  Elec       q    Type
REMARK                         _______ _______ _______ _____ _____    ______ ____
ROOT
ATOM      1  C   UNL     1       0.612   9.787  20.431  0.00  0.00    +0.000 A 
ATOM      2  C   UNL     1       0.766  10.665  19.350  0.00  0.00    +0.000 A 
ATOM      3  C   UNL     1       1.514  10.317  18.217  0.00  0.00    +0.000 A 
ATOM      4  C   UNL     1       2.095   9.044  18.206  0.00  0.00    +0.000 A 
ATOM      5  N   UNL     1       2.861   8.401  17.277  0.00  0.00    +0.000 N 
ATOM      6  N   UNL     1       3.242   7.163  17.629  0.00  0.00    +0.000 NA
ATOM      7  C   UNL     1       2.674   6.970  18.833  0.00  0.00    +0.000 A 
ATOM      8  C   UNL     1       1.966   8.140  19.252  0.00  0.00    +0.000 A 
ATOM      9  C   UNL     1       1.233   8.528  20.391  0.00  0.00    +0.000 A 
ATOM     10  H   UNL     1       3.161   8.754  16.375  0.00  0.00    +0.000 HD
ENDROOT
BRANCH   7  11
ATOM     11  C   UNL     1       2.806   5.691  19.535  0.00  0.00    +0.000 A 
ATOM     12  C   UNL     1       1.869   5.326  20.530  0.00  0.00    +0.000 A 
ATOM     13  C   UNL     1       1.983   4.115  21.225  0.00  0.00    +0.000 A 
ATOM     14  C   UNL     1       3.045   3.294  20.907  0.00  0.00    +0.000 A 
ATOM     15  C   UNL     1       3.961   3.641  19.946  0.00  0.00    +0.000 A 
ATOM     16  C   UNL     1       3.875   4.825  19.249  0.00  0.00    +0.000 A 
ATOM     17  O   UNL     1       4.935   2.703  19.790  0.00  0.00    +0.000 OA
ATOM     18  C   UNL     1       4.561   1.758  20.812  0.00  0.00    +0.000 C 
ATOM     19  O   UNL     1       3.329   2.097  21.484  0.00  0.00    +0.000 OA
ENDBRANCH   7  11
BRANCH   1  22
ATOM     20  C   UNL     1      -1.443  11.332  22.837  0.00  0.00    +0.000 A 
ATOM     21  N   UNL     1      -0.892  11.348  21.642  0.00  0.00    +0.000 NA
ATOM     22  C   UNL     1      -0.185  10.167  21.591  0.00  0.00    +0.000 A 
ATOM     23  N   UNL     1      -0.306   9.416  22.699  0.00  0.00    +0.000 NA
ATOM     24  N   UNL     1      -1.091  10.179  23.472  0.00  0.00    +0.000 N 
ATOM     25  H   UNL     1      -1.310   9.891  24.417  0.00  0.00    +0.000 HD
BRANCH  20  26
ATOM     26  C   UNL     1      -2.259  12.387  23.492  0.00  0.00    +0.000 C 
BRANCH  26  28
ATOM     27  C   UNL     1      -4.373  12.469  24.681  0.00  0.00    +0.000 C 
ATOM     28  N   UNL     1      -3.704  12.094  23.426  0.00  0.00    +0.000 NA
ATOM     29  C   UNL     1      -4.303  12.847  22.319  0.00  0.00    +0.000 C 
ENDBRANCH  26  28
ENDBRANCH  20  26
ENDBRANCH   1  22
TORSDOF 4
ENDMDL
MODEL 8
REMARK VINA RESULT:      -7.6      1.005      1.267
REMARK  Name = 
REMARK  6 active torsions:
REMARK  status: ('A' for Active; 'I' for Inactive)
REMARK    1  A    between atoms: C_1  and  N_2
REMARK    2  A    between atoms: N_2  and  C_3
REMARK    3  A    between atoms: N_2  and  C_4
REMARK    4  A    between atoms: C_4  and  C_5
REMARK    5  A    between atoms: C_7  and  C_8
REMARK    6  A    between atoms: C_14  and  C_15
REMARK                            x       y       z     vdW  Elec       q    Type
REMARK                         _______ _______ _______ _____ _____    ______ ____
ROOT
ATOM      1  C   UNL     1       1.724   5.500  20.010  0.00  0.00    +0.000 A 
ATOM      2  C   UNL     1       0.994   4.437  20.560  0.00  0.00    +0.000 A 
ATOM      3  C   UNL     1       1.235   3.107  20.188  0.00  0.00    +0.000 A 
ATOM      4  C   UNL     1       2.247   2.883  19.249  0.00  0.00    +0.000 A 
ATOM      5  N   UNL     1       2.732   1.736  18.688  0.00  0.00    +0.000 N 
ATOM      6  N   UNL     1       3.726   1.923  17.807  0.00  0.00    +0.000 NA
ATOM      7  C   UNL     1       3.928   3.253  17.810  0.00  0.00    +0.000 A 
ATOM      8  C   UNL     1       2.998   3.904  18.681  0.00  0.00    +0.000 A 
ATOM      9  C   UNL     1       2.714   5.234  19.051  0.00  0.00    +0.000 A 
ATOM     10  H   UNL     1       2.425   0.787  18.867  0.00  0.00    +0.000 HD
ENDROOT
BRANCH   7  11
ATOM     11  C   UNL     1       4.993   3.859  17.008  0.00  0.00    +0.000 A 
ATOM     12  C   UNL     1       5.933   4.727  17.612  0.00  0.00    +0.000 A 
ATOM     13  C   UNL     1       6.951   5.329  16.862  0.00  0.00    +0.000 A 
ATOM     14  C   UNL     1       7.001   5.050  15.513  0.00  0.00    +0.000 A 
ATOM     15  C   UNL     1       6.092   4.211  14.916  0.00  0.00    +0.000 A 
ATOM     16  C   UNL     1       5.080   3.607  15.629  0.00  0.00    +0.000 A 
ATOM     17  O   UNL     1       6.307   4.074  13.579  0.00  0.00    +0.000 OA
ATOM     18  C   UNL     1       7.416   4.975  13.394  0.00  0.00    +0.000 C 
ATOM     19  O   UNL     1       7.900   5.552  14.625  0.00  0.00    +0.000 OA
ENDBRANCH   7  11
BRANCH   1  22
ATOM     20  C   UNL     1       1.408   8.990  20.349  0.00  0.00    +0.000 A 
ATOM     21  N   UNL     1       1.755   7.952  19.620  0.00  0.00    +0.000 NA
ATOM     22  C   UNL     1       1.465   6.873  20.425  0.00  0.00    +0.000 A 
ATOM     23  N   UNL     1       0.927   7.212  21.609  0.00  0.00    +0.000 NA
ATOM     24  N   UNL     1       0.915   8.550  21.541  0.00  0.00    +0.000 N 
ATOM     25  H   UNL     1       0.611   9.098  22.335  0.00  0.00    +0.000 HD
BRANCH  20  26
ATOM     26  C   UNL     1       1.566  10.434  20.036  0.00  0.00    +0.000 C 
BRANCH  26  28
ATOM     27  C   UNL     1      -0.157  11.328  18.579  0.00  0.00    +0.000 C 
ATOM     28  N   UNL     1       1.192  10.745  18.642  0.00  0.00    +0.000 NA
ATOM     29  C   UNL     1       2.155  11.698  18.081  0.00  0.00    +0.000 C 
ENDBRANCH  26  28
ENDBRANCH  20  26
ENDBRANCH   1  22
TORSDOF 4
ENDMDL
MODEL 9
REMARK VINA RESULT:      -7.6      3.588      7.759
REMARK  Name = 
REMARK  6 active torsions:
REMARK  status: ('A' for Active; 'I' for Inactive)
REMARK    1  A    between atoms: C_1  and  N_2
REMARK    2  A    between atoms: N_2  and  C_3
REMARK    3  A    between atoms: N_2  and  C_4
REMARK    4  A    between atoms: C_4  and  C_5
REMARK    5  A    between atoms: C_7  and  C_8
REMARK    6  A    between atoms: C_14  and  C_15
REMARK                            x       y       z     vdW  Elec       q    Type
REMARK                         _______ _______ _______ _____ _____    ______ ____
ROOT
ATOM      1  C   UNL     1       4.573   4.288  17.175  0.00  0.00    +0.000 A 
ATOM      2  C   UNL     1       4.508   2.978  17.667  0.00  0.00    +0.000 A 
ATOM      3  C   UNL     1       3.780   2.659  18.822  0.00  0.00    +0.000 A 
ATOM      4  C   UNL     1       3.110   3.708  19.460  0.00  0.00    +0.000 A 
ATOM      5  N   UNL     1       2.323   3.741  20.576  0.00  0.00    +0.000 N 
ATOM      6  N   UNL     1       1.847   4.956  20.886  0.00  0.00    +0.000 NA
ATOM      7  C   UNL     1       2.316   5.756  19.913  0.00  0.00    +0.000 A 
ATOM      8  C   UNL     1       3.143   5.020  19.006  0.00  0.00    +0.000 A 
ATOM      9  C   UNL     1       3.906   5.317  17.860  0.00  0.00    +0.000 A 
ATOM     10  H   UNL     1       2.070   2.962  21.174  0.00  0.00    +0.000 HD
ENDROOT
BRANCH   7  11
ATOM     11  C   UNL     1       1.958   7.177  19.861  0.00  0.00    +0.000 A 
ATOM     12  C   UNL     1       1.330   7.793  20.969  0.00  0.00    +0.000 A 
ATOM     13  C   UNL     1       0.967   9.145  20.936  0.00  0.00    +0.000 A 
ATOM     14  C   UNL     1       1.239   9.852  19.784  0.00  0.00    +0.000 A 
ATOM     15  C   UNL     1       1.845   9.263  18.703  0.00  0.00    +0.000 A 
ATOM     16  C   UNL     1       2.211   7.935  18.706  0.00  0.00    +0.000 A 
ATOM     17  O   UNL     1       2.015  10.125  17.664  0.00  0.00    +0.000 OA
ATOM     18  C   UNL     1       1.386  11.308  18.195  0.00  0.00    +0.000 C 
ATOM     19  O   UNL     1       0.944  11.160  19.561  0.00  0.00    +0.000 OA
ENDBRANCH   7  11
BRANCH   1  22
ATOM     20  C   UNL     1       6.097   4.370  14.002  0.00  0.00    +0.000 A 
ATOM     21  N   UNL     1       5.283   3.780  14.851  0.00  0.00    +0.000 NA
ATOM     22  C   UNL     1       5.324   4.591  15.962  0.00  0.00    +0.000 A 
ATOM     23  N   UNL     1       6.110   5.671  15.815  0.00  0.00    +0.000 NA
ATOM     24  N   UNL     1       6.595   5.500  14.578  0.00  0.00    +0.000 N 
ATOM     25  H   UNL     1       7.281   6.144  14.206  0.00  0.00    +0.000 HD
BRANCH  20  26
ATOM     26  C   UNL     1       6.519   3.909  12.654  0.00  0.00    +0.000 C 
BRANCH  26  28
ATOM     27  C   UNL     1       4.527   3.214  11.455  0.00  0.00    +0.000 C 
ATOM     28  N   UNL     1       5.721   2.760  12.183  0.00  0.00    +0.000 NA
ATOM     29  C   UNL     1       6.541   1.930  11.294  0.00  0.00    +0.000 C 
ENDBRANCH  26  28
ENDBRANCH  20  26
ENDBRANCH   1  22
TORSDOF 4
ENDMDL
