MODEL 1
REMARK VINA RESULT:      -7.8      0.000      0.000
REMARK  Name = 
REMARK  6 active torsions:
REMARK  status: ('A' for Active; 'I' for Inactive)
REMARK    1  A    between atoms: C_1  and  O_2
REMARK    2  A    between atoms: O_2  and  C_3
REMARK    3  A    between atoms: C_7  and  C_8
REMARK    4  A    between atoms: C_12  and  C_13
REMARK    5  A    between atoms: C_25  and  O_26
REMARK    6  A    between atoms: O_26  and  C_27
REMARK                            x       y       z     vdW  Elec       q    Type
REMARK                         _______ _______ _______ _____ _____    ______ ____
ROOT
ATOM      1  C   UNL     1      -0.445  13.929  22.207  0.00  0.00    +0.000 A 
ATOM      2  C   UNL     1       0.514  13.139  21.561  0.00  0.00    +0.000 A 
ATOM      3  C   UNL     1       0.135  12.198  20.587  0.00  0.00    +0.000 A 
ATOM      4  C   UNL     1       1.074  11.413  19.884  0.00  0.00    +0.000 A 
ATOM      5  C   UNL     1       0.658  10.557  18.861  0.00  0.00    +0.000 A 
ATOM      6  C   UNL     1      -0.712  10.532  18.606  0.00  0.00    +0.000 A 
ATOM      7 CL   UNL     1      -1.388   9.670  17.275  0.00  0.00    +0.000 Cl
ATOM      8  N   UNL     1      -1.649  11.228  19.297  0.00  0.00    +0.000 NA
ATOM      9  C   UNL     1      -1.231  12.037  20.277  0.00  0.00    +0.000 A 
ATOM     10  C   UNL     1      -2.173  12.762  20.995  0.00  0.00    +0.000 A 
ATOM     11  C   UNL     1      -1.808  13.711  21.957  0.00  0.00    +0.000 A 
ENDROOT
BRANCH   5  12
ATOM     12  C   UNL     1       1.626   9.744  18.101  0.00  0.00    +0.000 C 
ATOM     13  C   UNL     1       2.145   8.576  18.516  0.00  0.00    +0.000 C 
ATOM     14  C   UNL     1       2.953   7.563  17.714  0.00  0.00    +0.000 C 
ATOM     15  C   UNL     1       2.813   6.280  18.497  0.00  0.00    +0.000 A 
ATOM     16  C   UNL     1       3.234   4.989  18.194  0.00  0.00    +0.000 A 
ATOM     17  C   UNL     1       4.069   4.636  17.000  0.00  0.00    +0.000 C 
ATOM     18  C   UNL     1       2.884   3.960  19.094  0.00  0.00    +0.000 A 
ATOM     19  C   UNL     1       2.167   4.221  20.274  0.00  0.00    +0.000 A 
ATOM     20  C   UNL     1       1.811   5.523  20.601  0.00  0.00    +0.000 A 
ATOM     21  C   UNL     1       2.145   6.521  19.703  0.00  0.00    +0.000 A 
ATOM     22  C   UNL     1       1.844   7.946  19.841  0.00  0.00    +0.000 C 
ATOM     23  O   UNL     1       1.474   8.495  20.854  0.00  0.00    +0.000 OA
ENDBRANCH   5  12
BRANCH   1  25
ATOM     24  C   UNL     1       0.622  16.001  22.582  0.00  0.00    +0.000 C 
ATOM     25  O   UNL     1      -0.111  14.902  23.120  0.00  0.00    +0.000 OA
ENDBRANCH   1  25
BRANCH  11  26
ATOM     26  O   UNL     1      -2.702  14.479  22.663  0.00  0.00    +0.000 OA
ATOM     27  C   UNL     1      -3.487  13.825  23.656  0.00  0.00    +0.000 C 
ENDBRANCH  11  26
TORSDOF 3
ENDMDL
MODEL 2
REMARK VINA RESULT:      -7.7      2.591      3.679
REMARK  Name = 
REMARK  6 active torsions:
REMARK  status: ('A' for Active; 'I' for Inactive)
REMARK    1  A    between atoms: C_1  and  O_2
REMARK    2  A    between atoms: O_2  and  C_3
REMARK    3  A    between atoms: C_7  and  C_8
REMARK    4  A    between atoms: C_12  and  C_13
REMARK    5  A    between atoms: C_25  and  O_26
REMARK    6  A    between atoms: O_26  and  C_27
REMARK                            x       y       z     vdW  Elec       q    Type
REMARK                         _______ _______ _______ _____ _____    ______ ____
ROOT
ATOM      1  C   UNL     1      -4.658  11.125  18.356  0.00  0.00    +0.000 A 
ATOM      2  C   UNL     1      -3.542  10.447  17.849  0.00  0.00    +0.000 A 
ATOM      3  C   UNL     1      -2.240  10.806  18.243  0.00  0.00    +0.000 A 
ATOM      4  C   UNL     1      -1.093  10.121  17.788  0.00  0.00    +0.000 A 
ATOM      5  C   UNL     1       0.173  10.455  18.278  0.00  0.00    +0.000 A 
ATOM      6  C   UNL     1       0.212  11.489  19.211  0.00  0.00    +0.000 A 
ATOM      7 CL   UNL     1       1.656  11.922  20.048  0.00  0.00    +0.000 Cl
ATOM      8  N   UNL     1      -0.860  12.207  19.630  0.00  0.00    +0.000 NA
ATOM      9  C   UNL     1      -2.062  11.877  19.144  0.00  0.00    +0.000 A 
ATOM     10  C   UNL     1      -3.174  12.596  19.561  0.00  0.00    +0.000 A 
ATOM     11  C   UNL     1      -4.475  12.240  19.186  0.00  0.00    +0.000 A 
ENDROOT
BRANCH   5  12
ATOM     12  C   UNL     1       1.381   9.737  17.829  0.00  0.00    +0.000 C 
ATOM     13  C   UNL     1       1.958   8.715  18.484  0.00  0.00    +0.000 C 
ATOM     14  C   UNL     1       3.047   7.771  17.991  0.00  0.00    +0.000 C 
ATOM     15  C   UNL     1       2.925   6.567  18.890  0.00  0.00    +0.000 A 
ATOM     16  C   UNL     1       3.574   5.336  18.844  0.00  0.00    +0.000 A 
ATOM     17  C   UNL     1       4.681   5.007  17.889  0.00  0.00    +0.000 C 
ATOM     18  C   UNL     1       3.188   4.358  19.785  0.00  0.00    +0.000 A 
ATOM     19  C   UNL     1       2.211   4.616  20.761  0.00  0.00    +0.000 A 
ATOM     20  C   UNL     1       1.618   5.869  20.842  0.00  0.00    +0.000 A 
ATOM     21  C   UNL     1       1.993   6.814  19.904  0.00  0.00    +0.000 A 
ATOM     22  C   UNL     1       1.476   8.179  19.796  0.00  0.00    +0.000 C 
ATOM     23  O   UNL     1       0.829   8.758  20.640  0.00  0.00    +0.000 OA
ENDBRANCH   5  12
BRANCH   1  25
ATOM     24  C   UNL     1      -6.622  10.016  19.051  0.00  0.00    +0.000 C 
ATOM     25  O   UNL     1      -5.948  10.766  18.043  0.00  0.00    +0.000 OA
ENDBRANCH   1  25
BRANCH  11  26
ATOM     26  O   UNL     1      -5.607  12.897  19.607  0.00  0.00    +0.000 OA
ATOM     27  C   UNL     1      -5.481  13.768  20.727  0.00  0.00    +0.000 C 
ENDBRANCH  11  26
TORSDOF 3
ENDMDL
MODEL 3
REMARK VINA RESULT:      -7.5      2.911      8.523
REMARK  Name = 
REMARK  6 active torsions:
REMARK  status: ('A' for Active; 'I' for Inactive)
REMARK    1  A    between atoms: C_1  and  O_2
REMARK    2  A    between atoms: O_2  and  C_3
REMARK    3  A    between atoms: C_7  and  C_8
REMARK    4  A    between atoms: C_12  and  C_13
REMARK    5  A    between atoms: C_25  and  O_26
REMARK    6  A    between atoms: O_26  and  C_27
REMARK                            x       y       z     vdW  Elec       q    Type
REMARK                         _______ _______ _______ _____ _____    ______ ____
ROOT
ATOM      1  C   UNL     1       3.666   6.681  17.988  0.00  0.00    +0.000 A 
ATOM      2  C   UNL     1       2.910   7.815  17.668  0.00  0.00    +0.000 A 
ATOM      3  C   UNL     1       2.001   8.360  18.594  0.00  0.00    +0.000 A 
ATOM      4  C   UNL     1       1.251   9.526  18.325  0.00  0.00    +0.000 A 
ATOM      5  C   UNL     1       0.430  10.082  19.309  0.00  0.00    +0.000 A 
ATOM      6  C   UNL     1       0.402   9.411  20.531  0.00  0.00    +0.000 A 
ATOM      7 CL   UNL     1      -0.418  10.041  21.912  0.00  0.00    +0.000 Cl
ATOM      8  N   UNL     1       1.063   8.260  20.807  0.00  0.00    +0.000 NA
ATOM      9  C   UNL     1       1.839   7.739  19.849  0.00  0.00    +0.000 A 
ATOM     10  C   UNL     1       2.528   6.563  20.111  0.00  0.00    +0.000 A 
ATOM     11  C   UNL     1       3.444   6.018  19.204  0.00  0.00    +0.000 A 
ENDROOT
BRANCH   5  12
ATOM     12  C   UNL     1      -0.346  11.311  19.055  0.00  0.00    +0.000 C 
ATOM     13  C   UNL     1       0.069  12.557  19.340  0.00  0.00    +0.000 C 
ATOM     14  C   UNL     1      -0.547  13.880  18.904  0.00  0.00    +0.000 C 
ATOM     15  C   UNL     1       0.576  14.876  19.056  0.00  0.00    +0.000 A 
ATOM     16  C   UNL     1       0.646  16.219  18.700  0.00  0.00    +0.000 A 
ATOM     17  C   UNL     1      -0.514  17.007  18.169  0.00  0.00    +0.000 C 
ATOM     18  C   UNL     1       1.875  16.884  18.892  0.00  0.00    +0.000 A 
ATOM     19  C   UNL     1       2.987  16.234  19.455  0.00  0.00    +0.000 A 
ATOM     20  C   UNL     1       2.887  14.913  19.871  0.00  0.00    +0.000 A 
ATOM     21  C   UNL     1       1.682  14.267  19.662  0.00  0.00    +0.000 A 
ATOM     22  C   UNL     1       1.374  12.877  20.000  0.00  0.00    +0.000 C 
ATOM     23  O   UNL     1       2.036  12.162  20.717  0.00  0.00    +0.000 OA
ENDBRANCH   5  12
BRANCH   1  25
ATOM     24  C   UNL     1       5.824   6.895  17.055  0.00  0.00    +0.000 C 
ATOM     25  O   UNL     1       4.607   6.154  17.135  0.00  0.00    +0.000 OA
ENDBRANCH   1  25
BRANCH  11  26
ATOM     26  O   UNL     1       4.178   4.879  19.436  0.00  0.00    +0.000 OA
ATOM     27  C   UNL     1       3.465   3.651  19.546  0.00  0.00    +0.000 C 
ENDBRANCH  11  26
TORSDOF 3
ENDMDL
MODEL 4
REMARK VINA RESULT:      -7.4      4.144      9.745
REMARK  Name = 
REMARK  6 active torsions:
REMARK  status: ('A' for Active; 'I' for Inactive)
REMARK    1  A    between atoms: C_1  and  O_2
REMARK    2  A    between atoms: O_2  and  C_3
REMARK    3  A    between atoms: C_7  and  C_8
REMARK    4  A    between atoms: C_12  and  C_13
REMARK    5  A    between atoms: C_25  and  O_26
REMARK    6  A    between atoms: O_26  and  C_27
REMARK                            x       y       z     vdW  Elec       q    Type
REMARK                         _______ _______ _______ _____ _____    ______ ____
ROOT
ATOM      1  C   UNL     1       6.808   4.992  15.060  0.00  0.00    +0.000 A 
ATOM      2  C   UNL     1       6.354   5.703  16.177  0.00  0.00    +0.000 A 
ATOM      3  C   UNL     1       5.129   5.378  16.789  0.00  0.00    +0.000 A 
ATOM      4  C   UNL     1       4.656   6.042  17.941  0.00  0.00    +0.000 A 
ATOM      5  C   UNL     1       3.479   5.625  18.567  0.00  0.00    +0.000 A 
ATOM      6  C   UNL     1       2.826   4.543  17.978  0.00  0.00    +0.000 A 
ATOM      7 CL   UNL     1       1.458   3.784  18.703  0.00  0.00    +0.000 Cl
ATOM      8  N   UNL     1       3.219   3.916  16.841  0.00  0.00    +0.000 NA
ATOM      9  C   UNL     1       4.345   4.336  16.253  0.00  0.00    +0.000 A 
ATOM     10  C   UNL     1       4.768   3.706  15.089  0.00  0.00    +0.000 A 
ATOM     11  C   UNL     1       5.990   4.012  14.479  0.00  0.00    +0.000 A 
ENDROOT
BRANCH   5  12
ATOM     12  C   UNL     1       2.979   6.293  19.783  0.00  0.00    +0.000 C 
ATOM     13  C   UNL     1       2.350   7.481  19.806  0.00  0.00    +0.000 C 
ATOM     14  C   UNL     1       1.598   8.129  20.962  0.00  0.00    +0.000 C 
ATOM     15  C   UNL     1       0.699   9.140  20.294  0.00  0.00    +0.000 A 
ATOM     16  C   UNL     1      -0.301   9.948  20.825  0.00  0.00    +0.000 A 
ATOM     17  C   UNL     1      -0.606  10.053  22.290  0.00  0.00    +0.000 C 
ATOM     18  C   UNL     1      -1.042  10.747  19.929  0.00  0.00    +0.000 A 
ATOM     19  C   UNL     1      -0.767  10.761  18.551  0.00  0.00    +0.000 A 
ATOM     20  C   UNL     1       0.279  10.003  18.039  0.00  0.00    +0.000 A 
ATOM     21  C   UNL     1       0.987   9.212  18.926  0.00  0.00    +0.000 A 
ATOM     22  C   UNL     1       2.100   8.323  18.594  0.00  0.00    +0.000 C 
ATOM     23  O   UNL     1       2.717   8.323  17.553  0.00  0.00    +0.000 OA
ENDBRANCH   5  12
BRANCH   1  25
ATOM     24  C   UNL     1       7.953   5.773  13.149  0.00  0.00    +0.000 C 
ATOM     25  O   UNL     1       8.026   5.238  14.469  0.00  0.00    +0.000 OA
ENDBRANCH   1  25
BRANCH  11  26
ATOM     26  O   UNL     1       6.468   3.388  13.352  0.00  0.00    +0.000 OA
ATOM     27  C   UNL     1       5.615   3.352  12.211  0.00  0.00    +0.000 C 
ENDBRANCH  11  26
TORSDOF 3
ENDMDL
MODEL 5
REMARK VINA RESULT:      -7.3      3.064      4.012
REMARK  Name = 
REMARK  6 active torsions:
REMARK  status: ('A' for Active; 'I' for Inactive)
REMARK    1  A    between atoms: C_1  and  O_2
REMARK    2  A    between atoms: O_2  and  C_3
REMARK    3  A    between atoms: C_7  and  C_8
REMARK    4  A    between atoms: C_12  and  C_13
REMARK    5  A    between atoms: C_25  and  O_26
REMARK    6  A    between atoms: O_26  and  C_27
REMARK                            x       y       z     vdW  Elec       q    Type
REMARK                         _______ _______ _______ _____ _____    ______ ____
ROOT
ATOM      1  C   UNL     1       3.101  15.891  19.328  0.00  0.00    +0.000 A 
ATOM      2  C   UNL     1       3.045  14.633  19.942  0.00  0.00    +0.000 A 
ATOM      3  C   UNL     1       1.885  13.841  19.859  0.00  0.00    +0.000 A 
ATOM      4  C   UNL     1       1.804  12.552  20.427  0.00  0.00    +0.000 A 
ATOM      5  C   UNL     1       0.663  11.766  20.242  0.00  0.00    +0.000 A 
ATOM      6  C   UNL     1      -0.357  12.341  19.485  0.00  0.00    +0.000 A 
ATOM      7 CL   UNL     1      -1.762  11.461  19.009  0.00  0.00    +0.000 Cl
ATOM      8  N   UNL     1      -0.338  13.596  18.971  0.00  0.00    +0.000 NA
ATOM      9  C   UNL     1       0.760  14.335  19.166  0.00  0.00    +0.000 A 
ATOM     10  C   UNL     1       0.803  15.622  18.646  0.00  0.00    +0.000 A 
ATOM     11  C   UNL     1       1.955  16.414  18.711  0.00  0.00    +0.000 A 
ENDROOT
BRANCH   5  12
ATOM     12  C   UNL     1       0.567  10.409  20.810  0.00  0.00    +0.000 C 
ATOM     13  C   UNL     1       0.958   9.283  20.188  0.00  0.00    +0.000 C 
ATOM     14  C   UNL     1       1.117   7.886  20.775  0.00  0.00    +0.000 C 
ATOM     15  C   UNL     1       2.040   7.185  19.809  0.00  0.00    +0.000 A 
ATOM     16  C   UNL     1       2.637   5.930  19.881  0.00  0.00    +0.000 A 
ATOM     17  C   UNL     1       2.353   4.926  20.957  0.00  0.00    +0.000 C 
ATOM     18  C   UNL     1       3.531   5.572  18.850  0.00  0.00    +0.000 A 
ATOM     19  C   UNL     1       3.792   6.428  17.767  0.00  0.00    +0.000 A 
ATOM     20  C   UNL     1       3.139   7.650  17.669  0.00  0.00    +0.000 A 
ATOM     21  C   UNL     1       2.277   7.997  18.694  0.00  0.00    +0.000 A 
ATOM     22  C   UNL     1       1.514   9.240  18.799  0.00  0.00    +0.000 C 
ATOM     23  O   UNL     1       1.339  10.039  17.907  0.00  0.00    +0.000 OA
ENDBRANCH   5  12
BRANCH   1  25
ATOM     24  C   UNL     1       5.322  16.148  18.572  0.00  0.00    +0.000 C 
ATOM     25  O   UNL     1       4.235  16.669  19.335  0.00  0.00    +0.000 OA
ENDBRANCH   1  25
BRANCH  11  26
ATOM     26  O   UNL     1       2.057  17.676  18.175  0.00  0.00    +0.000 OA
ATOM     27  C   UNL     1       0.873  18.255  17.633  0.00  0.00    +0.000 C 
ENDBRANCH  11  26
TORSDOF 3
ENDMDL
MODEL 6
REMARK VINA RESULT:      -7.2      2.972      8.592
REMARK  Name = 
REMARK  6 active torsions:
REMARK  status: ('A' for Active; 'I' for Inactive)
REMARK    1  A    between atoms: C_1  and  O_2
REMARK    2  A    between atoms: O_2  and  C_3
REMARK    3  A    between atoms: C_7  and  C_8
REMARK    4  A    between atoms: C_12  and  C_13
REMARK    5  A    between atoms: C_25  and  O_26
REMARK    6  A    between atoms: O_26  and  C_27
REMARK                            x       y       z     vdW  Elec       q    Type
REMARK                         _______ _______ _______ _____ _____    ______ ____
ROOT
ATOM      1  C   UNL     1       2.153   4.459  19.911  0.00  0.00    +0.000 A 
ATOM      2  C   UNL     1       1.525   5.584  20.459  0.00  0.00    +0.000 A 
ATOM      3  C   UNL     1       1.739   6.865  19.916  0.00  0.00    +0.000 A 
ATOM      4  C   UNL     1       1.093   8.017  20.412  0.00  0.00    +0.000 A 
ATOM      5  C   UNL     1       1.267   9.253  19.783  0.00  0.00    +0.000 A 
ATOM      6  C   UNL     1       2.108   9.259  18.672  0.00  0.00    +0.000 A 
ATOM      7 CL   UNL     1       2.307  10.649  17.671  0.00  0.00    +0.000 Cl
ATOM      8  N   UNL     1       2.789   8.185  18.200  0.00  0.00    +0.000 NA
ATOM      9  C   UNL     1       2.615   7.012  18.820  0.00  0.00    +0.000 A 
ATOM     10  C   UNL     1       3.300   5.899  18.353  0.00  0.00    +0.000 A 
ATOM     11  C   UNL     1       3.085   4.618  18.875  0.00  0.00    +0.000 A 
ENDROOT
BRANCH   5  12
ATOM     12  C   UNL     1       0.585  10.465  20.274  0.00  0.00    +0.000 C 
ATOM     13  C   UNL     1      -0.525  10.997  19.734  0.00  0.00    +0.000 C 
ATOM     14  C   UNL     1      -1.423  12.088  20.304  0.00  0.00    +0.000 C 
ATOM     15  C   UNL     1      -2.729  11.909  19.570  0.00  0.00    +0.000 A 
ATOM     16  C   UNL     1      -3.958  12.537  19.749  0.00  0.00    +0.000 A 
ATOM     17  C   UNL     1      -4.189  13.675  20.697  0.00  0.00    +0.000 C 
ATOM     18  C   UNL     1      -5.039  12.097  18.956  0.00  0.00    +0.000 A 
ATOM     19  C   UNL     1      -4.885  11.086  17.991  0.00  0.00    +0.000 A 
ATOM     20  C   UNL     1      -3.638  10.514  17.773  0.00  0.00    +0.000 A 
ATOM     21  C   UNL     1      -2.591  10.942  18.568  0.00  0.00    +0.000 A 
ATOM     22  C   UNL     1      -1.212  10.454  18.520  0.00  0.00    +0.000 C 
ATOM     23  O   UNL     1      -0.730   9.785  17.634  0.00  0.00    +0.000 OA
ENDBRANCH   5  12
BRANCH   1  25
ATOM     24  C   UNL     1       2.368   2.943  21.707  0.00  0.00    +0.000 C 
ATOM     25  O   UNL     1       1.924   3.184  20.373  0.00  0.00    +0.000 OA
ENDBRANCH   1  25
BRANCH  11  26
ATOM     26  O   UNL     1       3.709   3.482  18.418  0.00  0.00    +0.000 OA
ATOM     27  C   UNL     1       4.438   3.581  17.198  0.00  0.00    +0.000 C 
ENDBRANCH  11  26
TORSDOF 3
ENDMDL
MODEL 7
REMARK VINA RESULT:      -7.2      3.068      4.102
REMARK  Name = 
REMARK  6 active torsions:
REMARK  status: ('A' for Active; 'I' for Inactive)
REMARK    1  A    between atoms: C_1  and  O_2
REMARK    2  A    between atoms: O_2  and  C_3
REMARK    3  A    between atoms: C_7  and  C_8
REMARK    4  A    between atoms: C_12  and  C_13
REMARK    5  A    between atoms: C_25  and  O_26
REMARK    6  A    between atoms: O_26  and  C_27
REMARK                            x       y       z     vdW  Elec       q    Type
REMARK                         _______ _______ _______ _____ _____    ______ ____
ROOT
ATOM      1  C   UNL     1      -3.180  10.750  17.045  0.00  0.00    +0.000 A 
ATOM      2  C   UNL     1      -1.980  10.037  16.922  0.00  0.00    +0.000 A 
ATOM      3  C   UNL     1      -1.032  10.038  17.962  0.00  0.00    +0.000 A 
ATOM      4  C   UNL     1       0.169   9.299  17.894  0.00  0.00    +0.000 A 
ATOM      5  C   UNL     1       1.038   9.258  18.987  0.00  0.00    +0.000 A 
ATOM      6  C   UNL     1       0.643   9.988  20.107  0.00  0.00    +0.000 A 
ATOM      7 CL   UNL     1       1.499   9.918  21.603  0.00  0.00    +0.000 Cl
ATOM      8  N   UNL     1      -0.473  10.754  20.189  0.00  0.00    +0.000 NA
ATOM      9  C   UNL     1      -1.288  10.786  19.129  0.00  0.00    +0.000 A 
ATOM     10  C   UNL     1      -2.439  11.561  19.192  0.00  0.00    +0.000 A 
ATOM     11  C   UNL     1      -3.396  11.558  18.170  0.00  0.00    +0.000 A 
ENDROOT
BRANCH   5  12
ATOM     12  C   UNL     1       2.287   8.475  18.944  0.00  0.00    +0.000 C 
ATOM     13  C   UNL     1       2.455   7.260  19.494  0.00  0.00    +0.000 C 
ATOM     14  C   UNL     1       3.612   6.288  19.300  0.00  0.00    +0.000 C 
ATOM     15  C   UNL     1       3.040   4.952  19.707  0.00  0.00    +0.000 A 
ATOM     16  C   UNL     1       3.587   3.675  19.631  0.00  0.00    +0.000 A 
ATOM     17  C   UNL     1       4.998   3.391  19.208  0.00  0.00    +0.000 C 
ATOM     18  C   UNL     1       2.773   2.590  20.017  0.00  0.00    +0.000 A 
ATOM     19  C   UNL     1       1.466   2.781  20.496  0.00  0.00    +0.000 A 
ATOM     20  C   UNL     1       0.952   4.064  20.633  0.00  0.00    +0.000 A 
ATOM     21  C   UNL     1       1.755   5.118  20.236  0.00  0.00    +0.000 A 
ATOM     22  C   UNL     1       1.400   6.537  20.272  0.00  0.00    +0.000 C 
ATOM     23  O   UNL     1       0.460   7.015  20.865  0.00  0.00    +0.000 OA
ENDBRANCH   5  12
BRANCH   1  25
ATOM     24  C   UNL     1      -3.708  10.336  14.782  0.00  0.00    +0.000 C 
ATOM     25  O   UNL     1      -4.158  10.726  16.078  0.00  0.00    +0.000 OA
ENDBRANCH   1  25
BRANCH  11  26
ATOM     26  O   UNL     1      -4.567  12.276  18.207  0.00  0.00    +0.000 OA
ATOM     27  C   UNL     1      -5.096  12.604  19.488  0.00  0.00    +0.000 C 
ENDBRANCH  11  26
TORSDOF 3
ENDMDL
MODEL 8
REMARK VINA RESULT:      -7.1      1.272      1.416
REMARK  Name = 
REMARK  6 active torsions:
REMARK  status: ('A' for Active; 'I' for Inactive)
REMARK    1  A    between atoms: C_1  and  O_2
REMARK    2  A    between atoms: O_2  and  C_3
REMARK    3  A    between atoms: C_7  and  C_8
REMARK    4  A    between atoms: C_12  and  C_13
REMARK    5  A    between atoms: C_25  and  O_26
REMARK    6  A    between atoms: O_26  and  C_27
REMARK                            x       y       z     vdW  Elec       q    Type
REMARK                         _______ _______ _______ _____ _____    ______ ____
ROOT
ATOM      1  C   UNL     1       1.158  14.339  21.353  0.00  0.00    +0.000 A 
ATOM      2  C   UNL     1       1.892  13.321  20.731  0.00  0.00    +0.000 A 
ATOM      3  C   UNL     1       1.242  12.297  20.017  0.00  0.00    +0.000 A 
ATOM      4  C   UNL     1       1.946  11.278  19.342  0.00  0.00    +0.000 A 
ATOM      5  C   UNL     1       1.262  10.335  18.571  0.00  0.00    +0.000 A 
ATOM      6  C   UNL     1      -0.125  10.470  18.532  0.00  0.00    +0.000 A 
ATOM      7 CL   UNL     1      -1.118   9.507  17.501  0.00  0.00    +0.000 Cl
ATOM      8  N   UNL     1      -0.840  11.400  19.212  0.00  0.00    +0.000 NA
ATOM      9  C   UNL     1      -0.167  12.289  19.950  0.00  0.00    +0.000 A 
ATOM     10  C   UNL     1      -0.878  13.253  20.652  0.00  0.00    +0.000 A 
ATOM     11  C   UNL     1      -0.243  14.284  21.354  0.00  0.00    +0.000 A 
ENDROOT
BRANCH   5  12
ATOM     12  C   UNL     1       1.982   9.274  17.841  0.00  0.00    +0.000 C 
ATOM     13  C   UNL     1       2.286   8.064  18.342  0.00  0.00    +0.000 C 
ATOM     14  C   UNL     1       2.806   6.839  17.601  0.00  0.00    +0.000 C 
ATOM     15  C   UNL     1       2.474   5.688  18.518  0.00  0.00    +0.000 A 
ATOM     16  C   UNL     1       2.599   4.315  18.325  0.00  0.00    +0.000 A 
ATOM     17  C   UNL     1       3.248   3.693  17.124  0.00  0.00    +0.000 C 
ATOM     18  C   UNL     1       2.123   3.465  19.344  0.00  0.00    +0.000 A 
ATOM     19  C   UNL     1       1.571   3.973  20.533  0.00  0.00    +0.000 A 
ATOM     20  C   UNL     1       1.512   5.345  20.745  0.00  0.00    +0.000 A 
ATOM     21  C   UNL     1       1.968   6.168  19.731  0.00  0.00    +0.000 A 
ATOM     22  C   UNL     1       1.972   7.631  19.740  0.00  0.00    +0.000 C 
ATOM     23  O   UNL     1       1.803   8.331  20.712  0.00  0.00    +0.000 OA
ENDBRANCH   5  12
BRANCH   1  25
ATOM     24  C   UNL     1       2.975  15.844  21.422  0.00  0.00    +0.000 C 
ATOM     25  O   UNL     1       1.757  15.389  22.008  0.00  0.00    +0.000 OA
ENDBRANCH   1  25
BRANCH  11  26
ATOM     26  O   UNL     1      -0.906  15.282  22.029  0.00  0.00    +0.000 OA
ATOM     27  C   UNL     1      -1.644  16.220  21.253  0.00  0.00    +0.000 C 
ENDBRANCH  11  26
TORSDOF 3
ENDMDL
MODEL 9
REMARK VINA RESULT:      -7.0      2.584      3.360
REMARK  Name = 
REMARK  6 active torsions:
REMARK  status: ('A' for Active; 'I' for Inactive)
REMARK    1  A    between atoms: C_1  and  O_2
REMARK    2  A    between atoms: O_2  and  C_3
REMARK    3  A    between atoms: C_7  and  C_8
REMARK    4  A    between atoms: C_12  and  C_13
REMARK    5  A    between atoms: C_25  and  O_26
REMARK    6  A    between atoms: O_26  and  C_27
REMARK                            x       y       z     vdW  Elec       q    Type
REMARK                         _______ _______ _______ _____ _____    ______ ____
ROOT
ATOM      1  C   UNL     1       2.147  15.327  19.643  0.00  0.00    +0.000 A 
ATOM      2  C   UNL     1       2.311  14.020  20.119  0.00  0.00    +0.000 A 
ATOM      3  C   UNL     1       1.341  13.033  19.863  0.00  0.00    +0.000 A 
ATOM      4  C   UNL     1       1.490  11.695  20.288  0.00  0.00    +0.000 A 
ATOM      5  C   UNL     1       0.545  10.729  19.933  0.00  0.00    +0.000 A 
ATOM      6  C   UNL     1      -0.525  11.179  19.160  0.00  0.00    +0.000 A 
ATOM      7 CL   UNL     1      -1.693  10.104  18.486  0.00  0.00    +0.000 Cl
ATOM      8  N   UNL     1      -0.731  12.464  18.780  0.00  0.00    +0.000 NA
ATOM      9  C   UNL     1       0.182  13.375  19.137  0.00  0.00    +0.000 A 
ATOM     10  C   UNL     1      -0.006  14.697  18.756  0.00  0.00    +0.000 A 
ATOM     11  C   UNL     1       0.957  15.685  18.993  0.00  0.00    +0.000 A 
ENDROOT
BRANCH   5  12
ATOM     12  C   UNL     1       0.692   9.322  20.350  0.00  0.00    +0.000 C 
ATOM     13  C   UNL     1       1.344   8.376  19.653  0.00  0.00    +0.000 C 
ATOM     14  C   UNL     1       1.749   6.979  20.107  0.00  0.00    +0.000 C 
ATOM     15  C   UNL     1       2.855   6.591  19.158  0.00  0.00    +0.000 A 
ATOM     16  C   UNL     1       3.691   5.478  19.153  0.00  0.00    +0.000 A 
ATOM     17  C   UNL     1       3.550   4.319  20.094  0.00  0.00    +0.000 C 
ATOM     18  C   UNL     1       4.704   5.425  18.173  0.00  0.00    +0.000 A 
ATOM     19  C   UNL     1       4.853   6.436  17.208  0.00  0.00    +0.000 A 
ATOM     20  C   UNL     1       3.971   7.509  17.179  0.00  0.00    +0.000 A 
ATOM     21  C   UNL     1       2.993   7.558  18.155  0.00  0.00    +0.000 A 
ATOM     22  C   UNL     1       1.986   8.606  18.320  0.00  0.00    +0.000 C 
ATOM     23  O   UNL     1       1.708   9.453  17.502  0.00  0.00    +0.000 OA
ENDBRANCH   5  12
BRANCH   1  25
ATOM     24  C   UNL     1       4.301  16.108  19.080  0.00  0.00    +0.000 C 
ATOM     25  O   UNL     1       3.097  16.304  19.820  0.00  0.00    +0.000 OA
ENDBRANCH   1  25
BRANCH  11  26
ATOM     26  O   UNL     1       0.831  16.996  18.599  0.00  0.00    +0.000 OA
ATOM     27  C   UNL     1      -0.328  17.348  17.850  0.00  0.00    +0.000 C 
ENDBRANCH  11  26
TORSDOF 3
ENDMDL
