MODEL 1
REMARK VINA RESULT:      -8.5      0.000      0.000
REMARK  Name = 
REMARK  3 active torsions:
REMARK  status: ('A' for Active; 'I' for Inactive)
REMARK    1  A    between atoms: C_2  and  C_3
REMARK    2  A    between atoms: C_6  and  C_7
REMARK    3  A    between atoms: C_15  and  C_16
REMARK                            x       y       z     vdW  Elec       q    Type
REMARK                         _______ _______ _______ _____ _____    ______ ____
ROOT
ATOM      1  C   UNL     1       1.908   6.757  20.076  0.00  0.00    +0.000 A 
ATOM      2  C   UNL     1       1.179   5.773  20.767  0.00  0.00    +0.000 A 
ATOM      3  C   UNL     1       1.647   4.458  20.873  0.00  0.00    +0.000 A 
ATOM      4  C   UNL     1       2.885   4.124  20.334  0.00  0.00    +0.000 A 
ATOM      5  N   UNL     1       3.355   2.822  20.406  0.00  0.00    +0.000 N 
ATOM      6  C   UNL     1       4.560   2.439  19.879  0.00  0.00    +0.000 A 
ATOM      7  O   UNL     1       4.881   1.255  19.952  0.00  0.00    +0.000 OA
ATOM      8  N   UNL     1       5.368   3.390  19.316  0.00  0.00    +0.000 NA
ATOM      9  C   UNL     1       5.002   4.635  19.232  0.00  0.00    +0.000 A 
ATOM     10  C   UNL     1       3.657   5.082  19.692  0.00  0.00    +0.000 A 
ATOM     11  C   UNL     1       3.133   6.363  19.508  0.00  0.00    +0.000 A 
ATOM     12  H   UNL     1       2.812   2.079  20.821  0.00  0.00    +0.000 HD
ENDROOT
BRANCH   1  16
ATOM     13  C   UNL     1       0.504  10.826  19.716  0.00  0.00    +0.000 A 
ATOM     14  C   UNL     1       1.170  10.215  18.656  0.00  0.00    +0.000 A 
ATOM     15  C   UNL     1       1.620   8.895  18.773  0.00  0.00    +0.000 A 
ATOM     16  C   UNL     1       1.438   8.158  19.957  0.00  0.00    +0.000 A 
ATOM     17  C   UNL     1       0.762   8.801  21.013  0.00  0.00    +0.000 A 
ATOM     18  C   UNL     1       0.295  10.113  20.895  0.00  0.00    +0.000 A 
BRANCH  13  20
ATOM     19  N   UNL     1      -0.339  13.269  19.504  0.00  0.00    +0.000 NA
ATOM     20  C   UNL     1       0.039  12.173  19.597  0.00  0.00    +0.000 C 
ENDBRANCH  13  20
ENDBRANCH   1  16
BRANCH   9  21
ATOM     21  C   UNL     1       6.009   5.601  18.676  0.00  0.00    +0.000 A 
ATOM     22  C   UNL     1       5.699   6.290  17.497  0.00  0.00    +0.000 A 
ATOM     23  C   UNL     1       6.621   7.180  16.936  0.00  0.00    +0.000 A 
ATOM     24  C   UNL     1       7.847   7.407  17.561  0.00  0.00    +0.000 A 
ATOM     25  C   UNL     1       8.171   6.714  18.724  0.00  0.00    +0.000 A 
ATOM     26  C   UNL     1       7.275   5.783  19.251  0.00  0.00    +0.000 A 
ENDBRANCH   9  21
TORSDOF 3
ENDMDL
MODEL 2
REMARK VINA RESULT:      -8.4      0.211      1.374
REMARK  Name = 
REMARK  3 active torsions:
REMARK  status: ('A' for Active; 'I' for Inactive)
REMARK    1  A    between atoms: C_2  and  C_3
REMARK    2  A    between atoms: C_6  and  C_7
REMARK    3  A    between atoms: C_15  and  C_16
REMARK                            x       y       z     vdW  Elec       q    Type
REMARK                         _______ _______ _______ _____ _____    ______ ____
ROOT
ATOM      1  C   UNL     1       1.894   6.772  20.141  0.00  0.00    +0.000 A 
ATOM      2  C   UNL     1       1.152   5.788  20.818  0.00  0.00    +0.000 A 
ATOM      3  C   UNL     1       1.582   4.458  20.871  0.00  0.00    +0.000 A 
ATOM      4  C   UNL     1       2.796   4.105  20.291  0.00  0.00    +0.000 A 
ATOM      5  N   UNL     1       3.228   2.787  20.311  0.00  0.00    +0.000 N 
ATOM      6  C   UNL     1       4.408   2.386  19.743  0.00  0.00    +0.000 A 
ATOM      7  O   UNL     1       4.694   1.192  19.771  0.00  0.00    +0.000 OA
ATOM      8  N   UNL     1       5.231   3.330  19.190  0.00  0.00    +0.000 NA
ATOM      9  C   UNL     1       4.901   4.587  19.154  0.00  0.00    +0.000 A 
ATOM     10  C   UNL     1       3.581   5.060  19.660  0.00  0.00    +0.000 A 
ATOM     11  C   UNL     1       3.092   6.361  19.529  0.00  0.00    +0.000 A 
ATOM     12  H   UNL     1       2.673   2.049  20.716  0.00  0.00    +0.000 HD
ENDROOT
BRANCH   1  16
ATOM     13  C   UNL     1       0.675  10.912  19.960  0.00  0.00    +0.000 A 
ATOM     14  C   UNL     1       0.582  10.203  21.155  0.00  0.00    +0.000 A 
ATOM     15  C   UNL     1       0.982   8.864  21.213  0.00  0.00    +0.000 A 
ATOM     16  C   UNL     1       1.463   8.190  20.076  0.00  0.00    +0.000 A 
ATOM     17  C   UNL     1       1.546   8.931  18.881  0.00  0.00    +0.000 A 
ATOM     18  C   UNL     1       1.165  10.275  18.821  0.00  0.00    +0.000 A 
BRANCH  13  20
ATOM     19  N   UNL     1      -0.058  13.397  19.852  0.00  0.00    +0.000 NA
ATOM     20  C   UNL     1       0.272  12.283  19.899  0.00  0.00    +0.000 C 
ENDBRANCH  13  20
ENDBRANCH   1  16
BRANCH   9  21
ATOM     21  C   UNL     1       5.923   5.541  18.603  0.00  0.00    +0.000 A 
ATOM     22  C   UNL     1       7.139   5.690  19.282  0.00  0.00    +0.000 A 
ATOM     23  C   UNL     1       8.105   6.585  18.811  0.00  0.00    +0.000 A 
ATOM     24  C   UNL     1       7.874   7.318  17.647  0.00  0.00    +0.000 A 
ATOM     25  C   UNL     1       6.663   7.189  16.975  0.00  0.00    +0.000 A 
ATOM     26  C   UNL     1       5.677   6.339  17.477  0.00  0.00    +0.000 A 
ENDBRANCH   9  21
TORSDOF 3
ENDMDL
MODEL 3
REMARK VINA RESULT:      -7.9      2.384      4.349
REMARK  Name = 
REMARK  3 active torsions:
REMARK  status: ('A' for Active; 'I' for Inactive)
REMARK    1  A    between atoms: C_2  and  C_3
REMARK    2  A    between atoms: C_6  and  C_7
REMARK    3  A    between atoms: C_15  and  C_16
REMARK                            x       y       z     vdW  Elec       q    Type
REMARK                         _______ _______ _______ _____ _____    ______ ____
ROOT
ATOM      1  C   UNL     1       2.236   8.054  19.012  0.00  0.00    +0.000 A 
ATOM      2  C   UNL     1       2.778   8.593  17.832  0.00  0.00    +0.000 A 
ATOM      3  C   UNL     1       3.603   7.833  16.995  0.00  0.00    +0.000 A 
ATOM      4  C   UNL     1       3.852   6.501  17.302  0.00  0.00    +0.000 A 
ATOM      5  N   UNL     1       4.687   5.738  16.500  0.00  0.00    +0.000 N 
ATOM      6  C   UNL     1       4.975   4.426  16.766  0.00  0.00    +0.000 A 
ATOM      7  O   UNL     1       5.758   3.836  16.025  0.00  0.00    +0.000 OA
ATOM      8  N   UNL     1       4.364   3.817  17.830  0.00  0.00    +0.000 NA
ATOM      9  C   UNL     1       3.553   4.463  18.613  0.00  0.00    +0.000 A 
ATOM     10  C   UNL     1       3.291   5.919  18.431  0.00  0.00    +0.000 A 
ATOM     11  C   UNL     1       2.552   6.716  19.308  0.00  0.00    +0.000 A 
ATOM     12  H   UNL     1       5.156   6.126  15.695  0.00  0.00    +0.000 HD
ENDROOT
BRANCH   1  16
ATOM     13  C   UNL     1      -0.306  10.352  21.642  0.00  0.00    +0.000 A 
ATOM     14  C   UNL     1       0.280   9.169  22.087  0.00  0.00    +0.000 A 
ATOM     15  C   UNL     1       1.107   8.429  21.235  0.00  0.00    +0.000 A 
ATOM     16  C   UNL     1       1.353   8.836  19.912  0.00  0.00    +0.000 A 
ATOM     17  C   UNL     1       0.747  10.035  19.489  0.00  0.00    +0.000 A 
ATOM     18  C   UNL     1      -0.066  10.789  20.341  0.00  0.00    +0.000 A 
BRANCH  13  20
ATOM     19  N   UNL     1      -1.833  11.730  23.222  0.00  0.00    +0.000 NA
ATOM     20  C   UNL     1      -1.148  11.114  22.513  0.00  0.00    +0.000 C 
ENDBRANCH  13  20
ENDBRANCH   1  16
BRANCH   9  21
ATOM     21  C   UNL     1       2.874   3.667  19.692  0.00  0.00    +0.000 A 
ATOM     22  C   UNL     1       1.479   3.727  19.796  0.00  0.00    +0.000 A 
ATOM     23  C   UNL     1       0.815   3.018  20.801  0.00  0.00    +0.000 A 
ATOM     24  C   UNL     1       1.536   2.225  21.695  0.00  0.00    +0.000 A 
ATOM     25  C   UNL     1       2.924   2.173  21.610  0.00  0.00    +0.000 A 
ATOM     26  C   UNL     1       3.590   2.926  20.643  0.00  0.00    +0.000 A 
ENDBRANCH   9  21
TORSDOF 3
ENDMDL
MODEL 4
REMARK VINA RESULT:      -7.9      2.393      4.482
REMARK  Name = 
REMARK  3 active torsions:
REMARK  status: ('A' for Active; 'I' for Inactive)
REMARK    1  A    between atoms: C_2  and  C_3
REMARK    2  A    between atoms: C_6  and  C_7
REMARK    3  A    between atoms: C_15  and  C_16
REMARK                            x       y       z     vdW  Elec       q    Type
REMARK                         _______ _______ _______ _____ _____    ______ ____
ROOT
ATOM      1  C   UNL     1       2.066   8.262  19.154  0.00  0.00    +0.000 A 
ATOM      2  C   UNL     1       2.603   8.837  17.989  0.00  0.00    +0.000 A 
ATOM      3  C   UNL     1       3.448   8.113  17.141  0.00  0.00    +0.000 A 
ATOM      4  C   UNL     1       3.722   6.778  17.420  0.00  0.00    +0.000 A 
ATOM      5  N   UNL     1       4.577   6.050  16.606  0.00  0.00    +0.000 N 
ATOM      6  C   UNL     1       4.889   4.738  16.845  0.00  0.00    +0.000 A 
ATOM      7  O   UNL     1       5.688   4.181  16.096  0.00  0.00    +0.000 OA
ATOM      8  N   UNL     1       4.284   4.094  17.891  0.00  0.00    +0.000 NA
ATOM      9  C   UNL     1       3.456   4.707  18.684  0.00  0.00    +0.000 A 
ATOM     10  C   UNL     1       3.166   6.161  18.532  0.00  0.00    +0.000 A 
ATOM     11  C   UNL     1       2.407   6.924  19.422  0.00  0.00    +0.000 A 
ATOM     12  H   UNL     1       5.042   6.465  15.813  0.00  0.00    +0.000 HD
ENDROOT
BRANCH   1  16
ATOM     13  C   UNL     1      -0.537  10.452  21.817  0.00  0.00    +0.000 A 
ATOM     14  C   UNL     1       0.124   9.308  22.261  0.00  0.00    +0.000 A 
ATOM     15  C   UNL     1       0.970   8.603  21.399  0.00  0.00    +0.000 A 
ATOM     16  C   UNL     1       1.162   9.006  20.065  0.00  0.00    +0.000 A 
ATOM     17  C   UNL     1       0.482  10.165  19.643  0.00  0.00    +0.000 A 
ATOM     18  C   UNL     1      -0.351  10.883  20.505  0.00  0.00    +0.000 A 
BRANCH  13  20
ATOM     19  N   UNL     1      -2.101  11.764  23.416  0.00  0.00    +0.000 NA
ATOM     20  C   UNL     1      -1.399  11.177  22.698  0.00  0.00    +0.000 C 
ENDBRANCH  13  20
ENDBRANCH   1  16
BRANCH   9  21
ATOM     21  C   UNL     1       2.787   3.874  19.741  0.00  0.00    +0.000 A 
ATOM     22  C   UNL     1       3.580   3.049  20.548  0.00  0.00    +0.000 A 
ATOM     23  C   UNL     1       2.991   2.243  21.527  0.00  0.00    +0.000 A 
ATOM     24  C   UNL     1       1.610   2.272  21.722  0.00  0.00    +0.000 A 
ATOM     25  C   UNL     1       0.812   3.075  20.913  0.00  0.00    +0.000 A 
ATOM     26  C   UNL     1       1.395   3.836  19.899  0.00  0.00    +0.000 A 
ENDBRANCH   9  21
TORSDOF 3
ENDMDL
MODEL 5
REMARK VINA RESULT:      -7.8      2.479      4.457
REMARK  Name = 
REMARK  3 active torsions:
REMARK  status: ('A' for Active; 'I' for Inactive)
REMARK    1  A    between atoms: C_2  and  C_3
REMARK    2  A    between atoms: C_6  and  C_7
REMARK    3  A    between atoms: C_15  and  C_16
REMARK                            x       y       z     vdW  Elec       q    Type
REMARK                         _______ _______ _______ _____ _____    ______ ____
ROOT
ATOM      1  C   UNL     1       1.899   8.564  19.297  0.00  0.00    +0.000 A 
ATOM      2  C   UNL     1       2.468   9.191  18.174  0.00  0.00    +0.000 A 
ATOM      3  C   UNL     1       3.322   8.500  17.308  0.00  0.00    +0.000 A 
ATOM      4  C   UNL     1       3.574   7.150  17.524  0.00  0.00    +0.000 A 
ATOM      5  N   UNL     1       4.437   6.454  16.691  0.00  0.00    +0.000 N 
ATOM      6  C   UNL     1       4.730   5.127  16.869  0.00  0.00    +0.000 A 
ATOM      7  O   UNL     1       5.537   4.599  16.109  0.00  0.00    +0.000 OA
ATOM      8  N   UNL     1       4.095   4.439  17.868  0.00  0.00    +0.000 NA
ATOM      9  C   UNL     1       3.257   5.021  18.675  0.00  0.00    +0.000 A 
ATOM     10  C   UNL     1       2.988   6.484  18.591  0.00  0.00    +0.000 A 
ATOM     11  C   UNL     1       2.219   7.210  19.503  0.00  0.00    +0.000 A 
ATOM     12  H   UNL     1       4.924   6.902  15.930  0.00  0.00    +0.000 HD
ENDROOT
BRANCH   1  16
ATOM     13  C   UNL     1      -0.790  10.603  21.994  0.00  0.00    +0.000 A 
ATOM     14  C   UNL     1      -0.621  11.061  20.689  0.00  0.00    +0.000 A 
ATOM     15  C   UNL     1       0.246  10.396  19.815  0.00  0.00    +0.000 A 
ATOM     16  C   UNL     1       0.985   9.273  20.227  0.00  0.00    +0.000 A 
ATOM     17  C   UNL     1       0.797   8.832  21.551  0.00  0.00    +0.000 A 
ATOM     18  C   UNL     1      -0.082   9.482  22.423  0.00  0.00    +0.000 A 
BRANCH  13  20
ATOM     19  N   UNL     1      -2.401  11.828  23.615  0.00  0.00    +0.000 NA
ATOM     20  C   UNL     1      -1.680  11.278  22.888  0.00  0.00    +0.000 C 
ENDBRANCH  13  20
ENDBRANCH   1  16
BRANCH   9  21
ATOM     21  C   UNL     1       2.557   4.144  19.674  0.00  0.00    +0.000 A 
ATOM     22  C   UNL     1       1.462   3.381  19.249  0.00  0.00    +0.000 A 
ATOM     23  C   UNL     1       0.772   2.571  20.155  0.00  0.00    +0.000 A 
ATOM     24  C   UNL     1       1.184   2.497  21.486  0.00  0.00    +0.000 A 
ATOM     25  C   UNL     1       2.260   3.264  21.921  0.00  0.00    +0.000 A 
ATOM     26  C   UNL     1       2.913   4.116  21.029  0.00  0.00    +0.000 A 
ENDBRANCH   9  21
TORSDOF 3
ENDMDL
MODEL 6
REMARK VINA RESULT:      -7.7      1.784      2.050
REMARK  Name = 
REMARK  3 active torsions:
REMARK  status: ('A' for Active; 'I' for Inactive)
REMARK    1  A    between atoms: C_2  and  C_3
REMARK    2  A    between atoms: C_6  and  C_7
REMARK    3  A    between atoms: C_15  and  C_16
REMARK                            x       y       z     vdW  Elec       q    Type
REMARK                         _______ _______ _______ _____ _____    ______ ____
ROOT
ATOM      1  C   UNL     1       2.077   6.622  19.479  0.00  0.00    +0.000 A 
ATOM      2  C   UNL     1       1.646   5.909  20.611  0.00  0.00    +0.000 A 
ATOM      3  C   UNL     1       1.914   4.543  20.758  0.00  0.00    +0.000 A 
ATOM      4  C   UNL     1       2.670   3.884  19.795  0.00  0.00    +0.000 A 
ATOM      5  N   UNL     1       2.925   2.526  19.910  0.00  0.00    +0.000 N 
ATOM      6  C   UNL     1       3.652   1.828  18.982  0.00  0.00    +0.000 A 
ATOM      7  O   UNL     1       3.795   0.618  19.141  0.00  0.00    +0.000 OA
ATOM      8  N   UNL     1       4.208   2.506  17.930  0.00  0.00    +0.000 NA
ATOM      9  C   UNL     1       4.029   3.784  17.770  0.00  0.00    +0.000 A 
ATOM     10  C   UNL     1       3.158   4.568  18.690  0.00  0.00    +0.000 A 
ATOM     11  C   UNL     1       2.798   5.905  18.508  0.00  0.00    +0.000 A 
ATOM     12  H   UNL     1       2.555   1.974  20.669  0.00  0.00    +0.000 HD
ENDROOT
BRANCH   1  16
ATOM     13  C   UNL     1       1.271  10.834  18.953  0.00  0.00    +0.000 A 
ATOM     14  C   UNL     1       1.910  10.109  17.949  0.00  0.00    +0.000 A 
ATOM     15  C   UNL     1       2.166   8.744  18.120  0.00  0.00    +0.000 A 
ATOM     16  C   UNL     1       1.812   8.071  19.303  0.00  0.00    +0.000 A 
ATOM     17  C   UNL     1       1.168   8.829  20.301  0.00  0.00    +0.000 A 
ATOM     18  C   UNL     1       0.894  10.189  20.129  0.00  0.00    +0.000 A 
BRANCH  13  20
ATOM     19  N   UNL     1       0.790  13.362  18.637  0.00  0.00    +0.000 NA
ATOM     20  C   UNL     1       1.004  12.228  18.780  0.00  0.00    +0.000 C 
ENDBRANCH  13  20
ENDBRANCH   1  16
BRANCH   9  21
ATOM     21  C   UNL     1       4.761   4.433  16.630  0.00  0.00    +0.000 A 
ATOM     22  C   UNL     1       5.483   3.622  15.746  0.00  0.00    +0.000 A 
ATOM     23  C   UNL     1       6.196   4.192  14.686  0.00  0.00    +0.000 A 
ATOM     24  C   UNL     1       6.173   5.573  14.488  0.00  0.00    +0.000 A 
ATOM     25  C   UNL     1       5.473   6.388  15.372  0.00  0.00    +0.000 A 
ATOM     26  C   UNL     1       4.809   5.824  16.461  0.00  0.00    +0.000 A 
ENDBRANCH   9  21
TORSDOF 3
ENDMDL
MODEL 7
REMARK VINA RESULT:      -7.5      1.399      2.050
REMARK  Name = 
REMARK  3 active torsions:
REMARK  status: ('A' for Active; 'I' for Inactive)
REMARK    1  A    between atoms: C_2  and  C_3
REMARK    2  A    between atoms: C_6  and  C_7
REMARK    3  A    between atoms: C_15  and  C_16
REMARK                            x       y       z     vdW  Elec       q    Type
REMARK                         _______ _______ _______ _____ _____    ______ ____
ROOT
ATOM      1  C   UNL     1       2.046   6.616  19.469  0.00  0.00    +0.000 A 
ATOM      2  C   UNL     1       1.441   5.875  20.499  0.00  0.00    +0.000 A 
ATOM      3  C   UNL     1       1.695   4.508  20.659  0.00  0.00    +0.000 A 
ATOM      4  C   UNL     1       2.605   3.875  19.821  0.00  0.00    +0.000 A 
ATOM      5  N   UNL     1       2.852   2.516  19.947  0.00  0.00    +0.000 N 
ATOM      6  C   UNL     1       3.728   1.844  19.138  0.00  0.00    +0.000 A 
ATOM      7  O   UNL     1       3.855   0.632  19.292  0.00  0.00    +0.000 OA
ATOM      8  N   UNL     1       4.444   2.549  18.207  0.00  0.00    +0.000 NA
ATOM      9  C   UNL     1       4.281   3.829  18.047  0.00  0.00    +0.000 A 
ATOM     10  C   UNL     1       3.262   4.587  18.826  0.00  0.00    +0.000 A 
ATOM     11  C   UNL     1       2.925   5.926  18.616  0.00  0.00    +0.000 A 
ATOM     12  H   UNL     1       2.366   1.946  20.622  0.00  0.00    +0.000 HD
ENDROOT
BRANCH   1  16
ATOM     13  C   UNL     1       1.363  10.849  18.939  0.00  0.00    +0.000 A 
ATOM     14  C   UNL     1       0.963  10.213  20.113  0.00  0.00    +0.000 A 
ATOM     15  C   UNL     1       1.190   8.843  20.285  0.00  0.00    +0.000 A 
ATOM     16  C   UNL     1       1.799   8.067  19.282  0.00  0.00    +0.000 A 
ATOM     17  C   UNL     1       2.192   8.735  18.106  0.00  0.00    +0.000 A 
ATOM     18  C   UNL     1       1.984  10.107  17.936  0.00  0.00    +0.000 A 
BRANCH  13  20
ATOM     19  N   UNL     1       0.955  13.389  18.618  0.00  0.00    +0.000 NA
ATOM     20  C   UNL     1       1.137  12.250  18.763  0.00  0.00    +0.000 C 
ENDBRANCH  13  20
ENDBRANCH   1  16
BRANCH   9  21
ATOM     21  C   UNL     1       5.186   4.508  17.058  0.00  0.00    +0.000 A 
ATOM     22  C   UNL     1       6.204   5.341  17.539  0.00  0.00    +0.000 A 
ATOM     23  C   UNL     1       7.050   6.008  16.648  0.00  0.00    +0.000 A 
ATOM     24  C   UNL     1       6.903   5.829  15.273  0.00  0.00    +0.000 A 
ATOM     25  C   UNL     1       5.884   5.017  14.785  0.00  0.00    +0.000 A 
ATOM     26  C   UNL     1       5.003   4.398  15.672  0.00  0.00    +0.000 A 
ENDBRANCH   9  21
TORSDOF 3
ENDMDL
MODEL 8
REMARK VINA RESULT:      -7.3      4.043      8.769
REMARK  Name = 
REMARK  3 active torsions:
REMARK  status: ('A' for Active; 'I' for Inactive)
REMARK    1  A    between atoms: C_2  and  C_3
REMARK    2  A    between atoms: C_6  and  C_7
REMARK    3  A    between atoms: C_15  and  C_16
REMARK                            x       y       z     vdW  Elec       q    Type
REMARK                         _______ _______ _______ _____ _____    ______ ____
ROOT
ATOM      1  C   UNL     1       0.967   9.250  19.966  0.00  0.00    +0.000 A 
ATOM      2  C   UNL     1       1.101   9.596  21.322  0.00  0.00    +0.000 A 
ATOM      3  C   UNL     1       0.264  10.546  21.919  0.00  0.00    +0.000 A 
ATOM      4  C   UNL     1      -0.759  11.123  21.175  0.00  0.00    +0.000 A 
ATOM      5  N   UNL     1      -1.583  12.085  21.740  0.00  0.00    +0.000 N 
ATOM      6  C   UNL     1      -2.596  12.693  21.047  0.00  0.00    +0.000 A 
ATOM      7  O   UNL     1      -3.251  13.565  21.613  0.00  0.00    +0.000 OA
ATOM      8  N   UNL     1      -2.852  12.292  19.763  0.00  0.00    +0.000 NA
ATOM      9  C   UNL     1      -2.135  11.381  19.175  0.00  0.00    +0.000 A 
ATOM     10  C   UNL     1      -0.955  10.767  19.848  0.00  0.00    +0.000 A 
ATOM     11  C   UNL     1      -0.051   9.893  19.240  0.00  0.00    +0.000 A 
ATOM     12  H   UNL     1      -1.453  12.412  22.686  0.00  0.00    +0.000 HD
ENDROOT
BRANCH   1  16
ATOM     13  C   UNL     1       3.529   6.327  18.082  0.00  0.00    +0.000 A 
ATOM     14  C   UNL     1       3.258   7.538  17.448  0.00  0.00    +0.000 A 
ATOM     15  C   UNL     1       2.432   8.485  18.062  0.00  0.00    +0.000 A 
ATOM     16  C   UNL     1       1.836   8.241  19.313  0.00  0.00    +0.000 A 
ATOM     17  C   UNL     1       2.126   7.009  19.930  0.00  0.00    +0.000 A 
ATOM     18  C   UNL     1       2.965   6.065  19.329  0.00  0.00    +0.000 A 
BRANCH  13  20
ATOM     19  N   UNL     1       5.063   4.569  16.950  0.00  0.00    +0.000 NA
ATOM     20  C   UNL     1       4.376   5.358  17.458  0.00  0.00    +0.000 C 
ENDBRANCH  13  20
ENDBRANCH   1  16
BRANCH   9  21
ATOM     21  C   UNL     1      -2.568  10.961  17.799  0.00  0.00    +0.000 A 
ATOM     22  C   UNL     1      -3.744  11.505  17.268  0.00  0.00    +0.000 A 
ATOM     23  C   UNL     1      -4.190  11.121  16.000  0.00  0.00    +0.000 A 
ATOM     24  C   UNL     1      -3.453  10.210  15.243  0.00  0.00    +0.000 A 
ATOM     25  C   UNL     1      -2.292   9.651  15.769  0.00  0.00    +0.000 A 
ATOM     26  C   UNL     1      -1.879   9.991  17.057  0.00  0.00    +0.000 A 
ENDBRANCH   9  21
TORSDOF 3
ENDMDL
