MODEL 1
REMARK VINA RESULT:      -7.1      0.000      0.000
REMARK  Name = 
REMARK  4 active torsions:
REMARK  status: ('A' for Active; 'I' for Inactive)
REMARK    1  A    between atoms: C_2  and  C_3
REMARK    2  A    between atoms: C_8  and  N_9
REMARK    3  A    between atoms: N_15  and  C_16
REMARK    4  A    between atoms: C_16  and  C_17
REMARK                            x       y       z     vdW  Elec       q    Type
REMARK                         _______ _______ _______ _____ _____    ______ ____
ROOT
ATOM      1  N   UNL     1      -0.842  11.322  22.196  0.00  0.00    +0.000 N 
ATOM      2  C   UNL     1      -0.906  11.330  20.721  0.00  0.00    +0.000 C 
ATOM      3  C   UNL     1       0.475  10.954  20.156  0.00  0.00    +0.000 C 
ATOM      4  N   UNL     1       0.954   9.668  20.689  0.00  0.00    +0.000 N 
ATOM      5  C   UNL     1       1.493   8.763  19.802  0.00  0.00    +0.000 C 
ATOM      6  O   UNL     1       1.513   8.964  18.588  0.00  0.00    +0.000 OA
ATOM      7  N   UNL     1       2.005   7.611  20.316  0.00  0.00    +0.000 N 
ATOM      8  C   UNL     1       0.951   9.607  22.165  0.00  0.00    +0.000 C 
ATOM      9  C   UNL     1      -0.428  10.012  22.750  0.00  0.00    +0.000 C 
ATOM     10  H   UNL     1       1.859   7.340  21.276  0.00  0.00    +0.000 HD
ENDROOT
BRANCH   1  16
ATOM     11  C   UNL     1      -1.240  13.569  23.111  0.00  0.00    +0.000 A 
ATOM     12  C   UNL     1      -2.098  14.483  23.753  0.00  0.00    +0.000 A 
ATOM     13  C   UNL     1      -3.337  14.073  24.235  0.00  0.00    +0.000 A 
ATOM     14  C   UNL     1      -3.713  12.744  24.098  0.00  0.00    +0.000 A 
ATOM     15  C   UNL     1      -2.861  11.832  23.462  0.00  0.00    +0.000 A 
ATOM     16  C   UNL     1      -1.610  12.214  22.935  0.00  0.00    +0.000 A 
BRANCH  11  18
ATOM     17  N   UNL     1       0.983  14.522  22.169  0.00  0.00    +0.000 NA
ATOM     18  C   UNL     1      -0.019  14.095  22.574  0.00  0.00    +0.000 C 
ENDBRANCH  11  18
ENDBRANCH   1  16
BRANCH   7  19
ATOM     19  C   UNL     1       2.508   6.567  19.432  0.00  0.00    +0.000 C 
BRANCH  19  20
ATOM     20  C   UNL     1       2.413   5.186  20.089  0.00  0.00    +0.000 C 
ATOM     21  O   UNL     1       2.067   5.066  21.270  0.00  0.00    +0.000 OA
ATOM     22  N   UNL     1       2.704   4.091  19.304  0.00  0.00    +0.000 N 
ATOM     23  C   UNL     1       3.093   4.077  17.905  0.00  0.00    +0.000 C 
ATOM     24  C   UNL     1       2.636   2.709  17.427  0.00  0.00    +0.000 C 
ATOM     25  C   UNL     1       2.855   1.816  18.644  0.00  0.00    +0.000 C 
ATOM     26  C   UNL     1       2.648   2.741  19.840  0.00  0.00    +0.000 C 
ENDBRANCH  19  20
ENDBRANCH   7  19
TORSDOF 4
ENDMDL
MODEL 2
REMARK VINA RESULT:      -6.8      2.110      2.408
REMARK  Name = 
REMARK  4 active torsions:
REMARK  status: ('A' for Active; 'I' for Inactive)
REMARK    1  A    between atoms: C_2  and  C_3
REMARK    2  A    between atoms: C_8  and  N_9
REMARK    3  A    between atoms: N_15  and  C_16
REMARK    4  A    between atoms: C_16  and  C_17
REMARK                            x       y       z     vdW  Elec       q    Type
REMARK                         _______ _______ _______ _____ _____    ______ ____
ROOT
ATOM      1  N   UNL     1      -0.439  11.382  20.031  0.00  0.00    +0.000 N 
ATOM      2  C   UNL     1      -0.058  11.369  18.606  0.00  0.00    +0.000 C 
ATOM      3  C   UNL     1       1.350  10.762  18.467  0.00  0.00    +0.000 C 
ATOM      4  N   UNL     1       1.434   9.426  19.081  0.00  0.00    +0.000 N 
ATOM      5  C   UNL     1       2.060   8.428  18.369  0.00  0.00    +0.000 C 
ATOM      6  O   UNL     1       2.474   8.597  17.223  0.00  0.00    +0.000 OA
ATOM      7  N   UNL     1       2.202   7.218  18.979  0.00  0.00    +0.000 N 
ATOM      8  C   UNL     1       0.980   9.397  20.487  0.00  0.00    +0.000 C 
ATOM      9  C   UNL     1      -0.426  10.033  20.646  0.00  0.00    +0.000 C 
ATOM     10  H   UNL     1       1.734   6.995  19.843  0.00  0.00    +0.000 HD
ENDROOT
BRANCH   1  16
ATOM     11  C   UNL     1      -0.699  13.540  21.180  0.00  0.00    +0.000 A 
ATOM     12  C   UNL     1      -1.519  14.619  21.563  0.00  0.00    +0.000 A 
ATOM     13  C   UNL     1      -2.887  14.592  21.316  0.00  0.00    +0.000 A 
ATOM     14  C   UNL     1      -3.445  13.477  20.707  0.00  0.00    +0.000 A 
ATOM     15  C   UNL     1      -2.633  12.400  20.327  0.00  0.00    +0.000 A 
ATOM     16  C   UNL     1      -1.239  12.402  20.534  0.00  0.00    +0.000 A 
BRANCH  11  18
ATOM     17  N   UNL     1       1.846  13.829  21.600  0.00  0.00    +0.000 NA
ATOM     18  C   UNL     1       0.710  13.687  21.400  0.00  0.00    +0.000 C 
ENDBRANCH  11  18
ENDBRANCH   1  16
BRANCH   7  19
ATOM     19  C   UNL     1       2.770   6.089  18.255  0.00  0.00    +0.000 C 
BRANCH  19  20
ATOM     20  C   UNL     1       1.875   4.850  18.363  0.00  0.00    +0.000 C 
ATOM     21  O   UNL     1       1.309   4.386  17.367  0.00  0.00    +0.000 OA
ATOM     22  N   UNL     1       1.750   4.266  19.605  0.00  0.00    +0.000 N 
ATOM     23  C   UNL     1       2.372   4.680  20.850  0.00  0.00    +0.000 C 
ATOM     24  C   UNL     1       2.443   3.391  21.653  0.00  0.00    +0.000 C 
ATOM     25  C   UNL     1       1.175   2.649  21.245  0.00  0.00    +0.000 C 
ATOM     26  C   UNL     1       0.917   3.091  19.808  0.00  0.00    +0.000 C 
ENDBRANCH  19  20
ENDBRANCH   7  19
TORSDOF 4
ENDMDL
MODEL 3
REMARK VINA RESULT:      -6.7      3.434      9.630
REMARK  Name = 
REMARK  4 active torsions:
REMARK  status: ('A' for Active; 'I' for Inactive)
REMARK    1  A    between atoms: C_2  and  C_3
REMARK    2  A    between atoms: C_8  and  N_9
REMARK    3  A    between atoms: N_15  and  C_16
REMARK    4  A    between atoms: C_16  and  C_17
REMARK                            x       y       z     vdW  Elec       q    Type
REMARK                         _______ _______ _______ _____ _____    ______ ____
ROOT
ATOM      1  N   UNL     1       2.985   7.082  18.424  0.00  0.00    +0.000 N 
ATOM      2  C   UNL     1       2.168   6.895  19.639  0.00  0.00    +0.000 C 
ATOM      3  C   UNL     1       1.830   8.274  20.234  0.00  0.00    +0.000 C 
ATOM      4  N   UNL     1       1.177   9.151  19.249  0.00  0.00    +0.000 N 
ATOM      5  C   UNL     1       0.063   9.855  19.652  0.00  0.00    +0.000 C 
ATOM      6  O   UNL     1      -0.437   9.714  20.766  0.00  0.00    +0.000 OA
ATOM      7  N   UNL     1      -0.485  10.724  18.757  0.00  0.00    +0.000 N 
ATOM      8  C   UNL     1       1.938   9.290  17.991  0.00  0.00    +0.000 C 
ATOM      9  C   UNL     1       2.311   7.907  17.394  0.00  0.00    +0.000 C 
ATOM     10  H   UNL     1      -0.206  10.744  17.789  0.00  0.00    +0.000 HD
ENDROOT
BRANCH   1  16
ATOM     11  C   UNL     1       3.642   4.838  17.662  0.00  0.00    +0.000 A 
ATOM     12  C   UNL     1       4.640   3.958  17.202  0.00  0.00    +0.000 A 
ATOM     13  C   UNL     1       5.970   4.358  17.153  0.00  0.00    +0.000 A 
ATOM     14  C   UNL     1       6.313   5.631  17.588  0.00  0.00    +0.000 A 
ATOM     15  C   UNL     1       5.323   6.509  18.049  0.00  0.00    +0.000 A 
ATOM     16  C   UNL     1       3.960   6.151  18.086  0.00  0.00    +0.000 A 
BRANCH  11  18
ATOM     17  N   UNL     1       1.193   3.980  17.583  0.00  0.00    +0.000 NA
ATOM     18  C   UNL     1       2.288   4.371  17.602  0.00  0.00    +0.000 C 
ENDBRANCH  11  18
ENDBRANCH   1  16
BRANCH   7  19
ATOM     19  C   UNL     1      -1.716  11.434  19.078  0.00  0.00    +0.000 C 
BRANCH  19  20
ATOM     20  C   UNL     1      -2.685  11.435  17.891  0.00  0.00    +0.000 C 
ATOM     21  O   UNL     1      -2.298  11.146  16.753  0.00  0.00    +0.000 OA
ATOM     22  N   UNL     1      -4.003  11.745  18.151  0.00  0.00    +0.000 N 
ATOM     23  C   UNL     1      -4.604  12.075  19.431  0.00  0.00    +0.000 C 
ATOM     24  C   UNL     1      -6.057  11.665  19.253  0.00  0.00    +0.000 C 
ATOM     25  C   UNL     1      -6.337  11.980  17.787  0.00  0.00    +0.000 C 
ATOM     26  C   UNL     1      -4.995  11.778  17.089  0.00  0.00    +0.000 C 
ENDBRANCH  19  20
ENDBRANCH   7  19
TORSDOF 4
ENDMDL
MODEL 4
REMARK VINA RESULT:      -6.6      3.419      4.501
REMARK  Name = 
REMARK  4 active torsions:
REMARK  status: ('A' for Active; 'I' for Inactive)
REMARK    1  A    between atoms: C_2  and  C_3
REMARK    2  A    between atoms: C_8  and  N_9
REMARK    3  A    between atoms: N_15  and  C_16
REMARK    4  A    between atoms: C_16  and  C_17
REMARK                            x       y       z     vdW  Elec       q    Type
REMARK                         _______ _______ _______ _____ _____    ______ ____
ROOT
ATOM      1  N   UNL     1       1.348  11.520  19.135  0.00  0.00    +0.000 N 
ATOM      2  C   UNL     1       1.221  10.880  20.458  0.00  0.00    +0.000 C 
ATOM      3  C   UNL     1       0.713   9.439  20.273  0.00  0.00    +0.000 C 
ATOM      4  N   UNL     1       1.570   8.668  19.357  0.00  0.00    +0.000 N 
ATOM      5  C   UNL     1       1.930   7.392  19.731  0.00  0.00    +0.000 C 
ATOM      6  O   UNL     1       1.625   6.916  20.823  0.00  0.00    +0.000 OA
ATOM      7  N   UNL     1       2.657   6.661  18.841  0.00  0.00    +0.000 N 
ATOM      8  C   UNL     1       1.778   9.329  18.052  0.00  0.00    +0.000 C 
ATOM      9  C   UNL     1       2.263  10.793  18.225  0.00  0.00    +0.000 C 
ATOM     10  H   UNL     1       3.063   7.070  18.015  0.00  0.00    +0.000 HD
ENDROOT
BRANCH   1  16
ATOM     11  C   UNL     1      -0.149  13.394  18.594  0.00  0.00    +0.000 A 
ATOM     12  C   UNL     1      -0.402  14.779  18.581  0.00  0.00    +0.000 A 
ATOM     13  C   UNL     1       0.585  15.683  18.957  0.00  0.00    +0.000 A 
ATOM     14  C   UNL     1       1.836  15.209  19.325  0.00  0.00    +0.000 A 
ATOM     15  C   UNL     1       2.092  13.832  19.337  0.00  0.00    +0.000 A 
ATOM     16  C   UNL     1       1.110  12.882  18.990  0.00  0.00    +0.000 A 
BRANCH  11  18
ATOM     17  N   UNL     1      -2.125  11.828  17.976  0.00  0.00    +0.000 NA
ATOM     18  C   UNL     1      -1.247  12.532  18.269  0.00  0.00    +0.000 C 
ENDBRANCH  11  18
ENDBRANCH   1  16
BRANCH   7  19
ATOM     19  C   UNL     1       3.151   5.339  19.203  0.00  0.00    +0.000 C 
BRANCH  19  20
ATOM     20  C   UNL     1       3.985   4.727  18.072  0.00  0.00    +0.000 C 
ATOM     21  O   UNL     1       3.442   4.217  17.085  0.00  0.00    +0.000 OA
ATOM     22  N   UNL     1       5.357   4.791  18.192  0.00  0.00    +0.000 N 
ATOM     23  C   UNL     1       6.129   5.380  19.271  0.00  0.00    +0.000 C 
ATOM     24  C   UNL     1       7.439   5.759  18.600  0.00  0.00    +0.000 C 
ATOM     25  C   UNL     1       7.644   4.652  17.571  0.00  0.00    +0.000 C 
ATOM     26  C   UNL     1       6.231   4.232  17.174  0.00  0.00    +0.000 C 
ENDBRANCH  19  20
ENDBRANCH   7  19
TORSDOF 4
ENDMDL
MODEL 5
REMARK VINA RESULT:      -6.6      3.663      5.821
REMARK  Name = 
REMARK  4 active torsions:
REMARK  status: ('A' for Active; 'I' for Inactive)
REMARK    1  A    between atoms: C_2  and  C_3
REMARK    2  A    between atoms: C_8  and  N_9
REMARK    3  A    between atoms: N_15  and  C_16
REMARK    4  A    between atoms: C_16  and  C_17
REMARK                            x       y       z     vdW  Elec       q    Type
REMARK                         _______ _______ _______ _____ _____    ______ ____
ROOT
ATOM      1  N   UNL     1       1.719   7.772  20.063  0.00  0.00    +0.000 N 
ATOM      2  C   UNL     1       1.875   6.406  20.598  0.00  0.00    +0.000 C 
ATOM      3  C   UNL     1       1.825   5.400  19.434  0.00  0.00    +0.000 C 
ATOM      4  N   UNL     1       2.822   5.713  18.397  0.00  0.00    +0.000 N 
ATOM      5  C   UNL     1       3.579   4.676  17.897  0.00  0.00    +0.000 C 
ATOM      6  O   UNL     1       3.501   3.531  18.340  0.00  0.00    +0.000 OA
ATOM      7  N   UNL     1       4.442   4.963  16.883  0.00  0.00    +0.000 N 
ATOM      8  C   UNL     1       2.739   7.102  17.901  0.00  0.00    +0.000 C 
ATOM      9  C   UNL     1       2.758   8.126  19.067  0.00  0.00    +0.000 C 
ATOM     10  H   UNL     1       4.652   5.910  16.609  0.00  0.00    +0.000 HD
ENDROOT
BRANCH   1  16
ATOM     11  C   UNL     1       0.226   9.719  20.213  0.00  0.00    +0.000 A 
ATOM     12  C   UNL     1      -0.527  10.612  21.000  0.00  0.00    +0.000 A 
ATOM     13  C   UNL     1      -0.464  10.561  22.388  0.00  0.00    +0.000 A 
ATOM     14  C   UNL     1       0.370   9.633  22.995  0.00  0.00    +0.000 A 
ATOM     15  C   UNL     1       1.123   8.744  22.216  0.00  0.00    +0.000 A 
ATOM     16  C   UNL     1       1.064   8.746  20.807  0.00  0.00    +0.000 A 
BRANCH  11  18
ATOM     17  N   UNL     1      -0.106   9.816  17.640  0.00  0.00    +0.000 NA
ATOM     18  C   UNL     1       0.039   9.790  18.794  0.00  0.00    +0.000 C 
ENDBRANCH  11  18
ENDBRANCH   1  16
BRANCH   7  19
ATOM     19  C   UNL     1       5.340   3.939  16.367  0.00  0.00    +0.000 C 
BRANCH  19  20
ATOM     20  C   UNL     1       6.521   4.560  15.613  0.00  0.00    +0.000 C 
ATOM     21  O   UNL     1       7.438   5.123  16.221  0.00  0.00    +0.000 OA
ATOM     22  N   UNL     1       6.527   4.444  14.239  0.00  0.00    +0.000 N 
ATOM     23  C   UNL     1       5.540   3.791  13.398  0.00  0.00    +0.000 C 
ATOM     24  C   UNL     1       6.337   3.390  12.168  0.00  0.00    +0.000 C 
ATOM     25  C   UNL     1       7.345   4.525  12.012  0.00  0.00    +0.000 C 
ATOM     26  C   UNL     1       7.600   5.007  13.438  0.00  0.00    +0.000 C 
ENDBRANCH  19  20
ENDBRANCH   7  19
TORSDOF 4
ENDMDL
MODEL 6
REMARK VINA RESULT:      -6.6      1.605      1.772
REMARK  Name = 
REMARK  4 active torsions:
REMARK  status: ('A' for Active; 'I' for Inactive)
REMARK    1  A    between atoms: C_2  and  C_3
REMARK    2  A    between atoms: C_8  and  N_9
REMARK    3  A    between atoms: N_15  and  C_16
REMARK    4  A    between atoms: C_16  and  C_17
REMARK                            x       y       z     vdW  Elec       q    Type
REMARK                         _______ _______ _______ _____ _____    ______ ____
ROOT
ATOM      1  N   UNL     1      -1.072  11.724  21.981  0.00  0.00    +0.000 N 
ATOM      2  C   UNL     1      -1.405  11.780  20.545  0.00  0.00    +0.000 C 
ATOM      3  C   UNL     1      -0.116  11.602  19.723  0.00  0.00    +0.000 C 
ATOM      4  N   UNL     1       0.599  10.367  20.085  0.00  0.00    +0.000 N 
ATOM      5  C   UNL     1       1.069   9.571  19.064  0.00  0.00    +0.000 C 
ATOM      6  O   UNL     1       0.843   9.818  17.880  0.00  0.00    +0.000 OA
ATOM      7  N   UNL     1       1.797   8.474  19.410  0.00  0.00    +0.000 N 
ATOM      8  C   UNL     1       0.873  10.250  21.532  0.00  0.00    +0.000 C 
ATOM      9  C   UNL     1      -0.413  10.457  22.375  0.00  0.00    +0.000 C 
ATOM     10  H   UNL     1       1.861   8.151  20.362  0.00  0.00    +0.000 HD
ENDROOT
BRANCH   1  16
ATOM     11  C   UNL     1      -1.405  13.796  23.263  0.00  0.00    +0.000 A 
ATOM     12  C   UNL     1      -2.218  14.592  24.092  0.00  0.00    +0.000 A 
ATOM     13  C   UNL     1      -3.428  14.106  24.574  0.00  0.00    +0.000 A 
ATOM     14  C   UNL     1      -3.819  12.814  24.251  0.00  0.00    +0.000 A 
ATOM     15  C   UNL     1      -3.010  12.018  23.429  0.00  0.00    +0.000 A 
ATOM     16  C   UNL     1      -1.791  12.485  22.897  0.00  0.00    +0.000 A 
BRANCH  11  18
ATOM     17  N   UNL     1       0.767  14.890  22.354  0.00  0.00    +0.000 NA
ATOM     18  C   UNL     1      -0.214  14.405  22.746  0.00  0.00    +0.000 C 
ENDBRANCH  11  18
ENDBRANCH   1  16
BRANCH   7  19
ATOM     19  C   UNL     1       2.248   7.535  18.390  0.00  0.00    +0.000 C 
BRANCH  19  20
ATOM     20  C   UNL     1       3.030   6.372  19.009  0.00  0.00    +0.000 C 
ATOM     21  O   UNL     1       2.630   5.811  20.035  0.00  0.00    +0.000 OA
ATOM     22  N   UNL     1       4.178   5.966  18.362  0.00  0.00    +0.000 N 
ATOM     23  C   UNL     1       4.751   6.508  17.143  0.00  0.00    +0.000 C 
ATOM     24  C   UNL     1       5.531   5.336  16.570  0.00  0.00    +0.000 C 
ATOM     25  C   UNL     1       6.051   4.616  17.810  0.00  0.00    +0.000 C 
ATOM     26  C   UNL     1       4.991   4.876  18.877  0.00  0.00    +0.000 C 
ENDBRANCH  19  20
ENDBRANCH   7  19
TORSDOF 4
ENDMDL
MODEL 7
REMARK VINA RESULT:      -6.6      1.994      2.455
REMARK  Name = 
REMARK  4 active torsions:
REMARK  status: ('A' for Active; 'I' for Inactive)
REMARK    1  A    between atoms: C_2  and  C_3
REMARK    2  A    between atoms: C_8  and  N_9
REMARK    3  A    between atoms: N_15  and  C_16
REMARK    4  A    between atoms: C_16  and  C_17
REMARK                            x       y       z     vdW  Elec       q    Type
REMARK                         _______ _______ _______ _____ _____    ______ ____
ROOT
ATOM      1  N   UNL     1      -0.481  10.608  20.198  0.00  0.00    +0.000 N 
ATOM      2  C   UNL     1      -0.125  10.836  18.785  0.00  0.00    +0.000 C 
ATOM      3  C   UNL     1       1.353  10.465  18.572  0.00  0.00    +0.000 C 
ATOM      4  N   UNL     1       1.642   9.088  19.008  0.00  0.00    +0.000 N 
ATOM      5  C   UNL     1       2.395   8.293  18.174  0.00  0.00    +0.000 C 
ATOM      6  O   UNL     1       2.761   8.667  17.061  0.00  0.00    +0.000 OA
ATOM      7  N   UNL     1       2.722   7.049  18.622  0.00  0.00    +0.000 N 
ATOM      8  C   UNL     1       1.220   8.812  20.397  0.00  0.00    +0.000 C 
ATOM      9  C   UNL     1      -0.262   9.208  20.633  0.00  0.00    +0.000 C 
ATOM     10  H   UNL     1       2.306   6.650  19.448  0.00  0.00    +0.000 HD
ENDROOT
BRANCH   1  16
ATOM     11  C   UNL     1      -1.545  11.483  22.235  0.00  0.00    +0.000 A 
ATOM     12  C   UNL     1      -2.404  12.413  22.851  0.00  0.00    +0.000 A 
ATOM     13  C   UNL     1      -3.149  13.304  22.086  0.00  0.00    +0.000 A 
ATOM     14  C   UNL     1      -3.057  13.253  20.702  0.00  0.00    +0.000 A 
ATOM     15  C   UNL     1      -2.206  12.326  20.086  0.00  0.00    +0.000 A 
ATOM     16  C   UNL     1      -1.413  11.426  20.827  0.00  0.00    +0.000 A 
BRANCH  11  18
ATOM     17  N   UNL     1      -0.088  10.004  23.794  0.00  0.00    +0.000 NA
ATOM     18  C   UNL     1      -0.756  10.658  23.102  0.00  0.00    +0.000 C 
ENDBRANCH  11  18
ENDBRANCH   1  16
BRANCH   7  19
ATOM     19  C   UNL     1       3.438   6.118  17.759  0.00  0.00    +0.000 C 
BRANCH  19  20
ATOM     20  C   UNL     1       3.848   4.854  18.521  0.00  0.00    +0.000 C 
ATOM     21  O   UNL     1       4.951   4.774  19.074  0.00  0.00    +0.000 OA
ATOM     22  N   UNL     1       2.930   3.827  18.584  0.00  0.00    +0.000 N 
ATOM     23  C   UNL     1       1.596   3.790  18.011  0.00  0.00    +0.000 C 
ATOM     24  C   UNL     1       0.857   2.809  18.907  0.00  0.00    +0.000 C 
ATOM     25  C   UNL     1       1.929   1.789  19.277  0.00  0.00    +0.000 C 
ATOM     26  C   UNL     1       3.231   2.586  19.278  0.00  0.00    +0.000 C 
ENDBRANCH  19  20
ENDBRANCH   7  19
TORSDOF 4
ENDMDL
MODEL 8
REMARK VINA RESULT:      -6.6      1.513      1.869
REMARK  Name = 
REMARK  4 active torsions:
REMARK  status: ('A' for Active; 'I' for Inactive)
REMARK    1  A    between atoms: C_2  and  C_3
REMARK    2  A    between atoms: C_8  and  N_9
REMARK    3  A    between atoms: N_15  and  C_16
REMARK    4  A    between atoms: C_16  and  C_17
REMARK                            x       y       z     vdW  Elec       q    Type
REMARK                         _______ _______ _______ _____ _____    ______ ____
ROOT
ATOM      1  N   UNL     1      -0.191  10.962  21.345  0.00  0.00    +0.000 N 
ATOM      2  C   UNL     1      -0.316  11.035  19.877  0.00  0.00    +0.000 C 
ATOM      3  C   UNL     1       1.013  10.595  19.237  0.00  0.00    +0.000 C 
ATOM      4  N   UNL     1       1.429   9.261  19.699  0.00  0.00    +0.000 N 
ATOM      5  C   UNL     1       1.871   8.360  18.754  0.00  0.00    +0.000 C 
ATOM      6  O   UNL     1       1.853   8.609  17.550  0.00  0.00    +0.000 OA
ATOM      7  N   UNL     1       2.327   7.158  19.202  0.00  0.00    +0.000 N 
ATOM      8  C   UNL     1       1.483   9.139  21.170  0.00  0.00    +0.000 C 
ATOM      9  C   UNL     1       0.160   9.607  21.830  0.00  0.00    +0.000 C 
ATOM     10  H   UNL     1       2.203   6.857  20.155  0.00  0.00    +0.000 HD
ENDROOT
BRANCH   1  16
ATOM     11  C   UNL     1      -0.470  13.224  22.269  0.00  0.00    +0.000 A 
ATOM     12  C   UNL     1      -1.246  14.153  22.988  0.00  0.00    +0.000 A 
ATOM     13  C   UNL     1      -2.429  13.761  23.605  0.00  0.00    +0.000 A 
ATOM     14  C   UNL     1      -2.828  12.434  23.527  0.00  0.00    +0.000 A 
ATOM     15  C   UNL     1      -2.057  11.507  22.815  0.00  0.00    +0.000 A 
ATOM     16  C   UNL     1      -0.868  11.871  22.152  0.00  0.00    +0.000 A 
BRANCH  11  18
ATOM     17  N   UNL     1       1.650  14.121  21.070  0.00  0.00    +0.000 NA
ATOM     18  C   UNL     1       0.690  13.731  21.598  0.00  0.00    +0.000 C 
ENDBRANCH  11  18
ENDBRANCH   1  16
BRANCH   7  19
ATOM     19  C   UNL     1       2.723   6.121  18.257  0.00  0.00    +0.000 C 
BRANCH  19  20
ATOM     20  C   UNL     1       1.821   4.888  18.371  0.00  0.00    +0.000 C 
ATOM     21  O   UNL     1       1.234   4.435  17.382  0.00  0.00    +0.000 OA
ATOM     22  N   UNL     1       1.714   4.295  19.612  0.00  0.00    +0.000 N 
ATOM     23  C   UNL     1       2.361   4.696  20.848  0.00  0.00    +0.000 C 
ATOM     24  C   UNL     1       2.437   3.401  21.640  0.00  0.00    +0.000 C 
ATOM     25  C   UNL     1       1.156   2.671  21.250  0.00  0.00    +0.000 C 
ATOM     26  C   UNL     1       0.876   3.126  19.820  0.00  0.00    +0.000 C 
ENDBRANCH  19  20
ENDBRANCH   7  19
TORSDOF 4
ENDMDL
MODEL 9
REMARK VINA RESULT:      -6.5      3.390      4.593
REMARK  Name = 
REMARK  4 active torsions:
REMARK  status: ('A' for Active; 'I' for Inactive)
REMARK    1  A    between atoms: C_2  and  C_3
REMARK    2  A    between atoms: C_8  and  N_9
REMARK    3  A    between atoms: N_15  and  C_16
REMARK    4  A    between atoms: C_16  and  C_17
REMARK                            x       y       z     vdW  Elec       q    Type
REMARK                         _______ _______ _______ _____ _____    ______ ____
ROOT
ATOM      1  N   UNL     1       1.207  10.368  19.168  0.00  0.00    +0.000 N 
ATOM      2  C   UNL     1       1.249   9.725  20.496  0.00  0.00    +0.000 C 
ATOM      3  C   UNL     1       0.984   8.218  20.333  0.00  0.00    +0.000 C 
ATOM      4  N   UNL     1       1.918   7.597  19.380  0.00  0.00    +0.000 N 
ATOM      5  C   UNL     1       2.505   6.403  19.737  0.00  0.00    +0.000 C 
ATOM      6  O   UNL     1       2.333   5.890  20.842  0.00  0.00    +0.000 OA
ATOM      7  N   UNL     1       3.305   5.798  18.816  0.00  0.00    +0.000 N 
ATOM      8  C   UNL     1       1.954   8.273  18.067  0.00  0.00    +0.000 C 
ATOM      9  C   UNL     1       2.192   9.799  18.218  0.00  0.00    +0.000 C 
ATOM     10  H   UNL     1       3.599   6.264  17.972  0.00  0.00    +0.000 HD
ENDROOT
BRANCH   1  16
ATOM     11  C   UNL     1      -0.591  11.958  18.636  0.00  0.00    +0.000 A 
ATOM     12  C   UNL     1      -1.082  13.278  18.633  0.00  0.00    +0.000 A 
ATOM     13  C   UNL     1      -0.269  14.337  19.022  0.00  0.00    +0.000 A 
ATOM     14  C   UNL     1       1.044  14.084  19.393  0.00  0.00    +0.000 A 
ATOM     15  C   UNL     1       1.537  12.772  19.394  0.00  0.00    +0.000 A 
ATOM     16  C   UNL     1       0.736  11.669  19.034  0.00  0.00    +0.000 A 
BRANCH  11  18
ATOM     17  N   UNL     1      -2.256  10.058  18.038  0.00  0.00    +0.000 NA
ATOM     18  C   UNL     1      -1.521  10.921  18.297  0.00  0.00    +0.000 C 
ENDBRANCH  11  18
ENDBRANCH   1  16
BRANCH   7  19
ATOM     19  C   UNL     1       4.031   4.581  19.155  0.00  0.00    +0.000 C 
BRANCH  19  20
ATOM     20  C   UNL     1       5.518   4.704  18.806  0.00  0.00    +0.000 C 
ATOM     21  O   UNL     1       6.372   4.819  19.693  0.00  0.00    +0.000 OA
ATOM     22  N   UNL     1       5.861   4.655  17.472  0.00  0.00    +0.000 N 
ATOM     23  C   UNL     1       4.977   4.496  16.331  0.00  0.00    +0.000 C 
ATOM     24  C   UNL     1       5.872   3.861  15.279  0.00  0.00    +0.000 C 
ATOM     25  C   UNL     1       7.234   4.496  15.541  0.00  0.00    +0.000 C 
ATOM     26  C   UNL     1       7.245   4.770  17.043  0.00  0.00    +0.000 C 
ENDBRANCH  19  20
ENDBRANCH   7  19
TORSDOF 4
ENDMDL
