MODEL 1
REMARK VINA RESULT:      -7.8      0.000      0.000
REMARK  Name = 
REMARK  5 active torsions:
REMARK  status: ('A' for Active; 'I' for Inactive)
REMARK    1  A    between atoms: C_2  and  O_3
REMARK    2  A    between atoms: C_2  and  C_4
REMARK    3  A    between atoms: C_4  and  C_5
REMARK    4  A    between atoms: C_5  and  C_6
REMARK    5  A    between atoms: C_11  and  O_12
REMARK                            x       y       z     vdW  Elec       q    Type
REMARK                         _______ _______ _______ _____ _____    ______ ____
ROOT
ATOM      1  C   UNL     1       5.741   4.678  16.003  0.00  0.00    +0.000 A 
ATOM      2  N   UNL     1       4.654   4.039  16.350  0.00  0.00    +0.000 NA
ATOM      3  N   UNL     1       4.155   4.494  17.558  0.00  0.00    +0.000 N 
ATOM      4  C   UNL     1       4.683   5.526  18.342  0.00  0.00    +0.000 A 
ATOM      5  N   UNL     1       5.837   6.160  18.005  0.00  0.00    +0.000 NA
ATOM      6  C   UNL     1       6.353   5.753  16.899  0.00  0.00    +0.000 A 
ATOM      7  N   UNL     1       3.925   5.745  19.394  0.00  0.00    +0.000 NA
ATOM      8  C   UNL     1       2.916   4.821  19.327  0.00  0.00    +0.000 A 
ATOM      9  C   UNL     1       1.850   4.616  20.214  0.00  0.00    +0.000 A 
ATOM     10  C   UNL     1       0.948   3.578  19.957  0.00  0.00    +0.000 A 
ATOM     11  C   UNL     1       1.106   2.759  18.837  0.00  0.00    +0.000 A 
ATOM     12  C   UNL     1       2.157   2.957  17.931  0.00  0.00    +0.000 A 
ATOM     13  C   UNL     1       3.043   4.006  18.206  0.00  0.00    +0.000 A 
ENDROOT
BRANCH   6  14
ATOM     14  O   UNL     1       7.503   6.273  16.484  0.00  0.00    +0.000 OA
ATOM     15  H   UNL     1       8.179   5.578  16.538  0.00  0.00    +0.000 HD
ENDBRANCH   6  14
BRANCH   1  16
ATOM     16  C   UNL     1       6.475   4.337  14.722  0.00  0.00    +0.000 C 
BRANCH  16  17
ATOM     17  C   UNL     1       5.569   3.860  13.599  0.00  0.00    +0.000 C 
BRANCH  17  19
ATOM     18  O   UNL     1       7.211   4.155  11.860  0.00  0.00    +0.000 OA
ATOM     19  C   UNL     1       6.359   3.454  12.381  0.00  0.00    +0.000 C 
BRANCH  19  20
ATOM     20  O   UNL     1       6.000   2.249  11.884  0.00  0.00    +0.000 OA
ATOM     21  H   UNL     1       6.041   2.197  10.905  0.00  0.00    +0.000 HD
ENDBRANCH  19  20
ENDBRANCH  17  19
ENDBRANCH  16  17
ENDBRANCH   1  16
TORSDOF 5
ENDMDL
MODEL 2
REMARK VINA RESULT:      -7.8      2.132      3.958
REMARK  Name = 
REMARK  5 active torsions:
REMARK  status: ('A' for Active; 'I' for Inactive)
REMARK    1  A    between atoms: C_2  and  O_3
REMARK    2  A    between atoms: C_2  and  C_4
REMARK    3  A    between atoms: C_4  and  C_5
REMARK    4  A    between atoms: C_5  and  C_6
REMARK    5  A    between atoms: C_11  and  O_12
REMARK                            x       y       z     vdW  Elec       q    Type
REMARK                         _______ _______ _______ _____ _____    ______ ____
ROOT
ATOM      1  C   UNL     1       6.363   4.542  17.943  0.00  0.00    +0.000 A 
ATOM      2  N   UNL     1       5.507   4.374  18.917  0.00  0.00    +0.000 NA
ATOM      3  N   UNL     1       4.275   3.950  18.451  0.00  0.00    +0.000 N 
ATOM      4  C   UNL     1       3.935   3.685  17.121  0.00  0.00    +0.000 A 
ATOM      5  N   UNL     1       4.810   3.901  16.102  0.00  0.00    +0.000 NA
ATOM      6  C   UNL     1       5.964   4.321  16.485  0.00  0.00    +0.000 A 
ATOM      7  N   UNL     1       2.701   3.235  17.037  0.00  0.00    +0.000 NA
ATOM      8  C   UNL     1       2.211   3.249  18.315  0.00  0.00    +0.000 A 
ATOM      9  C   UNL     1       0.938   2.880  18.774  0.00  0.00    +0.000 A 
ATOM     10  C   UNL     1       0.649   3.010  20.137  0.00  0.00    +0.000 A 
ATOM     11  C   UNL     1       1.609   3.498  21.025  0.00  0.00    +0.000 A 
ATOM     12  C   UNL     1       2.891   3.859  20.589  0.00  0.00    +0.000 A 
ATOM     13  C   UNL     1       3.159   3.714  19.221  0.00  0.00    +0.000 A 
ENDROOT
BRANCH   6  14
ATOM     14  O   UNL     1       6.891   4.603  15.577  0.00  0.00    +0.000 OA
ATOM     15  H   UNL     1       7.468   5.291  15.947  0.00  0.00    +0.000 HD
ENDBRANCH   6  14
BRANCH   1  16
ATOM     16  C   UNL     1       7.776   5.021  18.213  0.00  0.00    +0.000 C 
BRANCH  16  17
ATOM     17  C   UNL     1       7.848   6.388  18.874  0.00  0.00    +0.000 C 
BRANCH  17  19
ATOM     18  O   UNL     1       7.566   7.359  16.685  0.00  0.00    +0.000 OA
ATOM     19  C   UNL     1       7.893   7.496  17.853  0.00  0.00    +0.000 C 
BRANCH  19  20
ATOM     20  O   UNL     1       8.382   8.657  18.341  0.00  0.00    +0.000 OA
ATOM     21  H   UNL     1       7.763   9.414  18.256  0.00  0.00    +0.000 HD
ENDBRANCH  19  20
ENDBRANCH  17  19
ENDBRANCH  16  17
ENDBRANCH   1  16
TORSDOF 5
ENDMDL
MODEL 3
REMARK VINA RESULT:      -7.8      1.477      1.690
REMARK  Name = 
REMARK  5 active torsions:
REMARK  status: ('A' for Active; 'I' for Inactive)
REMARK    1  A    between atoms: C_2  and  O_3
REMARK    2  A    between atoms: C_2  and  C_4
REMARK    3  A    between atoms: C_4  and  C_5
REMARK    4  A    between atoms: C_5  and  C_6
REMARK    5  A    between atoms: C_11  and  O_12
REMARK                            x       y       z     vdW  Elec       q    Type
REMARK                         _______ _______ _______ _____ _____    ______ ____
ROOT
ATOM      1  C   UNL     1       5.271   4.849  16.455  0.00  0.00    +0.000 A 
ATOM      2  N   UNL     1       4.066   4.541  16.857  0.00  0.00    +0.000 NA
ATOM      3  N   UNL     1       4.066   4.054  18.152  0.00  0.00    +0.000 N 
ATOM      4  C   UNL     1       5.177   3.916  18.990  0.00  0.00    +0.000 A 
ATOM      5  N   UNL     1       6.436   4.195  18.559  0.00  0.00    +0.000 NA
ATOM      6  C   UNL     1       6.490   4.628  17.349  0.00  0.00    +0.000 A 
ATOM      7  N   UNL     1       4.813   3.486  20.179  0.00  0.00    +0.000 NA
ATOM      8  C   UNL     1       3.459   3.295  20.109  0.00  0.00    +0.000 A 
ATOM      9  C   UNL     1       2.582   2.832  21.100  0.00  0.00    +0.000 A 
ATOM     10  C   UNL     1       1.227   2.684  20.787  0.00  0.00    +0.000 A 
ATOM     11  C   UNL     1       0.753   2.993  19.510  0.00  0.00    +0.000 A 
ATOM     12  C   UNL     1       1.610   3.471  18.510  0.00  0.00    +0.000 A 
ATOM     13  C   UNL     1       2.962   3.617  18.849  0.00  0.00    +0.000 A 
ENDROOT
BRANCH   6  14
ATOM     14  O   UNL     1       7.670   4.899  16.804  0.00  0.00    +0.000 OA
ATOM     15  H   UNL     1       7.521   5.512  16.064  0.00  0.00    +0.000 HD
ENDBRANCH   6  14
BRANCH   1  16
ATOM     16  C   UNL     1       5.519   5.387  15.059  0.00  0.00    +0.000 C 
BRANCH  16  17
ATOM     17  C   UNL     1       5.826   4.312  14.030  0.00  0.00    +0.000 C 
BRANCH  17  19
ATOM     18  O   UNL     1       7.267   4.219  12.100  0.00  0.00    +0.000 OA
ATOM     19  C   UNL     1       7.051   4.653  13.220  0.00  0.00    +0.000 C 
BRANCH  19  20
ATOM     20  O   UNL     1       7.922   5.453  13.873  0.00  0.00    +0.000 OA
ATOM     21  H   UNL     1       7.824   6.405  13.655  0.00  0.00    +0.000 HD
ENDBRANCH  19  20
ENDBRANCH  17  19
ENDBRANCH  16  17
ENDBRANCH   1  16
TORSDOF 5
ENDMDL
MODEL 4
REMARK VINA RESULT:      -7.7      1.160      1.160
REMARK  Name = 
REMARK  5 active torsions:
REMARK  status: ('A' for Active; 'I' for Inactive)
REMARK    1  A    between atoms: C_2  and  O_3
REMARK    2  A    between atoms: C_2  and  C_4
REMARK    3  A    between atoms: C_4  and  C_5
REMARK    4  A    between atoms: C_5  and  C_6
REMARK    5  A    between atoms: C_11  and  O_12
REMARK                            x       y       z     vdW  Elec       q    Type
REMARK                         _______ _______ _______ _____ _____    ______ ____
ROOT
ATOM      1  C   UNL     1       5.530   4.515  15.996  0.00  0.00    +0.000 A 
ATOM      2  N   UNL     1       4.312   4.229  16.373  0.00  0.00    +0.000 NA
ATOM      3  N   UNL     1       4.247   3.944  17.726  0.00  0.00    +0.000 N 
ATOM      4  C   UNL     1       5.309   3.974  18.636  0.00  0.00    +0.000 A 
ATOM      5  N   UNL     1       6.584   4.228  18.237  0.00  0.00    +0.000 NA
ATOM      6  C   UNL     1       6.699   4.474  16.980  0.00  0.00    +0.000 A 
ATOM      7  N   UNL     1       4.885   3.716  19.854  0.00  0.00    +0.000 NA
ATOM      8  C   UNL     1       3.544   3.470  19.739  0.00  0.00    +0.000 A 
ATOM      9  C   UNL     1       2.622   3.131  20.740  0.00  0.00    +0.000 A 
ATOM     10  C   UNL     1       1.292   2.890  20.379  0.00  0.00    +0.000 A 
ATOM     11  C   UNL     1       0.888   2.985  19.045  0.00  0.00    +0.000 A 
ATOM     12  C   UNL     1       1.791   3.336  18.033  0.00  0.00    +0.000 A 
ATOM     13  C   UNL     1       3.115   3.578  18.419  0.00  0.00    +0.000 A 
ENDROOT
BRANCH   6  14
ATOM     14  O   UNL     1       7.902   4.701  16.466  0.00  0.00    +0.000 OA
ATOM     15  H   UNL     1       7.993   5.659  16.336  0.00  0.00    +0.000 HD
ENDBRANCH   6  14
BRANCH   1  16
ATOM     16  C   UNL     1       5.848   4.843  14.551  0.00  0.00    +0.000 C 
BRANCH  16  17
ATOM     17  C   UNL     1       5.486   3.737  13.573  0.00  0.00    +0.000 C 
BRANCH  17  19
ATOM     18  O   UNL     1       7.305   4.468  12.171  0.00  0.00    +0.000 OA
ATOM     19  C   UNL     1       6.530   3.584  12.497  0.00  0.00    +0.000 C 
BRANCH  19  20
ATOM     20  O   UNL     1       6.498   2.379  11.885  0.00  0.00    +0.000 OA
ATOM     21  H   UNL     1       5.622   2.150  11.507  0.00  0.00    +0.000 HD
ENDBRANCH  19  20
ENDBRANCH  17  19
ENDBRANCH  16  17
ENDBRANCH   1  16
TORSDOF 5
ENDMDL
MODEL 5
REMARK VINA RESULT:      -7.6      2.000      3.893
REMARK  Name = 
REMARK  5 active torsions:
REMARK  status: ('A' for Active; 'I' for Inactive)
REMARK    1  A    between atoms: C_2  and  O_3
REMARK    2  A    between atoms: C_2  and  C_4
REMARK    3  A    between atoms: C_4  and  C_5
REMARK    4  A    between atoms: C_5  and  C_6
REMARK    5  A    between atoms: C_11  and  O_12
REMARK                            x       y       z     vdW  Elec       q    Type
REMARK                         _______ _______ _______ _____ _____    ______ ____
ROOT
ATOM      1  C   UNL     1       5.629   6.098  17.321  0.00  0.00    +0.000 A 
ATOM      2  N   UNL     1       4.771   5.946  18.295  0.00  0.00    +0.000 NA
ATOM      3  N   UNL     1       3.897   4.902  18.050  0.00  0.00    +0.000 N 
ATOM      4  C   UNL     1       3.899   4.056  16.936  0.00  0.00    +0.000 A 
ATOM      5  N   UNL     1       4.763   4.241  15.901  0.00  0.00    +0.000 NA
ATOM      6  C   UNL     1       5.581   5.218  16.072  0.00  0.00    +0.000 A 
ATOM      7  N   UNL     1       2.975   3.128  17.053  0.00  0.00    +0.000 NA
ATOM      8  C   UNL     1       2.328   3.392  18.231  0.00  0.00    +0.000 A 
ATOM      9  C   UNL     1       1.252   2.710  18.816  0.00  0.00    +0.000 A 
ATOM     10  C   UNL     1       0.727   3.186  20.023  0.00  0.00    +0.000 A 
ATOM     11  C   UNL     1       1.265   4.320  20.635  0.00  0.00    +0.000 A 
ATOM     12  C   UNL     1       2.349   5.008  20.073  0.00  0.00    +0.000 A 
ATOM     13  C   UNL     1       2.861   4.508  18.868  0.00  0.00    +0.000 A 
ENDROOT
BRANCH   6  14
ATOM     14  O   UNL     1       6.449   5.519  15.112  0.00  0.00    +0.000 OA
ATOM     15  H   UNL     1       6.316   4.889  14.385  0.00  0.00    +0.000 HD
ENDBRANCH   6  14
BRANCH   1  16
ATOM     16  C   UNL     1       6.676   7.194  17.360  0.00  0.00    +0.000 C 
BRANCH  16  17
ATOM     17  C   UNL     1       7.860   6.883  18.262  0.00  0.00    +0.000 C 
BRANCH  17  19
ATOM     18  O   UNL     1       8.109   4.486  18.209  0.00  0.00    +0.000 OA
ATOM     19  C   UNL     1       7.778   5.487  18.824  0.00  0.00    +0.000 C 
BRANCH  19  20
ATOM     20  O   UNL     1       7.254   5.438  20.068  0.00  0.00    +0.000 OA
ATOM     21  H   UNL     1       6.616   6.160  20.258  0.00  0.00    +0.000 HD
ENDBRANCH  19  20
ENDBRANCH  17  19
ENDBRANCH  16  17
ENDBRANCH   1  16
TORSDOF 5
ENDMDL
MODEL 6
REMARK VINA RESULT:      -7.6      0.924      1.223
REMARK  Name = 
REMARK  5 active torsions:
REMARK  status: ('A' for Active; 'I' for Inactive)
REMARK    1  A    between atoms: C_2  and  O_3
REMARK    2  A    between atoms: C_2  and  C_4
REMARK    3  A    between atoms: C_4  and  C_5
REMARK    4  A    between atoms: C_5  and  C_6
REMARK    5  A    between atoms: C_11  and  O_12
REMARK                            x       y       z     vdW  Elec       q    Type
REMARK                         _______ _______ _______ _____ _____    ______ ____
ROOT
ATOM      1  C   UNL     1       5.674   4.122  16.463  0.00  0.00    +0.000 A 
ATOM      2  N   UNL     1       4.533   3.608  16.842  0.00  0.00    +0.000 NA
ATOM      3  N   UNL     1       4.067   4.195  18.005  0.00  0.00    +0.000 N 
ATOM      4  C   UNL     1       4.675   5.235  18.715  0.00  0.00    +0.000 A 
ATOM      5  N   UNL     1       5.883   5.740  18.347  0.00  0.00    +0.000 NA
ATOM      6  C   UNL     1       6.370   5.207  17.283  0.00  0.00    +0.000 A 
ATOM      7  N   UNL     1       3.931   5.599  19.737  0.00  0.00    +0.000 NA
ATOM      8  C   UNL     1       2.847   4.763  19.727  0.00  0.00    +0.000 A 
ATOM      9  C   UNL     1       1.761   4.719  20.611  0.00  0.00    +0.000 A 
ATOM     10  C   UNL     1       0.774   3.744  20.421  0.00  0.00    +0.000 A 
ATOM     11  C   UNL     1       0.869   2.831  19.369  0.00  0.00    +0.000 A 
ATOM     12  C   UNL     1       1.940   2.868  18.465  0.00  0.00    +0.000 A 
ATOM     13  C   UNL     1       2.911   3.856  18.673  0.00  0.00    +0.000 A 
ENDROOT
BRANCH   6  14
ATOM     14  O   UNL     1       7.564   5.593  16.846  0.00  0.00    +0.000 OA
ATOM     15  H   UNL     1       7.644   5.313  15.919  0.00  0.00    +0.000 HD
ENDBRANCH   6  14
BRANCH   1  16
ATOM     16  C   UNL     1       6.386   3.622  15.222  0.00  0.00    +0.000 C 
BRANCH  16  17
ATOM     17  C   UNL     1       5.970   4.333  13.944  0.00  0.00    +0.000 C 
BRANCH  17  19
ATOM     18  O   UNL     1       7.402   4.509  12.013  0.00  0.00    +0.000 OA
ATOM     19  C   UNL     1       7.166   4.823  13.168  0.00  0.00    +0.000 C 
BRANCH  19  20
ATOM     20  O   UNL     1       7.989   5.614  13.891  0.00  0.00    +0.000 OA
ATOM     21  H   UNL     1       8.943   5.451  13.724  0.00  0.00    +0.000 HD
ENDBRANCH  19  20
ENDBRANCH  17  19
ENDBRANCH  16  17
ENDBRANCH   1  16
TORSDOF 5
ENDMDL
MODEL 7
REMARK VINA RESULT:      -7.4      2.195      4.360
REMARK  Name = 
REMARK  5 active torsions:
REMARK  status: ('A' for Active; 'I' for Inactive)
REMARK    1  A    between atoms: C_2  and  O_3
REMARK    2  A    between atoms: C_2  and  C_4
REMARK    3  A    between atoms: C_4  and  C_5
REMARK    4  A    between atoms: C_5  and  C_6
REMARK    5  A    between atoms: C_11  and  O_12
REMARK                            x       y       z     vdW  Elec       q    Type
REMARK                         _______ _______ _______ _____ _____    ______ ____
ROOT
ATOM      1  C   UNL     1       6.486   5.599  17.924  0.00  0.00    +0.000 A 
ATOM      2  N   UNL     1       5.493   5.615  18.774  0.00  0.00    +0.000 NA
ATOM      3  N   UNL     1       4.505   4.711  18.427  0.00  0.00    +0.000 N 
ATOM      4  C   UNL     1       4.522   3.836  17.336  0.00  0.00    +0.000 A 
ATOM      5  N   UNL     1       5.534   3.848  16.426  0.00  0.00    +0.000 NA
ATOM      6  C   UNL     1       6.466   4.693  16.693  0.00  0.00    +0.000 A 
ATOM      7  N   UNL     1       3.455   3.067  17.339  0.00  0.00    +0.000 NA
ATOM      8  C   UNL     1       2.708   3.469  18.413  0.00  0.00    +0.000 A 
ATOM      9  C   UNL     1       1.470   2.982  18.856  0.00  0.00    +0.000 A 
ATOM     10  C   UNL     1       0.871   3.576  19.973  0.00  0.00    +0.000 A 
ATOM     11  C   UNL     1       1.495   4.635  20.636  0.00  0.00    +0.000 A 
ATOM     12  C   UNL     1       2.740   5.126  20.218  0.00  0.00    +0.000 A 
ATOM     13  C   UNL     1       3.322   4.511  19.102  0.00  0.00    +0.000 A 
ENDROOT
BRANCH   6  14
ATOM     14  O   UNL     1       7.489   4.823  15.857  0.00  0.00    +0.000 OA
ATOM     15  H   UNL     1       8.190   5.312  16.319  0.00  0.00    +0.000 HD
ENDBRANCH   6  14
BRANCH   1  16
ATOM     16  C   UNL     1       7.678   6.520  18.091  0.00  0.00    +0.000 C 
BRANCH  16  17
ATOM     17  C   UNL     1       7.503   7.879  17.431  0.00  0.00    +0.000 C 
BRANCH  17  19
ATOM     18  O   UNL     1       8.292  10.124  17.819  0.00  0.00    +0.000 OA
ATOM     19  C   UNL     1       8.266   8.954  18.164  0.00  0.00    +0.000 C 
BRANCH  19  20
ATOM     20  O   UNL     1       8.966   8.489  19.222  0.00  0.00    +0.000 OA
ATOM     21  H   UNL     1       8.430   8.393  20.039  0.00  0.00    +0.000 HD
ENDBRANCH  19  20
ENDBRANCH  17  19
ENDBRANCH  16  17
ENDBRANCH   1  16
TORSDOF 5
ENDMDL
MODEL 8
REMARK VINA RESULT:      -7.4      1.351      1.495
REMARK  Name = 
REMARK  5 active torsions:
REMARK  status: ('A' for Active; 'I' for Inactive)
REMARK    1  A    between atoms: C_2  and  O_3
REMARK    2  A    between atoms: C_2  and  C_4
REMARK    3  A    between atoms: C_4  and  C_5
REMARK    4  A    between atoms: C_5  and  C_6
REMARK    5  A    between atoms: C_11  and  O_12
REMARK                            x       y       z     vdW  Elec       q    Type
REMARK                         _______ _______ _______ _____ _____    ______ ____
ROOT
ATOM      1  C   UNL     1       5.517   4.650  16.698  0.00  0.00    +0.000 A 
ATOM      2  N   UNL     1       4.882   3.824  17.487  0.00  0.00    +0.000 NA
ATOM      3  N   UNL     1       3.892   4.464  18.211  0.00  0.00    +0.000 N 
ATOM      4  C   UNL     1       3.543   5.816  18.130  0.00  0.00    +0.000 A 
ATOM      5  N   UNL     1       4.231   6.686  17.342  0.00  0.00    +0.000 NA
ATOM      6  C   UNL     1       5.180   6.140  16.667  0.00  0.00    +0.000 A 
ATOM      7  N   UNL     1       2.515   6.079  18.907  0.00  0.00    +0.000 NA
ATOM      8  C   UNL     1       2.213   4.903  19.538  0.00  0.00    +0.000 A 
ATOM      9  C   UNL     1       1.209   4.642  20.482  0.00  0.00    +0.000 A 
ATOM     10  C   UNL     1       1.109   3.355  21.023  0.00  0.00    +0.000 A 
ATOM     11  C   UNL     1       1.992   2.347  20.631  0.00  0.00    +0.000 A 
ATOM     12  C   UNL     1       2.993   2.584  19.679  0.00  0.00    +0.000 A 
ATOM     13  C   UNL     1       3.070   3.878  19.147  0.00  0.00    +0.000 A 
ENDROOT
BRANCH   6  14
ATOM     14  O   UNL     1       5.947   6.895  15.889  0.00  0.00    +0.000 OA
ATOM     15  H   UNL     1       6.580   6.311  15.439  0.00  0.00    +0.000 HD
ENDBRANCH   6  14
BRANCH   1  16
ATOM     16  C   UNL     1       6.657   4.175  15.819  0.00  0.00    +0.000 C 
BRANCH  16  17
ATOM     17  C   UNL     1       6.263   3.946  14.368  0.00  0.00    +0.000 C 
BRANCH  17  19
ATOM     18  O   UNL     1       7.878   5.627  13.751  0.00  0.00    +0.000 OA
ATOM     19  C   UNL     1       7.176   4.684  13.422  0.00  0.00    +0.000 C 
BRANCH  19  20
ATOM     20  O   UNL     1       7.111   4.231  12.150  0.00  0.00    +0.000 OA
ATOM     21  H   UNL     1       7.004   3.258  12.082  0.00  0.00    +0.000 HD
ENDBRANCH  19  20
ENDBRANCH  17  19
ENDBRANCH  16  17
ENDBRANCH   1  16
TORSDOF 5
ENDMDL
MODEL 9
REMARK VINA RESULT:      -7.4      3.043      6.399
REMARK  Name = 
REMARK  5 active torsions:
REMARK  status: ('A' for Active; 'I' for Inactive)
REMARK    1  A    between atoms: C_2  and  O_3
REMARK    2  A    between atoms: C_2  and  C_4
REMARK    3  A    between atoms: C_4  and  C_5
REMARK    4  A    between atoms: C_5  and  C_6
REMARK    5  A    between atoms: C_11  and  O_12
REMARK                            x       y       z     vdW  Elec       q    Type
REMARK                         _______ _______ _______ _____ _____    ______ ____
ROOT
ATOM      1  C   UNL     1       4.712   4.047  17.754  0.00  0.00    +0.000 A 
ATOM      2  N   UNL     1       4.747   3.698  16.495  0.00  0.00    +0.000 NA
ATOM      3  N   UNL     1       5.770   4.334  15.814  0.00  0.00    +0.000 N 
ATOM      4  C   UNL     1       6.703   5.224  16.355  0.00  0.00    +0.000 A 
ATOM      5  N   UNL     1       6.641   5.622  17.654  0.00  0.00    +0.000 NA
ATOM      6  C   UNL     1       5.689   5.076  18.323  0.00  0.00    +0.000 A 
ATOM      7  N   UNL     1       7.579   5.591  15.444  0.00  0.00    +0.000 NA
ATOM      8  C   UNL     1       7.192   4.975  14.285  0.00  0.00    +0.000 A 
ATOM      9  C   UNL     1       7.777   5.045  13.012  0.00  0.00    +0.000 A 
ATOM     10  C   UNL     1       7.181   4.348  11.956  0.00  0.00    +0.000 A 
ATOM     11  C   UNL     1       6.024   3.594  12.163  0.00  0.00    +0.000 A 
ATOM     12  C   UNL     1       5.432   3.500  13.429  0.00  0.00    +0.000 A 
ATOM     13  C   UNL     1       6.050   4.201  14.473  0.00  0.00    +0.000 A 
ENDROOT
BRANCH   6  14
ATOM     14  O   UNL     1       5.504   5.415  19.594  0.00  0.00    +0.000 OA
ATOM     15  H   UNL     1       6.259   5.963  19.866  0.00  0.00    +0.000 HD
ENDBRANCH   6  14
BRANCH   1  16
ATOM     16  C   UNL     1       3.662   3.490  18.694  0.00  0.00    +0.000 C 
BRANCH  16  17
ATOM     17  C   UNL     1       2.338   4.235  18.651  0.00  0.00    +0.000 C 
BRANCH  17  19
ATOM     18  O   UNL     1       0.825   4.319  20.526  0.00  0.00    +0.000 OA
ATOM     19  C   UNL     1       1.889   4.651  20.029  0.00  0.00    +0.000 C 
BRANCH  19  20
ATOM     20  O   UNL     1       2.761   5.473  20.653  0.00  0.00    +0.000 OA
ATOM     21  H   UNL     1       3.416   5.886  20.051  0.00  0.00    +0.000 HD
ENDBRANCH  19  20
ENDBRANCH  17  19
ENDBRANCH  16  17
ENDBRANCH   1  16
TORSDOF 5
ENDMDL
