MODEL 1
REMARK VINA RESULT:      -7.1      0.000      0.000
REMARK  Name = 
REMARK  14 active torsions:
REMARK  status: ('A' for Active; 'I' for Inactive)
REMARK    1  A    between atoms: C_1  and  O_2
REMARK    2  A    between atoms: O_2  and  C_3
REMARK    3  A    between atoms: C_6  and  C_7
REMARK    4  A    between atoms: C_7  and  N_8
REMARK    5  A    between atoms: C_9  and  C_10
REMARK    6  A    between atoms: C_10  and  O_12
REMARK    7  A    between atoms: C_13  and  C_14
REMARK    8  A    between atoms: C_14  and  N_15
REMARK    9  A    between atoms: N_15  and  C_16
REMARK   10  A    between atoms: C_16  and  C_17
REMARK   11  A    between atoms: C_20  and  S_21
REMARK   12  A    between atoms: S_21  and  C_22
REMARK   13  A    between atoms: C_28  and  O_29
REMARK   14  A    between atoms: O_29  and  C_30
REMARK                            x       y       z     vdW  Elec       q    Type
REMARK                         _______ _______ _______ _____ _____    ______ ____
ROOT
ATOM      1  N   UNL     1       1.426  10.091  18.346  0.00  0.00    +0.000 N 
ATOM      2  C   UNL     1       1.605  11.227  19.146  0.00  0.00    +0.000 A 
ATOM      3  C   UNL     1       0.624  10.947  20.116  0.00  0.00    +0.000 A 
ATOM      4  C   UNL     1      -0.460  10.957  19.219  0.00  0.00    +0.000 A 
ATOM      5  C   UNL     1      -1.800  11.287  19.438  0.00  0.00    +0.000 A 
ATOM      6  C   UNL     1      -2.719  10.885  18.510  0.00  0.00    +0.000 A 
ATOM      7  C   UNL     1      -2.333  10.100  17.411  0.00  0.00    +0.000 A 
ATOM      8  C   UNL     1      -0.980   9.674  17.211  0.00  0.00    +0.000 A 
ATOM      9  C   UNL     1       0.000  10.134  18.142  0.00  0.00    +0.000 A 
ENDROOT
BRANCH   2  10
ATOM     10  C   UNL     1       1.926  12.446  18.385  0.00  0.00    +0.000 C 
ATOM     11  O   UNL     1       1.680  13.584  18.755  0.00  0.00    +0.000 OA
BRANCH  10  12
ATOM     12  O   UNL     1       2.661  12.202  17.273  0.00  0.00    +0.000 OA
ATOM     13  H   UNL     1       2.111  12.155  16.472  0.00  0.00    +0.000 HD
ENDBRANCH  10  12
ENDBRANCH   2  10
BRANCH   7  14
ATOM     14  O   UNL     1      -3.459   9.861  16.680  0.00  0.00    +0.000 OA
ATOM     15  C   UNL     1      -3.637  10.314  15.358  0.00  0.00    +0.000 C 
ENDBRANCH   7  14
BRANCH   1  16
ATOM     16  C   UNL     1       2.548   9.108  18.265  0.00  0.00    +0.000 C 
BRANCH  16  20
ATOM     17  C   UNL     1       1.641   4.993  19.644  0.00  0.00    +0.000 A 
ATOM     18  C   UNL     1       2.077   5.262  18.338  0.00  0.00    +0.000 A 
ATOM     19  C   UNL     1       2.458   6.555  17.915  0.00  0.00    +0.000 A 
ATOM     20  C   UNL     1       2.401   7.649  18.786  0.00  0.00    +0.000 A 
ATOM     21  C   UNL     1       1.994   7.351  20.133  0.00  0.00    +0.000 A 
ATOM     22  C   UNL     1       1.648   6.039  20.562  0.00  0.00    +0.000 A 
BRANCH  17  24
ATOM     23  C   UNL     1       1.325   3.081  21.107  0.00  0.00    +0.000 C 
ATOM     24  O   UNL     1       1.239   3.686  19.822  0.00  0.00    +0.000 OA
ENDBRANCH  17  24
ENDBRANCH  16  20
ENDBRANCH   1  16
BRANCH   3  25
ATOM     25  C   UNL     1       0.416   9.930  21.238  0.00  0.00    +0.000 C 
BRANCH  25  26
ATOM     26  N   UNL     1       0.381  10.508  22.555  0.00  0.00    +0.000 NA
ATOM     27  H   UNL     1       0.798  11.428  22.566  0.00  0.00    +0.000 HD
BRANCH  26  28
ATOM     28  C   UNL     1      -0.974  10.534  23.067  0.00  0.00    +0.000 C 
BRANCH  28  29
ATOM     29  C   UNL     1      -1.543  11.917  23.000  0.00  0.00    +0.000 A 
ATOM     30  C   UNL     1      -2.909  12.085  23.234  0.00  0.00    +0.000 A 
ATOM     31  C   UNL     1      -3.460  13.358  23.308  0.00  0.00    +0.000 A 
ATOM     32  C   UNL     1      -2.630  14.472  23.188  0.00  0.00    +0.000 A 
ATOM     33  C   UNL     1      -1.276  14.313  22.868  0.00  0.00    +0.000 A 
ATOM     34  C   UNL     1      -0.734  13.042  22.779  0.00  0.00    +0.000 A 
BRANCH  32  35
ATOM     35  S   UNL     1      -3.231  16.061  23.714  0.00  0.00    +0.000 S 
ATOM     36  C   UNL     1      -4.946  15.524  23.993  0.00  0.00    +0.000 C 
ENDBRANCH  32  35
ENDBRANCH  28  29
ENDBRANCH  26  28
ENDBRANCH  25  26
ENDBRANCH   3  25
TORSDOF 11
ENDMDL
MODEL 2
REMARK VINA RESULT:      -7.1      0.648      1.046
REMARK  Name = 
REMARK  14 active torsions:
REMARK  status: ('A' for Active; 'I' for Inactive)
REMARK    1  A    between atoms: C_1  and  O_2
REMARK    2  A    between atoms: O_2  and  C_3
REMARK    3  A    between atoms: C_6  and  C_7
REMARK    4  A    between atoms: C_7  and  N_8
REMARK    5  A    between atoms: C_9  and  C_10
REMARK    6  A    between atoms: C_10  and  O_12
REMARK    7  A    between atoms: C_13  and  C_14
REMARK    8  A    between atoms: C_14  and  N_15
REMARK    9  A    between atoms: N_15  and  C_16
REMARK   10  A    between atoms: C_16  and  C_17
REMARK   11  A    between atoms: C_20  and  S_21
REMARK   12  A    between atoms: S_21  and  C_22
REMARK   13  A    between atoms: C_28  and  O_29
REMARK   14  A    between atoms: O_29  and  C_30
REMARK                            x       y       z     vdW  Elec       q    Type
REMARK                         _______ _______ _______ _____ _____    ______ ____
ROOT
ATOM      1  N   UNL     1       1.230  10.328  18.407  0.00  0.00    +0.000 N 
ATOM      2  C   UNL     1       1.414  11.463  19.209  0.00  0.00    +0.000 A 
ATOM      3  C   UNL     1       0.389  11.218  20.142  0.00  0.00    +0.000 A 
ATOM      4  C   UNL     1      -0.660  11.257  19.206  0.00  0.00    +0.000 A 
ATOM      5  C   UNL     1      -1.997  11.629  19.373  0.00  0.00    +0.000 A 
ATOM      6  C   UNL     1      -2.892  11.251  18.413  0.00  0.00    +0.000 A 
ATOM      7  C   UNL     1      -2.490  10.449  17.333  0.00  0.00    +0.000 A 
ATOM      8  C   UNL     1      -1.144   9.980  17.185  0.00  0.00    +0.000 A 
ATOM      9  C   UNL     1      -0.185  10.414  18.150  0.00  0.00    +0.000 A 
ENDROOT
BRANCH   2  10
ATOM     10  C   UNL     1       1.801  12.667  18.455  0.00  0.00    +0.000 C 
ATOM     11  O   UNL     1       1.593  13.814  18.821  0.00  0.00    +0.000 OA
BRANCH  10  12
ATOM     12  O   UNL     1       2.548  12.393  17.359  0.00  0.00    +0.000 OA
ATOM     13  H   UNL     1       2.736  13.189  16.833  0.00  0.00    +0.000 HD
ENDBRANCH  10  12
ENDBRANCH   2  10
BRANCH   7  14
ATOM     14  O   UNL     1      -3.595  10.241  16.561  0.00  0.00    +0.000 OA
ATOM     15  C   UNL     1      -3.544  10.065  15.164  0.00  0.00    +0.000 C 
ENDBRANCH   7  14
BRANCH   1  16
ATOM     16  C   UNL     1       2.323   9.311  18.372  0.00  0.00    +0.000 C 
BRANCH  16  20
ATOM     17  C   UNL     1       2.158   5.126  19.828  0.00  0.00    +0.000 A 
ATOM     18  C   UNL     1       1.829   6.215  20.649  0.00  0.00    +0.000 A 
ATOM     19  C   UNL     1       1.787   7.543  20.171  0.00  0.00    +0.000 A 
ATOM     20  C   UNL     1       2.095   7.844  18.839  0.00  0.00    +0.000 A 
ATOM     21  C   UNL     1       2.388   6.715  17.998  0.00  0.00    +0.000 A 
ATOM     22  C   UNL     1       2.391   5.375  18.478  0.00  0.00    +0.000 A 
BRANCH  17  24
ATOM     23  C   UNL     1       2.088   2.699  19.813  0.00  0.00    +0.000 C 
ATOM     24  O   UNL     1       2.221   3.931  20.512  0.00  0.00    +0.000 OA
ENDBRANCH  17  24
ENDBRANCH  16  20
ENDBRANCH   1  16
BRANCH   3  25
ATOM     25  C   UNL     1       0.108  10.213  21.260  0.00  0.00    +0.000 C 
BRANCH  25  26
ATOM     26  N   UNL     1       0.153  10.779  22.582  0.00  0.00    +0.000 NA
ATOM     27  H   UNL     1       0.591  11.689  22.581  0.00  0.00    +0.000 HD
BRANCH  26  28
ATOM     28  C   UNL     1      -1.174  10.830  23.162  0.00  0.00    +0.000 C 
BRANCH  28  29
ATOM     29  C   UNL     1      -1.773  12.192  23.002  0.00  0.00    +0.000 A 
ATOM     30  C   UNL     1      -3.148  12.291  22.778  0.00  0.00    +0.000 A 
ATOM     31  C   UNL     1      -3.770  13.532  22.749  0.00  0.00    +0.000 A 
ATOM     32  C   UNL     1      -3.017  14.682  22.986  0.00  0.00    +0.000 A 
ATOM     33  C   UNL     1      -1.626  14.599  23.126  0.00  0.00    +0.000 A 
ATOM     34  C   UNL     1      -1.007  13.360  23.138  0.00  0.00    +0.000 A 
BRANCH  32  35
ATOM     35  S   UNL     1      -3.855  16.199  23.385  0.00  0.00    +0.000 S 
ATOM     36  C   UNL     1      -3.112  16.388  25.034  0.00  0.00    +0.000 C 
ENDBRANCH  32  35
ENDBRANCH  28  29
ENDBRANCH  26  28
ENDBRANCH  25  26
ENDBRANCH   3  25
TORSDOF 11
ENDMDL
MODEL 3
REMARK VINA RESULT:      -7.0      3.593      8.043
REMARK  Name = 
REMARK  14 active torsions:
REMARK  status: ('A' for Active; 'I' for Inactive)
REMARK    1  A    between atoms: C_1  and  O_2
REMARK    2  A    between atoms: O_2  and  C_3
REMARK    3  A    between atoms: C_6  and  C_7
REMARK    4  A    between atoms: C_7  and  N_8
REMARK    5  A    between atoms: C_9  and  C_10
REMARK    6  A    between atoms: C_10  and  O_12
REMARK    7  A    between atoms: C_13  and  C_14
REMARK    8  A    between atoms: C_14  and  N_15
REMARK    9  A    between atoms: N_15  and  C_16
REMARK   10  A    between atoms: C_16  and  C_17
REMARK   11  A    between atoms: C_20  and  S_21
REMARK   12  A    between atoms: S_21  and  C_22
REMARK   13  A    between atoms: C_28  and  O_29
REMARK   14  A    between atoms: O_29  and  C_30
REMARK                            x       y       z     vdW  Elec       q    Type
REMARK                         _______ _______ _______ _____ _____    ______ ____
ROOT
ATOM      1  N   UNL     1       0.001  11.640  20.621  0.00  0.00    +0.000 N 
ATOM      2  C   UNL     1       0.345  10.299  20.837  0.00  0.00    +0.000 A 
ATOM      3  C   UNL     1       0.495   9.911  19.492  0.00  0.00    +0.000 A 
ATOM      4  C   UNL     1      -0.836  10.182  19.124  0.00  0.00    +0.000 A 
ATOM      5  C   UNL     1      -1.631   9.589  18.140  0.00  0.00    +0.000 A 
ATOM      6  C   UNL     1      -2.756  10.252  17.738  0.00  0.00    +0.000 A 
ATOM      7  C   UNL     1      -3.057  11.526  18.247  0.00  0.00    +0.000 A 
ATOM      8  C   UNL     1      -2.212  12.194  19.191  0.00  0.00    +0.000 A 
ATOM      9  C   UNL     1      -1.064  11.489  19.662  0.00  0.00    +0.000 A 
ENDROOT
BRANCH   2  10
ATOM     10  C   UNL     1      -0.356   9.682  21.975  0.00  0.00    +0.000 C 
ATOM     11  O   UNL     1      -0.848  10.298  22.909  0.00  0.00    +0.000 OA
BRANCH  10  12
ATOM     12  O   UNL     1      -0.537   8.347  21.828  0.00  0.00    +0.000 OA
ATOM     13  H   UNL     1      -1.075   7.968  22.544  0.00  0.00    +0.000 HD
ENDBRANCH  10  12
ENDBRANCH   2  10
BRANCH   7  14
ATOM     14  O   UNL     1      -4.223  11.922  17.659  0.00  0.00    +0.000 OA
ATOM     15  C   UNL     1      -5.431  11.207  17.772  0.00  0.00    +0.000 C 
ENDBRANCH   7  14
BRANCH   1  16
ATOM     16  C   UNL     1       0.951  12.692  21.095  0.00  0.00    +0.000 C 
BRANCH  16  20
ATOM     17  C   UNL     1       2.340  16.254  18.851  0.00  0.00    +0.000 A 
ATOM     18  C   UNL     1       2.362  14.966  18.294  0.00  0.00    +0.000 A 
ATOM     19  C   UNL     1       1.836  13.839  18.963  0.00  0.00    +0.000 A 
ATOM     20  C   UNL     1       1.276  13.950  20.241  0.00  0.00    +0.000 A 
ATOM     21  C   UNL     1       1.219  15.282  20.781  0.00  0.00    +0.000 A 
ATOM     22  C   UNL     1       1.716  16.419  20.085  0.00  0.00    +0.000 A 
BRANCH  17  24
ATOM     23  C   UNL     1       2.716  17.256  16.671  0.00  0.00    +0.000 C 
ATOM     24  O   UNL     1       2.978  17.193  18.069  0.00  0.00    +0.000 OA
ENDBRANCH  17  24
ENDBRANCH  16  20
ENDBRANCH   1  16
BRANCH   3  25
ATOM     25  C   UNL     1       1.464  10.196  18.345  0.00  0.00    +0.000 C 
BRANCH  25  26
ATOM     26  N   UNL     1       1.711   9.063  17.492  0.00  0.00    +0.000 NA
ATOM     27  H   UNL     1       1.828   9.344  16.529  0.00  0.00    +0.000 HD
BRANCH  26  28
ATOM     28  C   UNL     1       2.851   8.305  17.966  0.00  0.00    +0.000 C 
BRANCH  28  29
ATOM     29  C   UNL     1       2.411   7.021  18.596  0.00  0.00    +0.000 A 
ATOM     30  C   UNL     1       2.297   5.888  17.787  0.00  0.00    +0.000 A 
ATOM     31  C   UNL     1       2.016   4.648  18.346  0.00  0.00    +0.000 A 
ATOM     32  C   UNL     1       1.888   4.533  19.730  0.00  0.00    +0.000 A 
ATOM     33  C   UNL     1       1.915   5.676  20.539  0.00  0.00    +0.000 A 
ATOM     34  C   UNL     1       2.180   6.913  19.976  0.00  0.00    +0.000 A 
BRANCH  32  35
ATOM     35  S   UNL     1       1.971   2.921  20.477  0.00  0.00    +0.000 S 
ATOM     36  C   UNL     1       1.770   1.992  18.927  0.00  0.00    +0.000 C 
ENDBRANCH  32  35
ENDBRANCH  28  29
ENDBRANCH  26  28
ENDBRANCH  25  26
ENDBRANCH   3  25
TORSDOF 11
ENDMDL
MODEL 4
REMARK VINA RESULT:      -7.0      1.859      2.607
REMARK  Name = 
REMARK  14 active torsions:
REMARK  status: ('A' for Active; 'I' for Inactive)
REMARK    1  A    between atoms: C_1  and  O_2
REMARK    2  A    between atoms: O_2  and  C_3
REMARK    3  A    between atoms: C_6  and  C_7
REMARK    4  A    between atoms: C_7  and  N_8
REMARK    5  A    between atoms: C_9  and  C_10
REMARK    6  A    between atoms: C_10  and  O_12
REMARK    7  A    between atoms: C_13  and  C_14
REMARK    8  A    between atoms: C_14  and  N_15
REMARK    9  A    between atoms: N_15  and  C_16
REMARK   10  A    between atoms: C_16  and  C_17
REMARK   11  A    between atoms: C_20  and  S_21
REMARK   12  A    between atoms: S_21  and  C_22
REMARK   13  A    between atoms: C_28  and  O_29
REMARK   14  A    between atoms: O_29  and  C_30
REMARK                            x       y       z     vdW  Elec       q    Type
REMARK                         _______ _______ _______ _____ _____    ______ ____
ROOT
ATOM      1  N   UNL     1       0.743   9.993  19.395  0.00  0.00    +0.000 N 
ATOM      2  C   UNL     1       1.013  11.293  19.843  0.00  0.00    +0.000 A 
ATOM      3  C   UNL     1      -0.239  11.568  20.425  0.00  0.00    +0.000 A 
ATOM      4  C   UNL     1      -0.975  11.439  19.234  0.00  0.00    +0.000 A 
ATOM      5  C   UNL     1      -2.166  12.058  18.845  0.00  0.00    +0.000 A 
ATOM      6  C   UNL     1      -2.862  11.512  17.804  0.00  0.00    +0.000 A 
ATOM      7  C   UNL     1      -2.428  10.322  17.196  0.00  0.00    +0.000 A 
ATOM      8  C   UNL     1      -1.259   9.620  17.633  0.00  0.00    +0.000 A 
ATOM      9  C   UNL     1      -0.490  10.209  18.683  0.00  0.00    +0.000 A 
ENDROOT
BRANCH   2  10
ATOM     10  C   UNL     1       1.875  12.068  18.935  0.00  0.00    +0.000 C 
ATOM     11  O   UNL     1       2.489  11.600  17.988  0.00  0.00    +0.000 OA
BRANCH  10  12
ATOM     12  O   UNL     1       1.822  13.403  19.160  0.00  0.00    +0.000 OA
ATOM     13  H   UNL     1       2.131  13.638  20.052  0.00  0.00    +0.000 HD
ENDBRANCH  10  12
ENDBRANCH   2  10
BRANCH   7  14
ATOM     14  O   UNL     1      -3.322  10.033  16.207  0.00  0.00    +0.000 OA
ATOM     15  C   UNL     1      -3.091  10.314  14.846  0.00  0.00    +0.000 C 
ENDBRANCH   7  14
BRANCH   1  16
ATOM     16  C   UNL     1       1.506   8.868  20.014  0.00  0.00    +0.000 C 
BRANCH  16  20
ATOM     17  C   UNL     1       3.918   5.893  17.779  0.00  0.00    +0.000 A 
ATOM     18  C   UNL     1       3.248   5.568  18.968  0.00  0.00    +0.000 A 
ATOM     19  C   UNL     1       2.402   6.479  19.638  0.00  0.00    +0.000 A 
ATOM     20  C   UNL     1       2.203   7.776  19.151  0.00  0.00    +0.000 A 
ATOM     21  C   UNL     1       2.860   8.082  17.909  0.00  0.00    +0.000 A 
ATOM     22  C   UNL     1       3.680   7.146  17.219  0.00  0.00    +0.000 A 
BRANCH  17  24
ATOM     23  C   UNL     1       5.209   4.882  15.989  0.00  0.00    +0.000 C 
ATOM     24  O   UNL     1       4.755   4.891  17.337  0.00  0.00    +0.000 OA
ENDBRANCH  17  24
ENDBRANCH  16  20
ENDBRANCH   1  16
BRANCH   3  25
ATOM     25  C   UNL     1      -1.041  11.090  21.636  0.00  0.00    +0.000 C 
BRANCH  25  26
ATOM     26  N   UNL     1      -0.971  11.972  22.771  0.00  0.00    +0.000 NA
ATOM     27  H   UNL     1      -0.014  12.181  23.019  0.00  0.00    +0.000 HD
BRANCH  26  28
ATOM     28  C   UNL     1      -1.732  13.181  22.527  0.00  0.00    +0.000 C 
BRANCH  28  29
ATOM     29  C   UNL     1      -3.190  12.950  22.770  0.00  0.00    +0.000 A 
ATOM     30  C   UNL     1      -3.622  12.749  24.083  0.00  0.00    +0.000 A 
ATOM     31  C   UNL     1      -4.977  12.657  24.373  0.00  0.00    +0.000 A 
ATOM     32  C   UNL     1      -5.909  12.807  23.348  0.00  0.00    +0.000 A 
ATOM     33  C   UNL     1      -5.485  12.922  22.018  0.00  0.00    +0.000 A 
ATOM     34  C   UNL     1      -4.132  12.998  21.731  0.00  0.00    +0.000 A 
BRANCH  32  35
ATOM     35  S   UNL     1      -7.608  13.130  23.762  0.00  0.00    +0.000 S 
ATOM     36  C   UNL     1      -7.444  14.941  23.805  0.00  0.00    +0.000 C 
ENDBRANCH  32  35
ENDBRANCH  28  29
ENDBRANCH  26  28
ENDBRANCH  25  26
ENDBRANCH   3  25
TORSDOF 11
ENDMDL
MODEL 5
REMARK VINA RESULT:      -6.9      3.988      8.661
REMARK  Name = 
REMARK  14 active torsions:
REMARK  status: ('A' for Active; 'I' for Inactive)
REMARK    1  A    between atoms: C_1  and  O_2
REMARK    2  A    between atoms: O_2  and  C_3
REMARK    3  A    between atoms: C_6  and  C_7
REMARK    4  A    between atoms: C_7  and  N_8
REMARK    5  A    between atoms: C_9  and  C_10
REMARK    6  A    between atoms: C_10  and  O_12
REMARK    7  A    between atoms: C_13  and  C_14
REMARK    8  A    between atoms: C_14  and  N_15
REMARK    9  A    between atoms: N_15  and  C_16
REMARK   10  A    between atoms: C_16  and  C_17
REMARK   11  A    between atoms: C_20  and  S_21
REMARK   12  A    between atoms: S_21  and  C_22
REMARK   13  A    between atoms: C_28  and  O_29
REMARK   14  A    between atoms: O_29  and  C_30
REMARK                            x       y       z     vdW  Elec       q    Type
REMARK                         _______ _______ _______ _____ _____    ______ ____
ROOT
ATOM      1  N   UNL     1       0.210  11.695  20.595  0.00  0.00    +0.000 N 
ATOM      2  C   UNL     1       0.596  10.356  20.739  0.00  0.00    +0.000 A 
ATOM      3  C   UNL     1       0.669  10.021  19.373  0.00  0.00    +0.000 A 
ATOM      4  C   UNL     1      -0.687  10.272  19.099  0.00  0.00    +0.000 A 
ATOM      5  C   UNL     1      -1.530   9.695  18.144  0.00  0.00    +0.000 A 
ATOM      6  C   UNL     1      -2.692  10.346  17.838  0.00  0.00    +0.000 A 
ATOM      7  C   UNL     1      -2.989  11.592  18.413  0.00  0.00    +0.000 A 
ATOM      8  C   UNL     1      -2.101  12.246  19.327  0.00  0.00    +0.000 A 
ATOM      9  C   UNL     1      -0.910  11.553  19.699  0.00  0.00    +0.000 A 
ENDROOT
BRANCH   2  10
ATOM     10  C   UNL     1      -0.018   9.680  21.893  0.00  0.00    +0.000 C 
ATOM     11  O   UNL     1      -0.544   8.577  21.857  0.00  0.00    +0.000 OA
BRANCH  10  12
ATOM     12  O   UNL     1       0.173  10.340  23.061  0.00  0.00    +0.000 OA
ATOM     13  H   UNL     1      -0.164   9.841  23.825  0.00  0.00    +0.000 HD
ENDBRANCH  10  12
ENDBRANCH   2  10
BRANCH   7  14
ATOM     14  O   UNL     1      -4.197  11.981  17.914  0.00  0.00    +0.000 OA
ATOM     15  C   UNL     1      -4.780  11.415  16.763  0.00  0.00    +0.000 C 
ENDBRANCH   7  14
BRANCH   1  16
ATOM     16  C   UNL     1       1.164  12.751  21.049  0.00  0.00    +0.000 C 
BRANCH  16  20
ATOM     17  C   UNL     1       1.260  16.424  18.567  0.00  0.00    +0.000 A 
ATOM     18  C   UNL     1       0.351  16.261  19.624  0.00  0.00    +0.000 A 
ATOM     19  C   UNL     1       0.373  15.138  20.479  0.00  0.00    +0.000 A 
ATOM     20  C   UNL     1       1.303  14.108  20.301  0.00  0.00    +0.000 A 
ATOM     21  C   UNL     1       2.256  14.308  19.242  0.00  0.00    +0.000 A 
ATOM     22  C   UNL     1       2.253  15.461  18.408  0.00  0.00    +0.000 A 
BRANCH  17  24
ATOM     23  C   UNL     1      -0.316  17.849  17.392  0.00  0.00    +0.000 C 
ATOM     24  O   UNL     1       1.012  17.547  17.807  0.00  0.00    +0.000 OA
ENDBRANCH  17  24
ENDBRANCH  16  20
ENDBRANCH   1  16
BRANCH   3  25
ATOM     25  C   UNL     1       1.558  10.370  18.180  0.00  0.00    +0.000 C 
BRANCH  25  26
ATOM     26  N   UNL     1       2.262   9.245  17.623  0.00  0.00    +0.000 NA
ATOM     27  H   UNL     1       3.232   9.464  17.448  0.00  0.00    +0.000 HD
BRANCH  26  28
ATOM     28  C   UNL     1       2.127   8.083  18.480  0.00  0.00    +0.000 C 
BRANCH  28  29
ATOM     29  C   UNL     1       3.218   7.094  18.212  0.00  0.00    +0.000 A 
ATOM     30  C   UNL     1       4.029   7.288  17.092  0.00  0.00    +0.000 A 
ATOM     31  C   UNL     1       5.131   6.471  16.871  0.00  0.00    +0.000 A 
ATOM     32  C   UNL     1       5.448   5.480  17.799  0.00  0.00    +0.000 A 
ATOM     33  C   UNL     1       4.592   5.224  18.878  0.00  0.00    +0.000 A 
ATOM     34  C   UNL     1       3.485   6.030  19.086  0.00  0.00    +0.000 A 
BRANCH  32  35
ATOM     35  S   UNL     1       7.065   4.743  17.762  0.00  0.00    +0.000 S 
ATOM     36  C   UNL     1       7.120   4.515  15.959  0.00  0.00    +0.000 C 
ENDBRANCH  32  35
ENDBRANCH  28  29
ENDBRANCH  26  28
ENDBRANCH  25  26
ENDBRANCH   3  25
TORSDOF 11
ENDMDL
MODEL 6
REMARK VINA RESULT:      -6.9      1.835      2.495
REMARK  Name = 
REMARK  14 active torsions:
REMARK  status: ('A' for Active; 'I' for Inactive)
REMARK    1  A    between atoms: C_1  and  O_2
REMARK    2  A    between atoms: O_2  and  C_3
REMARK    3  A    between atoms: C_6  and  C_7
REMARK    4  A    between atoms: C_7  and  N_8
REMARK    5  A    between atoms: C_9  and  C_10
REMARK    6  A    between atoms: C_10  and  O_12
REMARK    7  A    between atoms: C_13  and  C_14
REMARK    8  A    between atoms: C_14  and  N_15
REMARK    9  A    between atoms: N_15  and  C_16
REMARK   10  A    between atoms: C_16  and  C_17
REMARK   11  A    between atoms: C_20  and  S_21
REMARK   12  A    between atoms: S_21  and  C_22
REMARK   13  A    between atoms: C_28  and  O_29
REMARK   14  A    between atoms: O_29  and  C_30
REMARK                            x       y       z     vdW  Elec       q    Type
REMARK                         _______ _______ _______ _____ _____    ______ ____
ROOT
ATOM      1  N   UNL     1       0.733  10.317  19.896  0.00  0.00    +0.000 N 
ATOM      2  C   UNL     1       0.854  11.631  20.365  0.00  0.00    +0.000 A 
ATOM      3  C   UNL     1      -0.448  11.781  20.880  0.00  0.00    +0.000 A 
ATOM      4  C   UNL     1      -1.103  11.596  19.649  0.00  0.00    +0.000 A 
ATOM      5  C   UNL     1      -2.324  12.105  19.199  0.00  0.00    +0.000 A 
ATOM      6  C   UNL     1      -2.909  11.507  18.119  0.00  0.00    +0.000 A 
ATOM      7  C   UNL     1      -2.332  10.370  17.529  0.00  0.00    +0.000 A 
ATOM      8  C   UNL     1      -1.127   9.777  18.025  0.00  0.00    +0.000 A 
ATOM      9  C   UNL     1      -0.475  10.423  19.118  0.00  0.00    +0.000 A 
ENDROOT
BRANCH   2  10
ATOM     10  C   UNL     1       1.687  12.494  19.510  0.00  0.00    +0.000 C 
ATOM     11  O   UNL     1       2.291  12.116  18.517  0.00  0.00    +0.000 OA
BRANCH  10  12
ATOM     12  O   UNL     1       1.617  13.804  19.846  0.00  0.00    +0.000 OA
ATOM     13  H   UNL     1       2.461  14.142  20.190  0.00  0.00    +0.000 HD
ENDBRANCH  10  12
ENDBRANCH   2  10
BRANCH   7  14
ATOM     14  O   UNL     1      -3.140  10.010  16.490  0.00  0.00    +0.000 OA
ATOM     15  C   UNL     1      -3.054  10.580  15.206  0.00  0.00    +0.000 C 
ENDBRANCH   7  14
BRANCH   1  16
ATOM     16  C   UNL     1       1.565   9.261  20.548  0.00  0.00    +0.000 C 
BRANCH  16  20
ATOM     17  C   UNL     1       2.688   5.329  18.835  0.00  0.00    +0.000 A 
ATOM     18  C   UNL     1       2.088   5.448  20.098  0.00  0.00    +0.000 A 
ATOM     19  C   UNL     1       1.641   6.685  20.614  0.00  0.00    +0.000 A 
ATOM     20  C   UNL     1       1.794   7.871  19.888  0.00  0.00    +0.000 A 
ATOM     21  C   UNL     1       2.371   7.729  18.578  0.00  0.00    +0.000 A 
ATOM     22  C   UNL     1       2.783   6.474  18.048  0.00  0.00    +0.000 A 
BRANCH  17  24
ATOM     23  C   UNL     1       2.361   2.928  18.991  0.00  0.00    +0.000 C 
ATOM     24  O   UNL     1       3.124   4.050  18.561  0.00  0.00    +0.000 OA
ENDBRANCH  17  24
ENDBRANCH  16  20
ENDBRANCH   1  16
BRANCH   3  25
ATOM     25  C   UNL     1      -1.264  11.216  22.042  0.00  0.00    +0.000 C 
BRANCH  25  26
ATOM     26  N   UNL     1      -1.179  11.993  23.251  0.00  0.00    +0.000 NA
ATOM     27  H   UNL     1      -0.226  12.064  23.579  0.00  0.00    +0.000 HD
BRANCH  26  28
ATOM     28  C   UNL     1      -1.773  13.301  23.061  0.00  0.00    +0.000 C 
BRANCH  28  29
ATOM     29  C   UNL     1      -3.259  13.241  23.232  0.00  0.00    +0.000 A 
ATOM     30  C   UNL     1      -4.067  13.664  22.174  0.00  0.00    +0.000 A 
ATOM     31  C   UNL     1      -5.446  13.510  22.235  0.00  0.00    +0.000 A 
ATOM     32  C   UNL     1      -6.018  12.890  23.346  0.00  0.00    +0.000 A 
ATOM     33  C   UNL     1      -5.225  12.542  24.447  0.00  0.00    +0.000 A 
ATOM     34  C   UNL     1      -3.852  12.712  24.388  0.00  0.00    +0.000 A 
BRANCH  32  35
ATOM     35  S   UNL     1      -7.691  12.298  23.242  0.00  0.00    +0.000 S 
ATOM     36  C   UNL     1      -7.594  11.783  21.500  0.00  0.00    +0.000 C 
ENDBRANCH  32  35
ENDBRANCH  28  29
ENDBRANCH  26  28
ENDBRANCH  25  26
ENDBRANCH   3  25
TORSDOF 11
ENDMDL
MODEL 7
REMARK VINA RESULT:      -6.8      3.332      8.342
REMARK  Name = 
REMARK  14 active torsions:
REMARK  status: ('A' for Active; 'I' for Inactive)
REMARK    1  A    between atoms: C_1  and  O_2
REMARK    2  A    between atoms: O_2  and  C_3
REMARK    3  A    between atoms: C_6  and  C_7
REMARK    4  A    between atoms: C_7  and  N_8
REMARK    5  A    between atoms: C_9  and  C_10
REMARK    6  A    between atoms: C_10  and  O_12
REMARK    7  A    between atoms: C_13  and  C_14
REMARK    8  A    between atoms: C_14  and  N_15
REMARK    9  A    between atoms: N_15  and  C_16
REMARK   10  A    between atoms: C_16  and  C_17
REMARK   11  A    between atoms: C_20  and  S_21
REMARK   12  A    between atoms: S_21  and  C_22
REMARK   13  A    between atoms: C_28  and  O_29
REMARK   14  A    between atoms: O_29  and  C_30
REMARK                            x       y       z     vdW  Elec       q    Type
REMARK                         _______ _______ _______ _____ _____    ______ ____
ROOT
ATOM      1  N   UNL     1      -1.683  12.227  19.283  0.00  0.00    +0.000 N 
ATOM      2  C   UNL     1      -1.665  10.913  18.797  0.00  0.00    +0.000 A 
ATOM      3  C   UNL     1      -0.498  10.473  19.450  0.00  0.00    +0.000 A 
ATOM      4  C   UNL     1       0.361  11.398  18.831  0.00  0.00    +0.000 A 
ATOM      5  C   UNL     1       1.722  11.293  18.527  0.00  0.00    +0.000 A 
ATOM      6  C   UNL     1       2.408  12.441  18.252  0.00  0.00    +0.000 A 
ATOM      7  C   UNL     1       1.778  13.693  18.346  0.00  0.00    +0.000 A 
ATOM      8  C   UNL     1       0.408  13.835  18.741  0.00  0.00    +0.000 A 
ATOM      9  C   UNL     1      -0.337  12.640  18.977  0.00  0.00    +0.000 A 
ENDROOT
BRANCH   2  10
ATOM     10  C   UNL     1      -2.129  10.788  17.405  0.00  0.00    +0.000 C 
ATOM     11  O   UNL     1      -1.958   9.804  16.699  0.00  0.00    +0.000 OA
BRANCH  10  12
ATOM     12  O   UNL     1      -2.900  11.827  17.004  0.00  0.00    +0.000 OA
ATOM     13  H   UNL     1      -3.191  12.378  17.751  0.00  0.00    +0.000 HD
ENDBRANCH  10  12
ENDBRANCH   2  10
BRANCH   7  14
ATOM     14  O   UNL     1       2.712  14.632  18.020  0.00  0.00    +0.000 OA
ATOM     15  C   UNL     1       2.578  16.000  18.327  0.00  0.00    +0.000 C 
ENDBRANCH   7  14
BRANCH   1  16
ATOM     16  C   UNL     1      -2.808  12.627  20.180  0.00  0.00    +0.000 C 
BRANCH  16  20
ATOM     17  C   UNL     1      -2.496  14.637  24.119  0.00  0.00    +0.000 A 
ATOM     18  C   UNL     1      -1.701  13.531  23.781  0.00  0.00    +0.000 A 
ATOM     19  C   UNL     1      -1.725  12.942  22.498  0.00  0.00    +0.000 A 
ATOM     20  C   UNL     1      -2.569  13.427  21.492  0.00  0.00    +0.000 A 
ATOM     21  C   UNL     1      -3.346  14.587  21.838  0.00  0.00    +0.000 A 
ATOM     22  C   UNL     1      -3.288  15.200  23.121  0.00  0.00    +0.000 A 
BRANCH  17  24
ATOM     23  C   UNL     1      -1.424  15.980  25.834  0.00  0.00    +0.000 C 
ATOM     24  O   UNL     1      -2.381  15.002  25.443  0.00  0.00    +0.000 OA
ENDBRANCH  17  24
ENDBRANCH  16  20
ENDBRANCH   1  16
BRANCH   3  25
ATOM     25  C   UNL     1      -0.063  10.173  20.885  0.00  0.00    +0.000 C 
BRANCH  25  26
ATOM     26  N   UNL     1       0.040   8.769  21.184  0.00  0.00    +0.000 NA
ATOM     27  H   UNL     1      -0.449   8.208  20.503  0.00  0.00    +0.000 HD
BRANCH  26  28
ATOM     28  C   UNL     1       1.429   8.371  21.299  0.00  0.00    +0.000 C 
BRANCH  28  29
ATOM     29  C   UNL     1       1.768   7.322  20.287  0.00  0.00    +0.000 A 
ATOM     30  C   UNL     1       2.272   7.731  19.050  0.00  0.00    +0.000 A 
ATOM     31  C   UNL     1       2.718   6.794  18.127  0.00  0.00    +0.000 A 
ATOM     32  C   UNL     1       2.700   5.440  18.461  0.00  0.00    +0.000 A 
ATOM     33  C   UNL     1       2.118   5.016  19.662  0.00  0.00    +0.000 A 
ATOM     34  C   UNL     1       1.658   5.953  20.573  0.00  0.00    +0.000 A 
BRANCH  32  35
ATOM     35  S   UNL     1       3.657   4.296  17.493  0.00  0.00    +0.000 S 
ATOM     36  C   UNL     1       2.534   2.884  17.718  0.00  0.00    +0.000 C 
ENDBRANCH  32  35
ENDBRANCH  28  29
ENDBRANCH  26  28
ENDBRANCH  25  26
ENDBRANCH   3  25
TORSDOF 11
ENDMDL
MODEL 8
REMARK VINA RESULT:      -6.8      2.034      2.714
REMARK  Name = 
REMARK  14 active torsions:
REMARK  status: ('A' for Active; 'I' for Inactive)
REMARK    1  A    between atoms: C_1  and  O_2
REMARK    2  A    between atoms: O_2  and  C_3
REMARK    3  A    between atoms: C_6  and  C_7
REMARK    4  A    between atoms: C_7  and  N_8
REMARK    5  A    between atoms: C_9  and  C_10
REMARK    6  A    between atoms: C_10  and  O_12
REMARK    7  A    between atoms: C_13  and  C_14
REMARK    8  A    between atoms: C_14  and  N_15
REMARK    9  A    between atoms: N_15  and  C_16
REMARK   10  A    between atoms: C_16  and  C_17
REMARK   11  A    between atoms: C_20  and  S_21
REMARK   12  A    between atoms: S_21  and  C_22
REMARK   13  A    between atoms: C_28  and  O_29
REMARK   14  A    between atoms: O_29  and  C_30
REMARK                            x       y       z     vdW  Elec       q    Type
REMARK                         _______ _______ _______ _____ _____    ______ ____
ROOT
ATOM      1  N   UNL     1       0.911   9.830  19.011  0.00  0.00    +0.000 N 
ATOM      2  C   UNL     1       1.296  11.120  19.400  0.00  0.00    +0.000 A 
ATOM      3  C   UNL     1       0.108  11.494  20.056  0.00  0.00    +0.000 A 
ATOM      4  C   UNL     1      -0.715  11.384  18.921  0.00  0.00    +0.000 A 
ATOM      5  C   UNL     1      -1.887  12.071  18.594  0.00  0.00    +0.000 A 
ATOM      6  C   UNL     1      -2.688  11.547  17.619  0.00  0.00    +0.000 A 
ATOM      7  C   UNL     1      -2.376  10.315  17.020  0.00  0.00    +0.000 A 
ATOM      8  C   UNL     1      -1.228   9.547  17.399  0.00  0.00    +0.000 A 
ATOM      9  C   UNL     1      -0.352  10.110  18.377  0.00  0.00    +0.000 A 
ENDROOT
BRANCH   2  10
ATOM     10  C   UNL     1       2.142  11.811  18.413  0.00  0.00    +0.000 C 
ATOM     11  O   UNL     1       2.702  11.267  17.473  0.00  0.00    +0.000 OA
BRANCH  10  12
ATOM     12  O   UNL     1       2.139  13.157  18.558  0.00  0.00    +0.000 OA
ATOM     13  H   UNL     1       2.955  13.566  18.220  0.00  0.00    +0.000 HD
ENDBRANCH  10  12
ENDBRANCH   2  10
BRANCH   7  14
ATOM     14  O   UNL     1      -3.353  10.062  16.102  0.00  0.00    +0.000 OA
ATOM     15  C   UNL     1      -3.177  10.232  14.715  0.00  0.00    +0.000 C 
ENDBRANCH   7  14
BRANCH   1  16
ATOM     16  C   UNL     1       1.639   8.671  19.611  0.00  0.00    +0.000 C 
BRANCH  16  20
ATOM     17  C   UNL     1       3.993   5.607  17.436  0.00  0.00    +0.000 A 
ATOM     18  C   UNL     1       2.996   5.263  18.362  0.00  0.00    +0.000 A 
ATOM     19  C   UNL     1       2.177   6.227  18.990  0.00  0.00    +0.000 A 
ATOM     20  C   UNL     1       2.334   7.593  18.731  0.00  0.00    +0.000 A 
ATOM     21  C   UNL     1       3.329   7.929  17.748  0.00  0.00    +0.000 A 
ATOM     22  C   UNL     1       4.125   6.949  17.090  0.00  0.00    +0.000 A 
BRANCH  17  24
ATOM     23  C   UNL     1       5.311   4.525  15.708  0.00  0.00    +0.000 C 
ATOM     24  O   UNL     1       4.729   4.524  17.007  0.00  0.00    +0.000 OA
ENDBRANCH  17  24
ENDBRANCH  16  20
ENDBRANCH   1  16
BRANCH   3  25
ATOM     25  C   UNL     1      -0.638  11.102  21.332  0.00  0.00    +0.000 C 
BRANCH  25  26
ATOM     26  N   UNL     1      -1.080  12.223  22.120  0.00  0.00    +0.000 NA
ATOM     27  H   UNL     1      -1.586  12.893  21.559  0.00  0.00    +0.000 HD
BRANCH  26  28
ATOM     28  C   UNL     1      -1.869  11.774  23.250  0.00  0.00    +0.000 C 
BRANCH  28  29
ATOM     29  C   UNL     1      -3.255  12.333  23.188  0.00  0.00    +0.000 A 
ATOM     30  C   UNL     1      -3.766  12.704  21.943  0.00  0.00    +0.000 A 
ATOM     31  C   UNL     1      -5.089  13.109  21.816  0.00  0.00    +0.000 A 
ATOM     32  C   UNL     1      -5.918  13.104  22.937  0.00  0.00    +0.000 A 
ATOM     33  C   UNL     1      -5.392  12.817  24.204  0.00  0.00    +0.000 A 
ATOM     34  C   UNL     1      -4.068  12.429  24.328  0.00  0.00    +0.000 A 
BRANCH  32  35
ATOM     35  S   UNL     1      -7.680  13.188  22.713  0.00  0.00    +0.000 S 
ATOM     36  C   UNL     1      -7.674  12.588  20.997  0.00  0.00    +0.000 C 
ENDBRANCH  32  35
ENDBRANCH  28  29
ENDBRANCH  26  28
ENDBRANCH  25  26
ENDBRANCH   3  25
TORSDOF 11
ENDMDL
MODEL 9
REMARK VINA RESULT:      -6.7      1.754      2.346
REMARK  Name = 
REMARK  14 active torsions:
REMARK  status: ('A' for Active; 'I' for Inactive)
REMARK    1  A    between atoms: C_1  and  O_2
REMARK    2  A    between atoms: O_2  and  C_3
REMARK    3  A    between atoms: C_6  and  C_7
REMARK    4  A    between atoms: C_7  and  N_8
REMARK    5  A    between atoms: C_9  and  C_10
REMARK    6  A    between atoms: C_10  and  O_12
REMARK    7  A    between atoms: C_13  and  C_14
REMARK    8  A    between atoms: C_14  and  N_15
REMARK    9  A    between atoms: N_15  and  C_16
REMARK   10  A    between atoms: C_16  and  C_17
REMARK   11  A    between atoms: C_20  and  S_21
REMARK   12  A    between atoms: S_21  and  C_22
REMARK   13  A    between atoms: C_28  and  O_29
REMARK   14  A    between atoms: O_29  and  C_30
REMARK                            x       y       z     vdW  Elec       q    Type
REMARK                         _______ _______ _______ _____ _____    ______ ____
ROOT
ATOM      1  N   UNL     1       0.590  10.111  19.513  0.00  0.00    +0.000 N 
ATOM      2  C   UNL     1       0.841  11.456  19.817  0.00  0.00    +0.000 A 
ATOM      3  C   UNL     1      -0.453  11.809  20.246  0.00  0.00    +0.000 A 
ATOM      4  C   UNL     1      -1.082  11.535  19.018  0.00  0.00    +0.000 A 
ATOM      5  C   UNL     1      -2.224  12.108  18.450  0.00  0.00    +0.000 A 
ATOM      6  C   UNL     1      -2.834  11.439  17.427  0.00  0.00    +0.000 A 
ATOM      7  C   UNL     1      -2.369  10.180  17.014  0.00  0.00    +0.000 A 
ATOM      8  C   UNL     1      -1.255   9.532  17.639  0.00  0.00    +0.000 A 
ATOM      9  C   UNL     1      -0.572  10.243  18.671  0.00  0.00    +0.000 A 
ENDROOT
BRANCH   2  10
ATOM     10  C   UNL     1       1.793  12.105  18.901  0.00  0.00    +0.000 C 
ATOM     11  O   UNL     1       2.475  11.519  18.074  0.00  0.00    +0.000 OA
BRANCH  10  12
ATOM     12  O   UNL     1       1.750  13.458  18.959  0.00  0.00    +0.000 OA
ATOM     13  H   UNL     1       2.426  13.872  18.396  0.00  0.00    +0.000 HD
ENDBRANCH  10  12
ENDBRANCH   2  10
BRANCH   7  14
ATOM     14  O   UNL     1      -3.177   9.775  15.992  0.00  0.00    +0.000 OA
ATOM     15  C   UNL     1      -3.166  10.366  14.713  0.00  0.00    +0.000 C 
ENDBRANCH   7  14
BRANCH   1  16
ATOM     16  C   UNL     1       1.275   9.068  20.333  0.00  0.00    +0.000 C 
BRANCH  16  20
ATOM     17  C   UNL     1       2.912   5.504  18.265  0.00  0.00    +0.000 A 
ATOM     18  C   UNL     1       2.983   6.789  17.705  0.00  0.00    +0.000 A 
ATOM     19  C   UNL     1       2.550   7.943  18.394  0.00  0.00    +0.000 A 
ATOM     20  C   UNL     1       2.004   7.858  19.680  0.00  0.00    +0.000 A 
ATOM     21  C   UNL     1       1.977   6.542  20.259  0.00  0.00    +0.000 A 
ATOM     22  C   UNL     1       2.451   5.388  19.573  0.00  0.00    +0.000 A 
BRANCH  17  24
ATOM     23  C   UNL     1       2.590   3.285  17.332  0.00  0.00    +0.000 C 
ATOM     24  O   UNL     1       3.309   4.512  17.394  0.00  0.00    +0.000 OA
ENDBRANCH  17  24
ENDBRANCH  16  20
ENDBRANCH   1  16
BRANCH   3  25
ATOM     25  C   UNL     1      -1.366  11.492  21.430  0.00  0.00    +0.000 C 
BRANCH  25  26
ATOM     26  N   UNL     1      -0.958  12.105  22.666  0.00  0.00    +0.000 NA
ATOM     27  H   UNL     1       0.047  12.114  22.761  0.00  0.00    +0.000 HD
BRANCH  26  28
ATOM     28  C   UNL     1      -1.514  13.438  22.784  0.00  0.00    +0.000 C 
BRANCH  28  29
ATOM     29  C   UNL     1      -2.974  13.380  23.108  0.00  0.00    +0.000 A 
ATOM     30  C   UNL     1      -3.876  13.963  22.216  0.00  0.00    +0.000 A 
ATOM     31  C   UNL     1      -5.245  13.826  22.408  0.00  0.00    +0.000 A 
ATOM     32  C   UNL     1      -5.714  13.065  23.478  0.00  0.00    +0.000 A 
ATOM     33  C   UNL     1      -4.820  12.550  24.424  0.00  0.00    +0.000 A 
ATOM     34  C   UNL     1      -3.456  12.703  24.238  0.00  0.00    +0.000 A 
BRANCH  32  35
ATOM     35  S   UNL     1      -7.408  12.523  23.478  0.00  0.00    +0.000 S 
ATOM     36  C   UNL     1      -7.914  13.506  22.035  0.00  0.00    +0.000 C 
ENDBRANCH  32  35
ENDBRANCH  28  29
ENDBRANCH  26  28
ENDBRANCH  25  26
ENDBRANCH   3  25
TORSDOF 11
ENDMDL
