MODEL 1
REMARK VINA RESULT:      -6.7      0.000      0.000
REMARK  Name = 
REMARK  6 active torsions:
REMARK  status: ('A' for Active; 'I' for Inactive)
REMARK    1  A    between atoms: C_1  and  C_2
REMARK    2  A    between atoms: C_5  and  S_6
REMARK    3  A    between atoms: S_6  and  N_9
REMARK    4  A    between atoms: N_9  and  N_10
REMARK    5  A    between atoms: C_11  and  C_12
REMARK    6  A    between atoms: C_13  and  C_14
REMARK                            x       y       z     vdW  Elec       q    Type
REMARK                         _______ _______ _______ _____ _____    ______ ____
ROOT
ATOM      1  N   UNL     1       6.375   6.121  15.443  0.00  0.00    +0.000 N 
ATOM      2  H   UNL     1       5.738   6.855  15.134  0.00  0.00    +0.000 HD
ENDROOT
BRANCH   1   3
ATOM      3  S   UNL     1       6.953   6.339  17.023  0.00  0.00    +0.000 S 
ATOM      4  O   UNL     1       7.539   7.656  17.136  0.00  0.00    +0.000 OA
ATOM      5  O   UNL     1       7.731   5.150  17.323  0.00  0.00    +0.000 OA
BRANCH   3  10
ATOM      6  C   UNL     1       1.820   5.982  20.245  0.00  0.00    +0.000 C 
ATOM      7  C   UNL     1       3.094   6.092  19.460  0.00  0.00    +0.000 A 
ATOM      8  C   UNL     1       3.152   6.870  18.297  0.00  0.00    +0.000 A 
ATOM      9  C   UNL     1       4.338   6.966  17.567  0.00  0.00    +0.000 A 
ATOM     10  C   UNL     1       5.478   6.287  18.006  0.00  0.00    +0.000 A 
ATOM     11  C   UNL     1       5.431   5.491  19.154  0.00  0.00    +0.000 A 
ATOM     12  C   UNL     1       4.240   5.400  19.881  0.00  0.00    +0.000 A 
ENDBRANCH   3  10
ENDBRANCH   1   3
BRANCH   1  13
ATOM     13  N   UNL     1       6.761   4.999  14.640  0.00  0.00    +0.000 NA
ATOM     14  C   UNL     1       5.971   3.971  14.629  0.00  0.00    +0.000 C 
BRANCH  14  15
ATOM     15  C   UNL     1       4.743   3.758  15.434  0.00  0.00    +0.000 C 
ATOM     16  C   UNL     1       4.767   3.136  16.623  0.00  0.00    +0.000 C 
BRANCH  16  17
ATOM     17  C   UNL     1       3.546   2.939  17.428  0.00  0.00    +0.000 A 
ATOM     18  C   UNL     1       3.578   2.076  18.531  0.00  0.00    +0.000 A 
ATOM     19  C   UNL     1       2.429   1.856  19.299  0.00  0.00    +0.000 A 
ATOM     20  C   UNL     1       1.237   2.506  18.982  0.00  0.00    +0.000 A 
ATOM     21  C   UNL     1       1.197   3.386  17.906  0.00  0.00    +0.000 A 
ATOM     22  C   UNL     1       2.345   3.610  17.143  0.00  0.00    +0.000 A 
ENDBRANCH  16  17
ENDBRANCH  14  15
ENDBRANCH   1  13
TORSDOF 5
ENDMDL
MODEL 2
REMARK VINA RESULT:      -6.6      0.603      1.207
REMARK  Name = 
REMARK  6 active torsions:
REMARK  status: ('A' for Active; 'I' for Inactive)
REMARK    1  A    between atoms: C_1  and  C_2
REMARK    2  A    between atoms: C_5  and  S_6
REMARK    3  A    between atoms: S_6  and  N_9
REMARK    4  A    between atoms: N_9  and  N_10
REMARK    5  A    between atoms: C_11  and  C_12
REMARK    6  A    between atoms: C_13  and  C_14
REMARK                            x       y       z     vdW  Elec       q    Type
REMARK                         _______ _______ _______ _____ _____    ______ ____
ROOT
ATOM      1  N   UNL     1       7.136   6.138  16.037  0.00  0.00    +0.000 N 
ATOM      2  H   UNL     1       6.776   7.054  15.770  0.00  0.00    +0.000 HD
ENDROOT
BRANCH   1   3
ATOM      3  S   UNL     1       7.376   5.956  17.706  0.00  0.00    +0.000 S 
ATOM      4  O   UNL     1       8.161   7.067  18.195  0.00  0.00    +0.000 OA
ATOM      5  O   UNL     1       7.826   4.588  17.890  0.00  0.00    +0.000 OA
BRANCH   3  10
ATOM      6  C   UNL     1       1.688   6.231  19.811  0.00  0.00    +0.000 C 
ATOM      7  C   UNL     1       3.100   6.183  19.303  0.00  0.00    +0.000 A 
ATOM      8  C   UNL     1       3.492   6.965  18.210  0.00  0.00    +0.000 A 
ATOM      9  C   UNL     1       4.806   6.914  17.738  0.00  0.00    +0.000 A 
ATOM     10  C   UNL     1       5.736   6.084  18.369  0.00  0.00    +0.000 A 
ATOM     11  C   UNL     1       5.355   5.284  19.449  0.00  0.00    +0.000 A 
ATOM     12  C   UNL     1       4.038   5.340  19.917  0.00  0.00    +0.000 A 
ENDBRANCH   3  10
ENDBRANCH   1   3
BRANCH   1  13
ATOM     13  N   UNL     1       7.418   5.083  15.109  0.00  0.00    +0.000 NA
ATOM     14  C   UNL     1       6.500   4.186  14.924  0.00  0.00    +0.000 C 
BRANCH  14  15
ATOM     15  C   UNL     1       5.206   4.048  15.637  0.00  0.00    +0.000 C 
ATOM     16  C   UNL     1       4.985   3.073  16.532  0.00  0.00    +0.000 C 
BRANCH  16  17
ATOM     17  C   UNL     1       3.702   2.947  17.251  0.00  0.00    +0.000 A 
ATOM     18  C   UNL     1       2.604   3.717  16.847  0.00  0.00    +0.000 A 
ATOM     19  C   UNL     1       1.383   3.631  17.525  0.00  0.00    +0.000 A 
ATOM     20  C   UNL     1       1.239   2.764  18.607  0.00  0.00    +0.000 A 
ATOM     21  C   UNL     1       2.312   1.972  19.003  0.00  0.00    +0.000 A 
ATOM     22  C   UNL     1       3.530   2.054  18.323  0.00  0.00    +0.000 A 
ENDBRANCH  16  17
ENDBRANCH  14  15
ENDBRANCH   1  13
TORSDOF 5
ENDMDL
MODEL 3
REMARK VINA RESULT:      -6.6      3.567      5.650
REMARK  Name = 
REMARK  6 active torsions:
REMARK  status: ('A' for Active; 'I' for Inactive)
REMARK    1  A    between atoms: C_1  and  C_2
REMARK    2  A    between atoms: C_5  and  S_6
REMARK    3  A    between atoms: S_6  and  N_9
REMARK    4  A    between atoms: N_9  and  N_10
REMARK    5  A    between atoms: C_11  and  C_12
REMARK    6  A    between atoms: C_13  and  C_14
REMARK                            x       y       z     vdW  Elec       q    Type
REMARK                         _______ _______ _______ _____ _____    ______ ____
ROOT
ATOM      1  N   UNL     1       2.488   2.484  19.687  0.00  0.00    +0.000 N 
ATOM      2  H   UNL     1       1.749   2.617  18.997  0.00  0.00    +0.000 HD
ENDROOT
BRANCH   1   3
ATOM      3  S   UNL     1       3.986   2.060  19.014  0.00  0.00    +0.000 S 
ATOM      4  O   UNL     1       3.764   1.211  17.864  0.00  0.00    +0.000 OA
ATOM      5  O   UNL     1       4.803   1.609  20.126  0.00  0.00    +0.000 OA
BRANCH   3  10
ATOM      6  C   UNL     1       6.420   7.266  17.056  0.00  0.00    +0.000 C 
ATOM      7  C   UNL     1       5.799   5.992  17.550  0.00  0.00    +0.000 A 
ATOM      8  C   UNL     1       5.988   5.571  18.872  0.00  0.00    +0.000 A 
ATOM      9  C   UNL     1       5.413   4.382  19.326  0.00  0.00    +0.000 A 
ATOM     10  C   UNL     1       4.635   3.614  18.456  0.00  0.00    +0.000 A 
ATOM     11  C   UNL     1       4.452   4.011  17.129  0.00  0.00    +0.000 A 
ATOM     12  C   UNL     1       5.031   5.203  16.680  0.00  0.00    +0.000 A 
ENDBRANCH   3  10
ENDBRANCH   1   3
BRANCH   1  13
ATOM     13  N   UNL     1       2.307   2.637  21.101  0.00  0.00    +0.000 NA
ATOM     14  C   UNL     1       1.832   3.767  21.524  0.00  0.00    +0.000 C 
BRANCH  14  15
ATOM     15  C   UNL     1       1.539   4.986  20.730  0.00  0.00    +0.000 C 
ATOM     16  C   UNL     1       2.457   5.945  20.529  0.00  0.00    +0.000 C 
BRANCH  16  17
ATOM     17  C   UNL     1       2.168   7.149  19.727  0.00  0.00    +0.000 A 
ATOM     18  C   UNL     1       2.607   7.216  18.399  0.00  0.00    +0.000 A 
ATOM     19  C   UNL     1       2.364   8.356  17.622  0.00  0.00    +0.000 A 
ATOM     20  C   UNL     1       1.667   9.436  18.160  0.00  0.00    +0.000 A 
ATOM     21  C   UNL     1       1.200   9.374  19.469  0.00  0.00    +0.000 A 
ATOM     22  C   UNL     1       1.439   8.234  20.242  0.00  0.00    +0.000 A 
ENDBRANCH  16  17
ENDBRANCH  14  15
ENDBRANCH   1  13
TORSDOF 5
ENDMDL
MODEL 4
REMARK VINA RESULT:      -6.5      3.155      5.070
REMARK  Name = 
REMARK  6 active torsions:
REMARK  status: ('A' for Active; 'I' for Inactive)
REMARK    1  A    between atoms: C_1  and  C_2
REMARK    2  A    between atoms: C_5  and  S_6
REMARK    3  A    between atoms: S_6  and  N_9
REMARK    4  A    between atoms: N_9  and  N_10
REMARK    5  A    between atoms: C_11  and  C_12
REMARK    6  A    between atoms: C_13  and  C_14
REMARK                            x       y       z     vdW  Elec       q    Type
REMARK                         _______ _______ _______ _____ _____    ______ ____
ROOT
ATOM      1  N   UNL     1       5.369   3.318  18.836  0.00  0.00    +0.000 N 
ATOM      2  H   UNL     1       5.760   2.535  18.313  0.00  0.00    +0.000 HD
ENDROOT
BRANCH   1   3
ATOM      3  S   UNL     1       3.713   3.160  19.168  0.00  0.00    +0.000 S 
ATOM      4  O   UNL     1       3.543   2.752  20.545  0.00  0.00    +0.000 OA
ATOM      5  O   UNL     1       3.170   2.362  18.083  0.00  0.00    +0.000 OA
BRANCH   3  10
ATOM      6  C   UNL     1       1.839   8.909  18.621  0.00  0.00    +0.000 C 
ATOM      7  C   UNL     1       2.279   7.480  18.754  0.00  0.00    +0.000 A 
ATOM      8  C   UNL     1       2.201   6.820  19.986  0.00  0.00    +0.000 A 
ATOM      9  C   UNL     1       2.616   5.492  20.106  0.00  0.00    +0.000 A 
ATOM     10  C   UNL     1       3.103   4.815  18.985  0.00  0.00    +0.000 A 
ATOM     11  C   UNL     1       3.204   5.465  17.753  0.00  0.00    +0.000 A 
ATOM     12  C   UNL     1       2.787   6.796  17.639  0.00  0.00    +0.000 A 
ENDBRANCH   3  10
ENDBRANCH   1   3
BRANCH   1  13
ATOM     13  N   UNL     1       6.125   4.456  19.266  0.00  0.00    +0.000 NA
ATOM     14  C   UNL     1       6.838   5.073  18.376  0.00  0.00    +0.000 C 
BRANCH  14  15
ATOM     15  C   UNL     1       7.059   4.686  16.960  0.00  0.00    +0.000 C 
ATOM     16  C   UNL     1       6.243   5.089  15.974  0.00  0.00    +0.000 C 
BRANCH  16  17
ATOM     17  C   UNL     1       6.473   4.715  14.565  0.00  0.00    +0.000 A 
ATOM     18  C   UNL     1       5.622   3.790  13.947  0.00  0.00    +0.000 A 
ATOM     19  C   UNL     1       5.831   3.404  12.618  0.00  0.00    +0.000 A 
ATOM     20  C   UNL     1       6.886   3.947  11.887  0.00  0.00    +0.000 A 
ATOM     21  C   UNL     1       7.724   4.887  12.478  0.00  0.00    +0.000 A 
ATOM     22  C   UNL     1       7.512   5.276  13.803  0.00  0.00    +0.000 A 
ENDBRANCH  16  17
ENDBRANCH  14  15
ENDBRANCH   1  13
TORSDOF 5
ENDMDL
MODEL 5
REMARK VINA RESULT:      -6.5      3.177      5.111
REMARK  Name = 
REMARK  6 active torsions:
REMARK  status: ('A' for Active; 'I' for Inactive)
REMARK    1  A    between atoms: C_1  and  C_2
REMARK    2  A    between atoms: C_5  and  S_6
REMARK    3  A    between atoms: S_6  and  N_9
REMARK    4  A    between atoms: N_9  and  N_10
REMARK    5  A    between atoms: C_11  and  C_12
REMARK    6  A    between atoms: C_13  and  C_14
REMARK                            x       y       z     vdW  Elec       q    Type
REMARK                         _______ _______ _______ _____ _____    ______ ____
ROOT
ATOM      1  N   UNL     1       5.457   3.331  18.846  0.00  0.00    +0.000 N 
ATOM      2  H   UNL     1       5.796   2.548  18.288  0.00  0.00    +0.000 HD
ENDROOT
BRANCH   1   3
ATOM      3  S   UNL     1       3.807   3.239  19.225  0.00  0.00    +0.000 S 
ATOM      4  O   UNL     1       3.660   2.948  20.634  0.00  0.00    +0.000 OA
ATOM      5  O   UNL     1       3.221   2.370  18.220  0.00  0.00    +0.000 OA
BRANCH   3  10
ATOM      6  C   UNL     1       2.032   8.968  18.283  0.00  0.00    +0.000 C 
ATOM      7  C   UNL     1       2.447   7.544  18.512  0.00  0.00    +0.000 A 
ATOM      8  C   UNL     1       2.252   6.934  19.757  0.00  0.00    +0.000 A 
ATOM      9  C   UNL     1       2.644   5.610  19.967  0.00  0.00    +0.000 A 
ATOM     10  C   UNL     1       3.227   4.888  18.922  0.00  0.00    +0.000 A 
ATOM     11  C   UNL     1       3.446   5.488  17.680  0.00  0.00    +0.000 A 
ATOM     12  C   UNL     1       3.050   6.814  17.476  0.00  0.00    +0.000 A 
ENDBRANCH   3  10
ENDBRANCH   1   3
BRANCH   1  13
ATOM     13  N   UNL     1       6.278   4.421  19.285  0.00  0.00    +0.000 NA
ATOM     14  C   UNL     1       7.022   5.006  18.399  0.00  0.00    +0.000 C 
BRANCH  14  15
ATOM     15  C   UNL     1       7.215   4.623  16.979  0.00  0.00    +0.000 C 
ATOM     16  C   UNL     1       6.441   5.109  15.996  0.00  0.00    +0.000 C 
BRANCH  16  17
ATOM     17  C   UNL     1       6.646   4.739  14.582  0.00  0.00    +0.000 A 
ATOM     18  C   UNL     1       7.641   5.382  13.836  0.00  0.00    +0.000 A 
ATOM     19  C   UNL     1       7.842   5.063  12.488  0.00  0.00    +0.000 A 
ATOM     20  C   UNL     1       7.058   4.088  11.873  0.00  0.00    +0.000 A 
ATOM     21  C   UNL     1       6.083   3.421  12.607  0.00  0.00    +0.000 A 
ATOM     22  C   UNL     1       5.887   3.736  13.954  0.00  0.00    +0.000 A 
ENDBRANCH  16  17
ENDBRANCH  14  15
ENDBRANCH   1  13
TORSDOF 5
ENDMDL
MODEL 6
REMARK VINA RESULT:      -6.5      0.465      1.159
REMARK  Name = 
REMARK  6 active torsions:
REMARK  status: ('A' for Active; 'I' for Inactive)
REMARK    1  A    between atoms: C_1  and  C_2
REMARK    2  A    between atoms: C_5  and  S_6
REMARK    3  A    between atoms: S_6  and  N_9
REMARK    4  A    between atoms: N_9  and  N_10
REMARK    5  A    between atoms: C_11  and  C_12
REMARK    6  A    between atoms: C_13  and  C_14
REMARK                            x       y       z     vdW  Elec       q    Type
REMARK                         _______ _______ _______ _____ _____    ______ ____
ROOT
ATOM      1  N   UNL     1       6.112   6.193  15.415  0.00  0.00    +0.000 N 
ATOM      2  H   UNL     1       5.367   6.813  15.098  0.00  0.00    +0.000 HD
ENDROOT
BRANCH   1   3
ATOM      3  S   UNL     1       6.654   6.524  16.988  0.00  0.00    +0.000 S 
ATOM      4  O   UNL     1       7.060   7.909  17.068  0.00  0.00    +0.000 OA
ATOM      5  O   UNL     1       7.582   5.456  17.316  0.00  0.00    +0.000 OA
BRANCH   3  10
ATOM      6  C   UNL     1       1.756   5.923  20.526  0.00  0.00    +0.000 C 
ATOM      7  C   UNL     1       2.961   6.051  19.638  0.00  0.00    +0.000 A 
ATOM      8  C   UNL     1       4.120   5.310  19.897  0.00  0.00    +0.000 A 
ATOM      9  C   UNL     1       5.240   5.436  19.072  0.00  0.00    +0.000 A 
ATOM     10  C   UNL     1       5.197   6.301  17.975  0.00  0.00    +0.000 A 
ATOM     11  C   UNL     1       4.054   7.061  17.715  0.00  0.00    +0.000 A 
ATOM     12  C   UNL     1       2.936   6.930  18.545  0.00  0.00    +0.000 A 
ENDBRANCH   3  10
ENDBRANCH   1   3
BRANCH   1  13
ATOM     13  N   UNL     1       6.667   5.132  14.627  0.00  0.00    +0.000 NA
ATOM     14  C   UNL     1       6.284   3.923  14.897  0.00  0.00    +0.000 C 
BRANCH  14  15
ATOM     15  C   UNL     1       5.406   3.473  16.005  0.00  0.00    +0.000 C 
ATOM     16  C   UNL     1       4.076   3.650  15.980  0.00  0.00    +0.000 C 
BRANCH  16  17
ATOM     17  C   UNL     1       3.203   3.188  17.076  0.00  0.00    +0.000 A 
ATOM     18  C   UNL     1       3.666   2.205  17.961  0.00  0.00    +0.000 A 
ATOM     19  C   UNL     1       2.850   1.735  18.997  0.00  0.00    +0.000 A 
ATOM     20  C   UNL     1       1.567   2.251  19.168  0.00  0.00    +0.000 A 
ATOM     21  C   UNL     1       1.102   3.246  18.315  0.00  0.00    +0.000 A 
ATOM     22  C   UNL     1       1.919   3.719  17.284  0.00  0.00    +0.000 A 
ENDBRANCH  16  17
ENDBRANCH  14  15
ENDBRANCH   1  13
TORSDOF 5
ENDMDL
MODEL 7
REMARK VINA RESULT:      -6.4      3.200      5.100
REMARK  Name = 
REMARK  6 active torsions:
REMARK  status: ('A' for Active; 'I' for Inactive)
REMARK    1  A    between atoms: C_1  and  C_2
REMARK    2  A    between atoms: C_5  and  S_6
REMARK    3  A    between atoms: S_6  and  N_9
REMARK    4  A    between atoms: N_9  and  N_10
REMARK    5  A    between atoms: C_11  and  C_12
REMARK    6  A    between atoms: C_13  and  C_14
REMARK                            x       y       z     vdW  Elec       q    Type
REMARK                         _______ _______ _______ _____ _____    ______ ____
ROOT
ATOM      1  N   UNL     1       5.222   3.181  19.009  0.00  0.00    +0.000 N 
ATOM      2  H   UNL     1       5.574   2.295  18.648  0.00  0.00    +0.000 HD
ENDROOT
BRANCH   1   3
ATOM      3  S   UNL     1       3.543   3.202  19.251  0.00  0.00    +0.000 S 
ATOM      4  O   UNL     1       3.257   2.829  20.619  0.00  0.00    +0.000 OA
ATOM      5  O   UNL     1       2.977   2.455  18.142  0.00  0.00    +0.000 OA
BRANCH   3  10
ATOM      6  C   UNL     1       1.879   8.981  18.416  0.00  0.00    +0.000 C 
ATOM      7  C   UNL     1       2.314   7.559  18.624  0.00  0.00    +0.000 A 
ATOM      8  C   UNL     1       2.791   6.794  17.553  0.00  0.00    +0.000 A 
ATOM      9  C   UNL     1       3.190   5.471  17.750  0.00  0.00    +0.000 A 
ATOM     10  C   UNL     1       3.122   4.911  19.028  0.00  0.00    +0.000 A 
ATOM     11  C   UNL     1       2.632   5.655  20.104  0.00  0.00    +0.000 A 
ATOM     12  C   UNL     1       2.233   6.981  19.900  0.00  0.00    +0.000 A 
ENDBRANCH   3  10
ENDBRANCH   1   3
BRANCH   1  13
ATOM     13  N   UNL     1       6.046   4.318  19.296  0.00  0.00    +0.000 NA
ATOM     14  C   UNL     1       6.659   4.879  18.301  0.00  0.00    +0.000 C 
BRANCH  14  15
ATOM     15  C   UNL     1       6.701   4.430  16.887  0.00  0.00    +0.000 C 
ATOM     16  C   UNL     1       6.688   5.296  15.862  0.00  0.00    +0.000 C 
BRANCH  16  17
ATOM     17  C   UNL     1       6.745   4.847  14.457  0.00  0.00    +0.000 A 
ATOM     18  C   UNL     1       5.854   3.864  14.009  0.00  0.00    +0.000 A 
ATOM     19  C   UNL     1       5.901   3.406  12.687  0.00  0.00    +0.000 A 
ATOM     20  C   UNL     1       6.831   3.935  11.794  0.00  0.00    +0.000 A 
ATOM     21  C   UNL     1       7.705   4.930  12.216  0.00  0.00    +0.000 A 
ATOM     22  C   UNL     1       7.655   5.391  13.534  0.00  0.00    +0.000 A 
ENDBRANCH  16  17
ENDBRANCH  14  15
ENDBRANCH   1  13
TORSDOF 5
ENDMDL
MODEL 8
REMARK VINA RESULT:      -6.4      3.539      5.632
REMARK  Name = 
REMARK  6 active torsions:
REMARK  status: ('A' for Active; 'I' for Inactive)
REMARK    1  A    between atoms: C_1  and  C_2
REMARK    2  A    between atoms: C_5  and  S_6
REMARK    3  A    between atoms: S_6  and  N_9
REMARK    4  A    between atoms: N_9  and  N_10
REMARK    5  A    between atoms: C_11  and  C_12
REMARK    6  A    between atoms: C_13  and  C_14
REMARK                            x       y       z     vdW  Elec       q    Type
REMARK                         _______ _______ _______ _____ _____    ______ ____
ROOT
ATOM      1  N   UNL     1       2.428   2.324  19.591  0.00  0.00    +0.000 N 
ATOM      2  H   UNL     1       1.841   2.455  18.768  0.00  0.00    +0.000 HD
ENDROOT
BRANCH   1   3
ATOM      3  S   UNL     1       4.046   1.966  19.228  0.00  0.00    +0.000 S 
ATOM      4  O   UNL     1       4.088   0.885  18.269  0.00  0.00    +0.000 OA
ATOM      5  O   UNL     1       4.719   1.853  20.509  0.00  0.00    +0.000 OA
BRANCH   3  10
ATOM      6  C   UNL     1       5.802   7.137  16.574  0.00  0.00    +0.000 C 
ATOM      7  C   UNL     1       5.387   5.847  17.221  0.00  0.00    +0.000 A 
ATOM      8  C   UNL     1       4.670   4.885  16.499  0.00  0.00    +0.000 A 
ATOM      9  C   UNL     1       4.282   3.688  17.105  0.00  0.00    +0.000 A 
ATOM     10  C   UNL     1       4.622   3.447  18.439  0.00  0.00    +0.000 A 
ATOM     11  C   UNL     1       5.321   4.405  19.178  0.00  0.00    +0.000 A 
ATOM     12  C   UNL     1       5.707   5.602  18.564  0.00  0.00    +0.000 A 
ENDBRANCH   3  10
ENDBRANCH   1   3
BRANCH   1  13
ATOM     13  N   UNL     1       1.957   2.428  20.940  0.00  0.00    +0.000 NA
ATOM     14  C   UNL     1       1.392   3.540  21.293  0.00  0.00    +0.000 C 
BRANCH  14  15
ATOM     15  C   UNL     1       1.255   4.784  20.496  0.00  0.00    +0.000 C 
ATOM     16  C   UNL     1       2.089   5.825  20.648  0.00  0.00    +0.000 C 
BRANCH  16  17
ATOM     17  C   UNL     1       1.959   7.055  19.843  0.00  0.00    +0.000 A 
ATOM     18  C   UNL     1       1.365   8.191  20.408  0.00  0.00    +0.000 A 
ATOM     19  C   UNL     1       1.212   9.364  19.659  0.00  0.00    +0.000 A 
ATOM     20  C   UNL     1       1.663   9.420  18.341  0.00  0.00    +0.000 A 
ATOM     21  C   UNL     1       2.280   8.309  17.775  0.00  0.00    +0.000 A 
ATOM     22  C   UNL     1       2.437   7.140  18.524  0.00  0.00    +0.000 A 
ENDBRANCH  16  17
ENDBRANCH  14  15
ENDBRANCH   1  13
TORSDOF 5
ENDMDL
MODEL 9
REMARK VINA RESULT:      -6.4      0.773      1.675
REMARK  Name = 
REMARK  6 active torsions:
REMARK  status: ('A' for Active; 'I' for Inactive)
REMARK    1  A    between atoms: C_1  and  C_2
REMARK    2  A    between atoms: C_5  and  S_6
REMARK    3  A    between atoms: S_6  and  N_9
REMARK    4  A    between atoms: N_9  and  N_10
REMARK    5  A    between atoms: C_11  and  C_12
REMARK    6  A    between atoms: C_13  and  C_14
REMARK                            x       y       z     vdW  Elec       q    Type
REMARK                         _______ _______ _______ _____ _____    ______ ____
ROOT
ATOM      1  N   UNL     1       7.531   5.145  16.780  0.00  0.00    +0.000 N 
ATOM      2  H   UNL     1       7.834   4.358  17.353  0.00  0.00    +0.000 HD
ENDROOT
BRANCH   1   3
ATOM      3  S   UNL     1       7.243   6.564  17.663  0.00  0.00    +0.000 S 
ATOM      4  O   UNL     1       7.212   7.689  16.755  0.00  0.00    +0.000 OA
ATOM      5  O   UNL     1       8.176   6.530  18.776  0.00  0.00    +0.000 OA
BRANCH   3  10
ATOM      6  C   UNL     1       1.713   5.862  20.070  0.00  0.00    +0.000 C 
ATOM      7  C   UNL     1       3.076   6.016  19.460  0.00  0.00    +0.000 A 
ATOM      8  C   UNL     1       4.155   5.251  19.920  0.00  0.00    +0.000 A 
ATOM      9  C   UNL     1       5.422   5.401  19.354  0.00  0.00    +0.000 A 
ATOM     10  C   UNL     1       5.611   6.314  18.314  0.00  0.00    +0.000 A 
ATOM     11  C   UNL     1       4.549   7.097  17.856  0.00  0.00    +0.000 A 
ATOM     12  C   UNL     1       3.282   6.943  18.427  0.00  0.00    +0.000 A 
ENDBRANCH   3  10
ENDBRANCH   1   3
BRANCH   1  13
ATOM     13  N   UNL     1       7.358   5.087  15.359  0.00  0.00    +0.000 NA
ATOM     14  C   UNL     1       6.170   4.826  14.910  0.00  0.00    +0.000 C 
BRANCH  14  15
ATOM     15  C   UNL     1       4.960   4.473  15.692  0.00  0.00    +0.000 C 
ATOM     16  C   UNL     1       4.885   3.352  16.425  0.00  0.00    +0.000 C 
BRANCH  16  17
ATOM     17  C   UNL     1       3.684   3.011  17.214  0.00  0.00    +0.000 A 
ATOM     18  C   UNL     1       2.477   3.671  16.955  0.00  0.00    +0.000 A 
ATOM     19  C   UNL     1       1.330   3.380  17.703  0.00  0.00    +0.000 A 
ATOM     20  C   UNL     1       1.372   2.417  18.709  0.00  0.00    +0.000 A 
ATOM     21  C   UNL     1       2.557   1.733  18.960  0.00  0.00    +0.000 A 
ATOM     22  C   UNL     1       3.701   2.019  18.210  0.00  0.00    +0.000 A 
ENDBRANCH  16  17
ENDBRANCH  14  15
ENDBRANCH   1  13
TORSDOF 5
ENDMDL
