MODEL 1
REMARK VINA RESULT:      -7.3      0.000      0.000
REMARK  Name = 
REMARK  3 active torsions:
REMARK  status: ('A' for Active; 'I' for Inactive)
REMARK    1  A    between atoms: C_1  and  C_2
REMARK    2  A    between atoms: C_7  and  C_8
REMARK    3  A    between atoms: C_12  and  C_13
REMARK                            x       y       z     vdW  Elec       q    Type
REMARK                         _______ _______ _______ _____ _____    ______ ____
ROOT
ATOM      1  C   UNL     1       1.903   7.033  20.043  0.00  0.00    +0.000 C 
ATOM      2  O   UNL     1       2.061   6.102  20.831  0.00  0.00    +0.000 OA
ATOM      3  N   UNL     1       2.225   6.947  18.700  0.00  0.00    +0.000 N 
ATOM      4  C   UNL     1       2.723   5.767  18.009  0.00  0.00    +0.000 C 
ATOM      5  C   UNL     1       3.882   6.624  17.473  0.00  0.00    +0.000 C 
ATOM      6  C   UNL     1       3.129   7.863  18.000  0.00  0.00    +0.000 C 
ENDROOT
BRANCH   1  13
ATOM      7  C   UNL     1      -1.798  12.616  23.186  0.00  0.00    +0.000 C 
ATOM      8  C   UNL     1      -1.103  11.715  22.211  0.00  0.00    +0.000 A 
ATOM      9  C   UNL     1      -1.207  12.022  20.784  0.00  0.00    +0.000 A 
ATOM     10  C   UNL     1      -0.602  11.264  19.849  0.00  0.00    +0.000 A 
ATOM     11  C   UNL     1       0.151  10.126  20.242  0.00  0.00    +0.000 A 
ATOM     12  N   UNL     1       0.788   9.227  19.526  0.00  0.00    +0.000 NA
ATOM     13  C   UNL     1       1.265   8.296  20.435  0.00  0.00    +0.000 A 
ATOM     14  C   UNL     1       0.962   8.697  21.727  0.00  0.00    +0.000 A 
ATOM     15  N   UNL     1       0.226   9.849  21.602  0.00  0.00    +0.000 N 
ATOM     16  C   UNL     1      -0.389  10.632  22.579  0.00  0.00    +0.000 A 
ENDBRANCH   1  13
BRANCH   5  17
ATOM     17  C   UNL     1       5.346   6.303  18.012  0.00  0.00    +0.000 A 
ATOM     18  C   UNL     1       6.515   6.846  17.455  0.00  0.00    +0.000 A 
ATOM     19  C   UNL     1       7.775   6.540  17.967  0.00  0.00    +0.000 A 
ATOM     20  C   UNL     1       7.851   5.683  19.046  0.00  0.00    +0.000 A 
ATOM     21  N   UNL     1       6.770   5.137  19.638  0.00  0.00    +0.000 NA
ATOM     22  C   UNL     1       5.563   5.463  19.111  0.00  0.00    +0.000 A 
ENDBRANCH   5  17
TORSDOF 2
ENDMDL
MODEL 2
REMARK VINA RESULT:      -7.2      2.531      3.482
REMARK  Name = 
REMARK  3 active torsions:
REMARK  status: ('A' for Active; 'I' for Inactive)
REMARK    1  A    between atoms: C_1  and  C_2
REMARK    2  A    between atoms: C_7  and  C_8
REMARK    3  A    between atoms: C_12  and  C_13
REMARK                            x       y       z     vdW  Elec       q    Type
REMARK                         _______ _______ _______ _____ _____    ______ ____
ROOT
ATOM      1  C   UNL     1       3.975   5.642  19.257  0.00  0.00    +0.000 C 
ATOM      2  O   UNL     1       5.101   5.782  19.729  0.00  0.00    +0.000 OA
ATOM      3  N   UNL     1       3.605   4.545  18.500  0.00  0.00    +0.000 N 
ATOM      4  C   UNL     1       4.434   3.387  18.202  0.00  0.00    +0.000 C 
ATOM      5  C   UNL     1       4.112   3.595  16.712  0.00  0.00    +0.000 C 
ATOM      6  C   UNL     1       3.042   4.617  17.150  0.00  0.00    +0.000 C 
ENDROOT
BRANCH   1  13
ATOM      7  C   UNL     1      -0.660  11.368  19.955  0.00  0.00    +0.000 C 
ATOM      8  C   UNL     1       0.068  10.071  20.141  0.00  0.00    +0.000 A 
ATOM      9  C   UNL     1      -0.203   9.289  21.348  0.00  0.00    +0.000 A 
ATOM     10  C   UNL     1       0.406   8.109  21.579  0.00  0.00    +0.000 A 
ATOM     11  C   UNL     1       1.346   7.605  20.643  0.00  0.00    +0.000 A 
ATOM     12  N   UNL     1       2.085   6.518  20.667  0.00  0.00    +0.000 NA
ATOM     13  C   UNL     1       2.883   6.584  19.536  0.00  0.00    +0.000 A 
ATOM     14  C   UNL     1       2.554   7.705  18.789  0.00  0.00    +0.000 A 
ATOM     15  N   UNL     1       1.595   8.371  19.512  0.00  0.00    +0.000 N 
ATOM     16  C   UNL     1       0.964   9.588  19.257  0.00  0.00    +0.000 A 
ENDBRANCH   1  13
BRANCH   5  17
ATOM     17  C   UNL     1       5.301   4.057  15.759  0.00  0.00    +0.000 A 
ATOM     18  C   UNL     1       5.376   3.727  14.396  0.00  0.00    +0.000 A 
ATOM     19  C   UNL     1       6.435   4.161  13.600  0.00  0.00    +0.000 A 
ATOM     20  C   UNL     1       7.419   4.933  14.186  0.00  0.00    +0.000 A 
ATOM     21  N   UNL     1       7.402   5.298  15.483  0.00  0.00    +0.000 NA
ATOM     22  C   UNL     1       6.353   4.857  16.221  0.00  0.00    +0.000 A 
ENDBRANCH   5  17
TORSDOF 2
ENDMDL
MODEL 3
REMARK VINA RESULT:      -7.1      4.734      9.120
REMARK  Name = 
REMARK  3 active torsions:
REMARK  status: ('A' for Active; 'I' for Inactive)
REMARK    1  A    between atoms: C_1  and  C_2
REMARK    2  A    between atoms: C_7  and  C_8
REMARK    3  A    between atoms: C_12  and  C_13
REMARK                            x       y       z     vdW  Elec       q    Type
REMARK                         _______ _______ _______ _____ _____    ______ ____
ROOT
ATOM      1  C   UNL     1       5.715   4.924  17.793  0.00  0.00    +0.000 C 
ATOM      2  O   UNL     1       6.406   4.388  18.657  0.00  0.00    +0.000 OA
ATOM      3  N   UNL     1       4.689   5.804  18.086  0.00  0.00    +0.000 N 
ATOM      4  C   UNL     1       4.314   6.277  19.410  0.00  0.00    +0.000 C 
ATOM      5  C   UNL     1       2.868   5.852  19.104  0.00  0.00    +0.000 C 
ATOM      6  C   UNL     1       3.304   5.648  17.638  0.00  0.00    +0.000 C 
ENDROOT
BRANCH   1  13
ATOM      7  C   UNL     1       6.873   2.615  10.859  0.00  0.00    +0.000 C 
ATOM      8  C   UNL     1       6.852   3.410  12.129  0.00  0.00    +0.000 A 
ATOM      9  C   UNL     1       7.681   4.612  12.211  0.00  0.00    +0.000 A 
ATOM     10  C   UNL     1       7.707   5.382  13.317  0.00  0.00    +0.000 A 
ATOM     11  C   UNL     1       6.923   5.024  14.445  0.00  0.00    +0.000 A 
ATOM     12  N   UNL     1       6.814   5.583  15.629  0.00  0.00    +0.000 NA
ATOM     13  C   UNL     1       5.978   4.752  16.358  0.00  0.00    +0.000 A 
ATOM     14  C   UNL     1       5.526   3.714  15.558  0.00  0.00    +0.000 A 
ATOM     15  N   UNL     1       6.153   3.872  14.347  0.00  0.00    +0.000 N 
ATOM     16  C   UNL     1       6.111   3.072  13.205  0.00  0.00    +0.000 A 
ENDBRANCH   1  13
BRANCH   5  17
ATOM     17  C   UNL     1       2.271   4.627  19.927  0.00  0.00    +0.000 A 
ATOM     18  C   UNL     1       1.409   3.667  19.373  0.00  0.00    +0.000 A 
ATOM     19  C   UNL     1       0.916   2.606  20.132  0.00  0.00    +0.000 A 
ATOM     20  C   UNL     1       1.299   2.518  21.456  0.00  0.00    +0.000 A 
ATOM     21  N   UNL     1       2.133   3.396  22.048  0.00  0.00    +0.000 NA
ATOM     22  C   UNL     1       2.592   4.411  21.272  0.00  0.00    +0.000 A 
ENDBRANCH   5  17
TORSDOF 2
ENDMDL
MODEL 4
REMARK VINA RESULT:      -7.1      5.046      6.352
REMARK  Name = 
REMARK  3 active torsions:
REMARK  status: ('A' for Active; 'I' for Inactive)
REMARK    1  A    between atoms: C_1  and  C_2
REMARK    2  A    between atoms: C_7  and  C_8
REMARK    3  A    between atoms: C_12  and  C_13
REMARK                            x       y       z     vdW  Elec       q    Type
REMARK                         _______ _______ _______ _____ _____    ______ ____
ROOT
ATOM      1  C   UNL     1       4.562   6.138  17.271  0.00  0.00    +0.000 C 
ATOM      2  O   UNL     1       4.227   7.103  16.586  0.00  0.00    +0.000 OA
ATOM      3  N   UNL     1       5.866   5.681  17.345  0.00  0.00    +0.000 N 
ATOM      4  C   UNL     1       7.025   6.283  16.703  0.00  0.00    +0.000 C 
ATOM      5  C   UNL     1       7.357   4.903  16.109  0.00  0.00    +0.000 C 
ATOM      6  C   UNL     1       6.286   4.310  17.048  0.00  0.00    +0.000 C 
ENDROOT
BRANCH   1  13
ATOM      7  C   UNL     1       1.026   2.344  22.548  0.00  0.00    +0.000 C 
ATOM      8  C   UNL     1       1.417   2.994  21.256  0.00  0.00    +0.000 A 
ATOM      9  C   UNL     1       0.638   2.681  20.058  0.00  0.00    +0.000 A 
ATOM     10  C   UNL     1       0.923   3.233  18.862  0.00  0.00    +0.000 A 
ATOM     11  C   UNL     1       2.012   4.136  18.743  0.00  0.00    +0.000 A 
ATOM     12  N   UNL     1       2.501   4.760  17.695  0.00  0.00    +0.000 NA
ATOM     13  C   UNL     1       3.621   5.436  18.153  0.00  0.00    +0.000 A 
ATOM     14  C   UNL     1       3.753   5.262  19.523  0.00  0.00    +0.000 A 
ATOM     15  N   UNL     1       2.743   4.408  19.893  0.00  0.00    +0.000 N 
ATOM     16  C   UNL     1       2.452   3.850  21.137  0.00  0.00    +0.000 A 
ENDBRANCH   1  13
BRANCH   5  17
ATOM     17  C   UNL     1       7.211   4.725  14.534  0.00  0.00    +0.000 A 
ATOM     18  C   UNL     1       7.954   5.462  13.597  0.00  0.00    +0.000 A 
ATOM     19  C   UNL     1       7.796   5.265  12.226  0.00  0.00    +0.000 A 
ATOM     20  C   UNL     1       6.884   4.319  11.803  0.00  0.00    +0.000 A 
ATOM     21  N   UNL     1       6.148   3.568  12.647  0.00  0.00    +0.000 NA
ATOM     22  C   UNL     1       6.335   3.789  13.972  0.00  0.00    +0.000 A 
ENDBRANCH   5  17
TORSDOF 2
ENDMDL
MODEL 5
REMARK VINA RESULT:      -7.1      5.019      6.392
REMARK  Name = 
REMARK  3 active torsions:
REMARK  status: ('A' for Active; 'I' for Inactive)
REMARK    1  A    between atoms: C_1  and  C_2
REMARK    2  A    between atoms: C_7  and  C_8
REMARK    3  A    between atoms: C_12  and  C_13
REMARK                            x       y       z     vdW  Elec       q    Type
REMARK                         _______ _______ _______ _____ _____    ______ ____
ROOT
ATOM      1  C   UNL     1       4.521   6.128  17.315  0.00  0.00    +0.000 C 
ATOM      2  O   UNL     1       4.182   7.087  16.624  0.00  0.00    +0.000 OA
ATOM      3  N   UNL     1       5.828   5.685  17.400  0.00  0.00    +0.000 N 
ATOM      4  C   UNL     1       6.986   6.296  16.765  0.00  0.00    +0.000 C 
ATOM      5  C   UNL     1       7.337   4.918  16.179  0.00  0.00    +0.000 C 
ATOM      6  C   UNL     1       6.265   4.317  17.111  0.00  0.00    +0.000 C 
ENDROOT
BRANCH   1  13
ATOM      7  C   UNL     1       0.980   2.330  22.586  0.00  0.00    +0.000 C 
ATOM      8  C   UNL     1       1.377   2.972  21.291  0.00  0.00    +0.000 A 
ATOM      9  C   UNL     1       0.619   2.633  20.086  0.00  0.00    +0.000 A 
ATOM     10  C   UNL     1       0.911   3.178  18.889  0.00  0.00    +0.000 A 
ATOM     11  C   UNL     1       1.986   4.098  18.775  0.00  0.00    +0.000 A 
ATOM     12  N   UNL     1       2.478   4.719  17.727  0.00  0.00    +0.000 NA
ATOM     13  C   UNL     1       3.581   5.420  18.192  0.00  0.00    +0.000 A 
ATOM     14  C   UNL     1       3.696   5.262  19.565  0.00  0.00    +0.000 A 
ATOM     15  N   UNL     1       2.697   4.395  19.931  0.00  0.00    +0.000 N 
ATOM     16  C   UNL     1       2.398   3.845  21.177  0.00  0.00    +0.000 A 
ENDBRANCH   1  13
BRANCH   5  17
ATOM     17  C   UNL     1       7.205   4.733  14.603  0.00  0.00    +0.000 A 
ATOM     18  C   UNL     1       6.326   3.818  14.000  0.00  0.00    +0.000 A 
ATOM     19  C   UNL     1       6.241   3.697  12.614  0.00  0.00    +0.000 A 
ATOM     20  C   UNL     1       7.047   4.505  11.836  0.00  0.00    +0.000 A 
ATOM     21  N   UNL     1       7.902   5.413  12.348  0.00  0.00    +0.000 NA
ATOM     22  C   UNL     1       7.951   5.501  13.701  0.00  0.00    +0.000 A 
ENDBRANCH   5  17
TORSDOF 2
ENDMDL
MODEL 6
REMARK VINA RESULT:      -7.0      0.818      1.358
REMARK  Name = 
REMARK  3 active torsions:
REMARK  status: ('A' for Active; 'I' for Inactive)
REMARK    1  A    between atoms: C_1  and  C_2
REMARK    2  A    between atoms: C_7  and  C_8
REMARK    3  A    between atoms: C_12  and  C_13
REMARK                            x       y       z     vdW  Elec       q    Type
REMARK                         _______ _______ _______ _____ _____    ______ ____
ROOT
ATOM      1  C   UNL     1       1.874   6.725  20.132  0.00  0.00    +0.000 C 
ATOM      2  O   UNL     1       2.099   5.786  20.892  0.00  0.00    +0.000 OA
ATOM      3  N   UNL     1       2.182   6.694  18.783  0.00  0.00    +0.000 N 
ATOM      4  C   UNL     1       2.739   5.565  18.055  0.00  0.00    +0.000 C 
ATOM      5  C   UNL     1       3.837   6.504  17.527  0.00  0.00    +0.000 C 
ATOM      6  C   UNL     1       3.019   7.681  18.097  0.00  0.00    +0.000 C 
ENDROOT
BRANCH   1  13
ATOM      7  C   UNL     1      -0.535  13.542  21.709  0.00  0.00    +0.000 C 
ATOM      8  C   UNL     1      -0.294  12.063  21.705  0.00  0.00    +0.000 A 
ATOM      9  C   UNL     1      -0.824  11.269  22.814  0.00  0.00    +0.000 A 
ATOM     10  C   UNL     1      -0.656   9.934  22.875  0.00  0.00    +0.000 A 
ATOM     11  C   UNL     1       0.063   9.266  21.848  0.00  0.00    +0.000 A 
ATOM     12  N   UNL     1       0.386   7.999  21.710  0.00  0.00    +0.000 NA
ATOM     13  C   UNL     1       1.167   7.937  20.566  0.00  0.00    +0.000 A 
ATOM     14  C   UNL     1       1.245   9.190  19.977  0.00  0.00    +0.000 A 
ATOM     15  N   UNL     1       0.566  10.042  20.812  0.00  0.00    +0.000 N 
ATOM     16  C   UNL     1       0.390  11.424  20.734  0.00  0.00    +0.000 A 
ENDBRANCH   1  13
BRANCH   5  17
ATOM     17  C   UNL     1       5.325   6.257  18.039  0.00  0.00    +0.000 A 
ATOM     18  C   UNL     1       6.457   6.834  17.442  0.00  0.00    +0.000 A 
ATOM     19  C   UNL     1       7.740   6.593  17.930  0.00  0.00    +0.000 A 
ATOM     20  C   UNL     1       7.876   5.767  19.028  0.00  0.00    +0.000 A 
ATOM     21  N   UNL     1       6.833   5.191  19.658  0.00  0.00    +0.000 NA
ATOM     22  C   UNL     1       5.602   5.454  19.152  0.00  0.00    +0.000 A 
ENDBRANCH   5  17
TORSDOF 2
ENDMDL
MODEL 7
REMARK VINA RESULT:      -7.0      2.687      9.058
REMARK  Name = 
REMARK  3 active torsions:
REMARK  status: ('A' for Active; 'I' for Inactive)
REMARK    1  A    between atoms: C_1  and  C_2
REMARK    2  A    between atoms: C_7  and  C_8
REMARK    3  A    between atoms: C_12  and  C_13
REMARK                            x       y       z     vdW  Elec       q    Type
REMARK                         _______ _______ _______ _____ _____    ______ ____
ROOT
ATOM      1  C   UNL     1      -0.214  10.882  22.438  0.00  0.00    +0.000 C 
ATOM      2  O   UNL     1      -0.254  10.490  23.603  0.00  0.00    +0.000 OA
ATOM      3  N   UNL     1      -0.573  12.163  22.060  0.00  0.00    +0.000 N 
ATOM      4  C   UNL     1      -0.979  13.240  22.950  0.00  0.00    +0.000 C 
ATOM      5  C   UNL     1      -2.233  13.427  22.081  0.00  0.00    +0.000 C 
ATOM      6  C   UNL     1      -1.585  12.480  21.049  0.00  0.00    +0.000 C 
ENDROOT
BRANCH   1  13
ATOM      7  C   UNL     1       3.314   6.128  17.998  0.00  0.00    +0.000 C 
ATOM      8  C   UNL     1       2.533   7.286  18.540  0.00  0.00    +0.000 A 
ATOM      9  C   UNL     1       2.226   8.399  17.641  0.00  0.00    +0.000 A 
ATOM     10  C   UNL     1       1.520   9.470  18.054  0.00  0.00    +0.000 A 
ATOM     11  C   UNL     1       1.064   9.540  19.397  0.00  0.00    +0.000 A 
ATOM     12  N   UNL     1       0.404  10.482  20.033  0.00  0.00    +0.000 NA
ATOM     13  C   UNL     1       0.313  10.051  21.347  0.00  0.00    +0.000 A 
ATOM     14  C   UNL     1       0.872   8.788  21.471  0.00  0.00    +0.000 A 
ATOM     15  N   UNL     1       1.378   8.476  20.234  0.00  0.00    +0.000 N 
ATOM     16  C   UNL     1       2.100   7.359  19.815  0.00  0.00    +0.000 A 
ENDBRANCH   1  13
BRANCH   5  17
ATOM     17  C   UNL     1      -3.639  13.047  22.725  0.00  0.00    +0.000 A 
ATOM     18  C   UNL     1      -4.868  13.235  22.072  0.00  0.00    +0.000 A 
ATOM     19  C   UNL     1      -6.074  12.880  22.675  0.00  0.00    +0.000 A 
ATOM     20  C   UNL     1      -6.034  12.333  23.942  0.00  0.00    +0.000 A 
ATOM     21  N   UNL     1      -4.890  12.113  24.620  0.00  0.00    +0.000 NA
ATOM     22  C   UNL     1      -3.740  12.470  23.996  0.00  0.00    +0.000 A 
ENDBRANCH   5  17
TORSDOF 2
ENDMDL
MODEL 8
REMARK VINA RESULT:      -7.0      2.345      8.075
REMARK  Name = 
REMARK  3 active torsions:
REMARK  status: ('A' for Active; 'I' for Inactive)
REMARK    1  A    between atoms: C_1  and  C_2
REMARK    2  A    between atoms: C_7  and  C_8
REMARK    3  A    between atoms: C_12  and  C_13
REMARK                            x       y       z     vdW  Elec       q    Type
REMARK                         _______ _______ _______ _____ _____    ______ ____
ROOT
ATOM      1  C   UNL     1       1.301   8.339  20.143  0.00  0.00    +0.000 C 
ATOM      2  O   UNL     1       0.549   8.093  21.084  0.00  0.00    +0.000 OA
ATOM      3  N   UNL     1       1.436   9.603  19.596  0.00  0.00    +0.000 N 
ATOM      4  C   UNL     1       0.788  10.817  20.067  0.00  0.00    +0.000 C 
ATOM      5  C   UNL     1       0.291  11.057  18.632  0.00  0.00    +0.000 C 
ATOM      6  C   UNL     1       1.237   9.924  18.181  0.00  0.00    +0.000 C 
ENDROOT
BRANCH   1  13
ATOM      7  C   UNL     1       5.541   3.936  15.973  0.00  0.00    +0.000 C 
ATOM      8  C   UNL     1       4.687   4.500  17.068  0.00  0.00    +0.000 A 
ATOM      9  C   UNL     1       4.242   3.602  18.135  0.00  0.00    +0.000 A 
ATOM     10  C   UNL     1       3.481   4.039  19.157  0.00  0.00    +0.000 A 
ATOM     11  C   UNL     1       3.082   5.401  19.209  0.00  0.00    +0.000 A 
ATOM     12  N   UNL     1       2.321   6.042  20.068  0.00  0.00    +0.000 NA
ATOM     13  C   UNL     1       2.201   7.330  19.570  0.00  0.00    +0.000 A 
ATOM     14  C   UNL     1       2.970   7.469  18.425  0.00  0.00    +0.000 A 
ATOM     15  N   UNL     1       3.508   6.230  18.179  0.00  0.00    +0.000 N 
ATOM     16  C   UNL     1       4.303   5.791  17.121  0.00  0.00    +0.000 A 
ENDBRANCH   1  13
BRANCH   5  17
ATOM     17  C   UNL     1      -1.274  10.930  18.365  0.00  0.00    +0.000 A 
ATOM     18  C   UNL     1      -1.848   9.913  17.586  0.00  0.00    +0.000 A 
ATOM     19  C   UNL     1      -3.226   9.840  17.385  0.00  0.00    +0.000 A 
ATOM     20  C   UNL     1      -4.024  10.799  17.976  0.00  0.00    +0.000 A 
ATOM     21  N   UNL     1      -3.541  11.795  18.746  0.00  0.00    +0.000 NA
ATOM     22  C   UNL     1      -2.195  11.827  18.918  0.00  0.00    +0.000 A 
ENDBRANCH   5  17
TORSDOF 2
ENDMDL
MODEL 9
REMARK VINA RESULT:      -6.9      1.075      1.239
REMARK  Name = 
REMARK  3 active torsions:
REMARK  status: ('A' for Active; 'I' for Inactive)
REMARK    1  A    between atoms: C_1  and  C_2
REMARK    2  A    between atoms: C_7  and  C_8
REMARK    3  A    between atoms: C_12  and  C_13
REMARK                            x       y       z     vdW  Elec       q    Type
REMARK                         _______ _______ _______ _____ _____    ______ ____
ROOT
ATOM      1  C   UNL     1       2.296   6.443  19.761  0.00  0.00    +0.000 C 
ATOM      2  O   UNL     1       2.429   5.505  20.545  0.00  0.00    +0.000 OA
ATOM      3  N   UNL     1       2.568   6.342  18.409  0.00  0.00    +0.000 N 
ATOM      4  C   UNL     1       2.978   5.137  17.703  0.00  0.00    +0.000 C 
ATOM      5  C   UNL     1       4.163   5.930  17.128  0.00  0.00    +0.000 C 
ATOM      6  C   UNL     1       3.496   7.208  17.679  0.00  0.00    +0.000 C 
ENDROOT
BRANCH   1  13
ATOM      7  C   UNL     1      -1.198  12.173  22.879  0.00  0.00    +0.000 C 
ATOM      8  C   UNL     1      -0.482  11.268  21.923  0.00  0.00    +0.000 A 
ATOM      9  C   UNL     1      -0.384  11.674  20.521  0.00  0.00    +0.000 A 
ATOM     10  C   UNL     1       0.252  10.917  19.606  0.00  0.00    +0.000 A 
ATOM     11  C   UNL     1       0.839   9.685  19.995  0.00  0.00    +0.000 A 
ATOM     12  N   UNL     1       1.467   8.771  19.289  0.00  0.00    +0.000 NA
ATOM     13  C   UNL     1       1.740   7.739  20.173  0.00  0.00    +0.000 A 
ATOM     14  C   UNL     1       1.325   8.087  21.450  0.00  0.00    +0.000 A 
ATOM     15  N   UNL     1       0.724   9.315  21.329  0.00  0.00    +0.000 N 
ATOM     16  C   UNL     1       0.075  10.095  22.287  0.00  0.00    +0.000 A 
ENDBRANCH   1  13
BRANCH   5  17
ATOM     17  C   UNL     1       5.624   5.530  17.619  0.00  0.00    +0.000 A 
ATOM     18  C   UNL     1       6.113   5.805  18.906  0.00  0.00    +0.000 A 
ATOM     19  C   UNL     1       7.398   5.428  19.293  0.00  0.00    +0.000 A 
ATOM     20  C   UNL     1       8.190   4.771  18.373  0.00  0.00    +0.000 A 
ATOM     21  N   UNL     1       7.781   4.463  17.126  0.00  0.00    +0.000 NA
ATOM     22  C   UNL     1       6.522   4.845  16.792  0.00  0.00    +0.000 A 
ENDBRANCH   5  17
TORSDOF 2
ENDMDL
