MODEL 1
REMARK VINA RESULT:      -8.9      0.000      0.000
REMARK  Name = 
REMARK  8 active torsions:
REMARK  status: ('A' for Active; 'I' for Inactive)
REMARK    1  A    between atoms: C_1  and  C_2
REMARK    2  A    between atoms: C_2  and  C_4
REMARK    3  A    between atoms: C_8  and  S_9
REMARK    4  A    between atoms: S_9  and  N_12
REMARK    5  A    between atoms: N_12  and  C_13
REMARK    6  A    between atoms: C_13  and  C_14
REMARK    7  A    between atoms: C_14  and  C_15
REMARK    8  A    between atoms: C_20  and  C_21
REMARK                            x       y       z     vdW  Elec       q    Type
REMARK                         _______ _______ _______ _____ _____    ______ ____
ROOT
ATOM      1  C   UNL     1       3.037   2.850  17.443  0.00  0.00    +0.000 C 
ENDROOT
BRANCH   1   2
ATOM      2  C   UNL     1       2.607   3.380  18.793  0.00  0.00    +0.000 A 
ATOM      3  C   UNL     1       2.433   2.627  19.904  0.00  0.00    +0.000 A 
ATOM      4  S   UNL     1       2.017   3.535  21.345  0.00  0.00    +0.000 S 
ATOM      5  C   UNL     1       2.080   4.966  20.390  0.00  0.00    +0.000 A 
ATOM      6  N   UNL     1       1.880   6.216  20.648  0.00  0.00    +0.000 NA
ATOM      7  C   UNL     1       2.046   6.791  19.402  0.00  0.00    +0.000 A 
ATOM      8  N   UNL     1       2.374   5.919  18.414  0.00  0.00    +0.000 NA
ATOM      9  N   UNL     1       2.387   4.732  19.077  0.00  0.00    +0.000 N 
BRANCH   7  10
ATOM     10  C   UNL     1       1.786   8.228  19.265  0.00  0.00    +0.000 A 
ATOM     11  C   UNL     1       1.186   8.913  20.346  0.00  0.00    +0.000 A 
ATOM     12  C   UNL     1       0.827  10.257  20.247  0.00  0.00    +0.000 A 
ATOM     13  C   UNL     1       1.072  10.934  19.065  0.00  0.00    +0.000 A 
ATOM     14  F   UNL     1       0.700  12.216  18.949  0.00  0.00    +0.000 F 
ATOM     15  C   UNL     1       1.689  10.297  17.991  0.00  0.00    +0.000 A 
ATOM     16  C   UNL     1       2.047   8.944  18.088  0.00  0.00    +0.000 A 
ENDBRANCH   7  10
ENDBRANCH   1   2
BRANCH   1  17
ATOM     17  C   UNL     1       4.490   3.265  17.125  0.00  0.00    +0.000 C 
BRANCH  17  18
ATOM     18  N   UNL     1       4.611   4.570  16.461  0.00  0.00    +0.000 NA
ATOM     19  H   UNL     1       4.042   4.726  15.629  0.00  0.00    +0.000 HD
BRANCH  18  20
ATOM     20  S   UNL     1       6.204   5.135  16.235  0.00  0.00    +0.000 S 
ATOM     21  O   UNL     1       7.101   4.291  16.992  0.00  0.00    +0.000 OA
ATOM     22  O   UNL     1       6.167   6.569  16.403  0.00  0.00    +0.000 OA
BRANCH  20  27
ATOM     23  C   UNL     1       6.010   3.596  12.461  0.00  0.00    +0.000 A 
ATOM     24  C   UNL     1       7.112   4.215  11.850  0.00  0.00    +0.000 A 
ATOM     25  C   UNL     1       7.911   5.112  12.560  0.00  0.00    +0.000 A 
ATOM     26  C   UNL     1       7.614   5.411  13.888  0.00  0.00    +0.000 A 
ATOM     27  C   UNL     1       6.508   4.812  14.501  0.00  0.00    +0.000 A 
ATOM     28  C   UNL     1       5.714   3.889  13.800  0.00  0.00    +0.000 A 
BRANCH  23  30
ATOM     29  C   UNL     1       3.886   3.102  11.069  0.00  0.00    +0.000 C 
ATOM     30  C   UNL     1       5.203   2.642  11.638  0.00  0.00    +0.000 C 
ATOM     31  O   UNL     1       5.628   1.510  11.420  0.00  0.00    +0.000 OA
ENDBRANCH  23  30
ENDBRANCH  20  27
ENDBRANCH  18  20
ENDBRANCH  17  18
ENDBRANCH   1  17
TORSDOF 7
ENDMDL
MODEL 2
REMARK VINA RESULT:      -8.6      0.602      1.116
REMARK  Name = 
REMARK  8 active torsions:
REMARK  status: ('A' for Active; 'I' for Inactive)
REMARK    1  A    between atoms: C_1  and  C_2
REMARK    2  A    between atoms: C_2  and  C_4
REMARK    3  A    between atoms: C_8  and  S_9
REMARK    4  A    between atoms: S_9  and  N_12
REMARK    5  A    between atoms: N_12  and  C_13
REMARK    6  A    between atoms: C_13  and  C_14
REMARK    7  A    between atoms: C_14  and  C_15
REMARK    8  A    between atoms: C_20  and  C_21
REMARK                            x       y       z     vdW  Elec       q    Type
REMARK                         _______ _______ _______ _____ _____    ______ ____
ROOT
ATOM      1  C   UNL     1       5.094   3.444  18.775  0.00  0.00    +0.000 C 
ENDROOT
BRANCH   1   2
ATOM      2  C   UNL     1       3.865   3.653  19.631  0.00  0.00    +0.000 A 
ATOM      3  C   UNL     1       3.302   2.713  20.426  0.00  0.00    +0.000 A 
ATOM      4  S   UNL     1       1.935   3.276  21.369  0.00  0.00    +0.000 S 
ATOM      5  C   UNL     1       2.147   4.823  20.644  0.00  0.00    +0.000 A 
ATOM      6  N   UNL     1       1.523   5.949  20.753  0.00  0.00    +0.000 NA
ATOM      7  C   UNL     1       2.200   6.736  19.841  0.00  0.00    +0.000 A 
ATOM      8  N   UNL     1       3.236   6.118  19.216  0.00  0.00    +0.000 NA
ATOM      9  N   UNL     1       3.183   4.869  19.750  0.00  0.00    +0.000 N 
BRANCH   7  10
ATOM     10  C   UNL     1       1.699   8.093  19.595  0.00  0.00    +0.000 A 
ATOM     11  C   UNL     1       1.919   8.675  18.326  0.00  0.00    +0.000 A 
ATOM     12  C   UNL     1       1.552   9.993  18.057  0.00  0.00    +0.000 A 
ATOM     13  C   UNL     1       0.954  10.744  19.055  0.00  0.00    +0.000 A 
ATOM     14  F   UNL     1       0.628  12.021  18.816  0.00  0.00    +0.000 F 
ATOM     15  C   UNL     1       0.696  10.191  20.307  0.00  0.00    +0.000 A 
ATOM     16  C   UNL     1       1.067   8.865  20.580  0.00  0.00    +0.000 A 
ENDBRANCH   7  10
ENDBRANCH   1   2
BRANCH   1  17
ATOM     17  C   UNL     1       4.711   3.281  17.288  0.00  0.00    +0.000 C 
BRANCH  17  18
ATOM     18  N   UNL     1       4.621   4.547  16.548  0.00  0.00    +0.000 NA
ATOM     19  H   UNL     1       4.028   4.562  15.718  0.00  0.00    +0.000 HD
BRANCH  18  20
ATOM     20  S   UNL     1       6.104   5.339  16.262  0.00  0.00    +0.000 S 
ATOM     21  O   UNL     1       7.121   4.715  17.079  0.00  0.00    +0.000 OA
ATOM     22  O   UNL     1       5.837   6.758  16.311  0.00  0.00    +0.000 OA
BRANCH  20  27
ATOM     23  C   UNL     1       5.992   3.647  12.551  0.00  0.00    +0.000 A 
ATOM     24  C   UNL     1       7.149   4.184  11.964  0.00  0.00    +0.000 A 
ATOM     25  C   UNL     1       7.961   5.072  12.671  0.00  0.00    +0.000 A 
ATOM     26  C   UNL     1       7.623   5.443  13.971  0.00  0.00    +0.000 A 
ATOM     27  C   UNL     1       6.464   4.925  14.559  0.00  0.00    +0.000 A 
ATOM     28  C   UNL     1       5.655   4.012  13.863  0.00  0.00    +0.000 A 
BRANCH  23  30
ATOM     29  C   UNL     1       3.861   3.170  11.164  0.00  0.00    +0.000 C 
ATOM     30  C   UNL     1       5.174   2.698  11.734  0.00  0.00    +0.000 C 
ATOM     31  O   UNL     1       5.585   1.561  11.520  0.00  0.00    +0.000 OA
ENDBRANCH  23  30
ENDBRANCH  20  27
ENDBRANCH  18  20
ENDBRANCH  17  18
ENDBRANCH   1  17
TORSDOF 7
ENDMDL
MODEL 3
REMARK VINA RESULT:      -8.3      0.927      1.385
REMARK  Name = 
REMARK  8 active torsions:
REMARK  status: ('A' for Active; 'I' for Inactive)
REMARK    1  A    between atoms: C_1  and  C_2
REMARK    2  A    between atoms: C_2  and  C_4
REMARK    3  A    between atoms: C_8  and  S_9
REMARK    4  A    between atoms: S_9  and  N_12
REMARK    5  A    between atoms: N_12  and  C_13
REMARK    6  A    between atoms: C_13  and  C_14
REMARK    7  A    between atoms: C_14  and  C_15
REMARK    8  A    between atoms: C_20  and  C_21
REMARK                            x       y       z     vdW  Elec       q    Type
REMARK                         _______ _______ _______ _____ _____    ______ ____
ROOT
ATOM      1  C   UNL     1       3.237   3.853  17.390  0.00  0.00    +0.000 C 
ENDROOT
BRANCH   1   2
ATOM      2  C   UNL     1       2.661   4.044  18.775  0.00  0.00    +0.000 A 
ATOM      3  C   UNL     1       2.489   3.059  19.689  0.00  0.00    +0.000 A 
ATOM      4  S   UNL     1       1.882   3.601  21.242  0.00  0.00    +0.000 S 
ATOM      5  C   UNL     1       1.861   5.201  20.609  0.00  0.00    +0.000 A 
ATOM      6  N   UNL     1       1.515   6.346  21.099  0.00  0.00    +0.000 NA
ATOM      7  C   UNL     1       1.706   7.185  20.017  0.00  0.00    +0.000 A 
ATOM      8  N   UNL     1       2.192   6.575  18.905  0.00  0.00    +0.000 NA
ATOM      9  N   UNL     1       2.282   5.280  19.309  0.00  0.00    +0.000 N 
BRANCH   7  10
ATOM     10  C   UNL     1       1.307   8.590  20.155  0.00  0.00    +0.000 A 
ATOM     11  C   UNL     1       1.374   9.426  19.017  0.00  0.00    +0.000 A 
ATOM     12  C   UNL     1       1.099  10.791  19.100  0.00  0.00    +0.000 A 
ATOM     13  C   UNL     1       0.747  11.334  20.324  0.00  0.00    +0.000 A 
ATOM     14  F   UNL     1       0.513  12.650  20.419  0.00  0.00    +0.000 F 
ATOM     15  C   UNL     1       0.642  10.533  21.458  0.00  0.00    +0.000 A 
ATOM     16  C   UNL     1       0.922   9.159  21.376  0.00  0.00    +0.000 A 
ENDBRANCH   7  10
ENDBRANCH   1   2
BRANCH   1  17
ATOM     17  C   UNL     1       4.535   4.671  17.215  0.00  0.00    +0.000 C 
BRANCH  17  18
ATOM     18  N   UNL     1       5.638   3.923  16.596  0.00  0.00    +0.000 NA
ATOM     19  H   UNL     1       5.928   3.056  17.049  0.00  0.00    +0.000 HD
BRANCH  18  20
ATOM     20  S   UNL     1       6.986   4.855  16.127  0.00  0.00    +0.000 S 
ATOM     21  O   UNL     1       8.183   4.211  16.621  0.00  0.00    +0.000 OA
ATOM     22  O   UNL     1       6.670   6.232  16.431  0.00  0.00    +0.000 OA
BRANCH  20  27
ATOM     23  C   UNL     1       6.310   3.530  12.328  0.00  0.00    +0.000 A 
ATOM     24  C   UNL     1       7.154   4.369  11.585  0.00  0.00    +0.000 A 
ATOM     25  C   UNL     1       7.919   5.352  12.215  0.00  0.00    +0.000 A 
ATOM     26  C   UNL     1       7.843   5.515  13.597  0.00  0.00    +0.000 A 
ATOM     27  C   UNL     1       6.993   4.693  14.345  0.00  0.00    +0.000 A 
ATOM     28  C   UNL     1       6.238   3.686  13.720  0.00  0.00    +0.000 A 
BRANCH  23  30
ATOM     29  C   UNL     1       6.194   1.201  11.206  0.00  0.00    +0.000 C 
ATOM     30  C   UNL     1       5.524   2.497  11.584  0.00  0.00    +0.000 C 
ATOM     31  O   UNL     1       4.345   2.704  11.309  0.00  0.00    +0.000 OA
ENDBRANCH  23  30
ENDBRANCH  20  27
ENDBRANCH  18  20
ENDBRANCH  17  18
ENDBRANCH   1  17
TORSDOF 7
ENDMDL
MODEL 4
REMARK VINA RESULT:      -8.3      2.885      4.635
REMARK  Name = 
REMARK  8 active torsions:
REMARK  status: ('A' for Active; 'I' for Inactive)
REMARK    1  A    between atoms: C_1  and  C_2
REMARK    2  A    between atoms: C_2  and  C_4
REMARK    3  A    between atoms: C_8  and  S_9
REMARK    4  A    between atoms: S_9  and  N_12
REMARK    5  A    between atoms: N_12  and  C_13
REMARK    6  A    between atoms: C_13  and  C_14
REMARK    7  A    between atoms: C_14  and  C_15
REMARK    8  A    between atoms: C_20  and  C_21
REMARK                            x       y       z     vdW  Elec       q    Type
REMARK                         _______ _______ _______ _____ _____    ______ ____
ROOT
ATOM      1  C   UNL     1       2.422   5.605  20.498  0.00  0.00    +0.000 C 
ENDROOT
BRANCH   1   2
ATOM      2  C   UNL     1       2.330   6.854  19.652  0.00  0.00    +0.000 A 
ATOM      3  C   UNL     1       2.851   6.993  18.410  0.00  0.00    +0.000 A 
ATOM      4  S   UNL     1       2.505   8.529  17.639  0.00  0.00    +0.000 S 
ATOM      5  C   UNL     1       1.639   8.979  19.057  0.00  0.00    +0.000 A 
ATOM      6  N   UNL     1       1.000  10.046  19.408  0.00  0.00    +0.000 NA
ATOM      7  C   UNL     1       0.606   9.729  20.694  0.00  0.00    +0.000 A 
ATOM      8  N   UNL     1       0.964   8.486  21.107  0.00  0.00    +0.000 NA
ATOM      9  N   UNL     1       1.641   8.014  20.027  0.00  0.00    +0.000 N 
BRANCH   7  10
ATOM     10  C   UNL     1      -0.073  10.764  21.482  0.00  0.00    +0.000 A 
ATOM     11  C   UNL     1       0.214  12.120  21.208  0.00  0.00    +0.000 A 
ATOM     12  C   UNL     1      -0.325  13.148  21.981  0.00  0.00    +0.000 A 
ATOM     13  C   UNL     1      -1.164  12.830  23.035  0.00  0.00    +0.000 A 
ATOM     14  F   UNL     1      -1.659  13.810  23.803  0.00  0.00    +0.000 F 
ATOM     15  C   UNL     1      -1.491  11.505  23.314  0.00  0.00    +0.000 A 
ATOM     16  C   UNL     1      -0.947  10.469  22.538  0.00  0.00    +0.000 A 
ENDBRANCH   7  10
ENDBRANCH   1   2
BRANCH   1  17
ATOM     17  C   UNL     1       1.594   4.458  19.881  0.00  0.00    +0.000 C 
BRANCH  17  18
ATOM     18  N   UNL     1       2.116   3.959  18.602  0.00  0.00    +0.000 NA
ATOM     19  H   UNL     1       1.436   3.626  17.918  0.00  0.00    +0.000 HD
BRANCH  18  20
ATOM     20  S   UNL     1       3.449   2.902  18.713  0.00  0.00    +0.000 S 
ATOM     21  O   UNL     1       3.276   1.843  17.744  0.00  0.00    +0.000 OA
ATOM     22  O   UNL     1       3.656   2.635  20.118  0.00  0.00    +0.000 OA
BRANCH  20  27
ATOM     23  C   UNL     1       6.316   4.655  16.400  0.00  0.00    +0.000 A 
ATOM     24  C   UNL     1       7.050   5.370  17.359  0.00  0.00    +0.000 A 
ATOM     25  C   UNL     1       6.680   5.346  18.705  0.00  0.00    +0.000 A 
ATOM     26  C   UNL     1       5.564   4.616  19.108  0.00  0.00    +0.000 A 
ATOM     27  C   UNL     1       4.817   3.912  18.158  0.00  0.00    +0.000 A 
ATOM     28  C   UNL     1       5.198   3.911  16.805  0.00  0.00    +0.000 A 
BRANCH  23  30
ATOM     29  C   UNL     1       6.026   3.943  13.929  0.00  0.00    +0.000 C 
ATOM     30  C   UNL     1       6.776   4.723  14.978  0.00  0.00    +0.000 C 
ATOM     31  O   UNL     1       7.738   5.425  14.678  0.00  0.00    +0.000 OA
ENDBRANCH  23  30
ENDBRANCH  20  27
ENDBRANCH  18  20
ENDBRANCH  17  18
ENDBRANCH   1  17
TORSDOF 7
ENDMDL
MODEL 5
REMARK VINA RESULT:      -8.3      3.444      5.492
REMARK  Name = 
REMARK  8 active torsions:
REMARK  status: ('A' for Active; 'I' for Inactive)
REMARK    1  A    between atoms: C_1  and  C_2
REMARK    2  A    between atoms: C_2  and  C_4
REMARK    3  A    between atoms: C_8  and  S_9
REMARK    4  A    between atoms: S_9  and  N_12
REMARK    5  A    between atoms: N_12  and  C_13
REMARK    6  A    between atoms: C_13  and  C_14
REMARK    7  A    between atoms: C_14  and  C_15
REMARK    8  A    between atoms: C_20  and  C_21
REMARK                            x       y       z     vdW  Elec       q    Type
REMARK                         _______ _______ _______ _____ _____    ______ ____
ROOT
ATOM      1  C   UNL     1       2.530   5.792  20.677  0.00  0.00    +0.000 C 
ENDROOT
BRANCH   1   2
ATOM      2  C   UNL     1       2.317   6.980  19.766  0.00  0.00    +0.000 A 
ATOM      3  C   UNL     1       2.858   7.122  18.534  0.00  0.00    +0.000 A 
ATOM      4  S   UNL     1       2.357   8.567  17.676  0.00  0.00    +0.000 S 
ATOM      5  C   UNL     1       1.396   8.974  19.046  0.00  0.00    +0.000 A 
ATOM      6  N   UNL     1       0.622   9.971  19.324  0.00  0.00    +0.000 NA
ATOM      7  C   UNL     1       0.226   9.669  20.613  0.00  0.00    +0.000 A 
ATOM      8  N   UNL     1       0.716   8.499  21.099  0.00  0.00    +0.000 NA
ATOM      9  N   UNL     1       1.481   8.063  20.063  0.00  0.00    +0.000 N 
BRANCH   7  10
ATOM     10  C   UNL     1      -0.598  10.649  21.329  0.00  0.00    +0.000 A 
ATOM     11  C   UNL     1      -1.143  11.733  20.603  0.00  0.00    +0.000 A 
ATOM     12  C   UNL     1      -1.857  12.749  21.240  0.00  0.00    +0.000 A 
ATOM     13  C   UNL     1      -2.040  12.687  22.611  0.00  0.00    +0.000 A 
ATOM     14  F   UNL     1      -2.695  13.675  23.234  0.00  0.00    +0.000 F 
ATOM     15  C   UNL     1      -1.542  11.617  23.351  0.00  0.00    +0.000 A 
ATOM     16  C   UNL     1      -0.821  10.596  22.712  0.00  0.00    +0.000 A 
ENDBRANCH   7  10
ENDBRANCH   1   2
BRANCH   1  17
ATOM     17  C   UNL     1       1.404   4.750  20.499  0.00  0.00    +0.000 C 
BRANCH  17  18
ATOM     18  N   UNL     1       1.549   3.907  19.305  0.00  0.00    +0.000 NA
ATOM     19  H   UNL     1       0.704   3.469  18.937  0.00  0.00    +0.000 HD
BRANCH  18  20
ATOM     20  S   UNL     1       2.852   2.808  19.334  0.00  0.00    +0.000 S 
ATOM     21  O   UNL     1       2.494   1.652  18.542  0.00  0.00    +0.000 OA
ATOM     22  O   UNL     1       3.277   2.698  20.710  0.00  0.00    +0.000 OA
BRANCH  20  27
ATOM     23  C   UNL     1       6.156   5.029  18.444  0.00  0.00    +0.000 A 
ATOM     24  C   UNL     1       6.036   5.164  17.052  0.00  0.00    +0.000 A 
ATOM     25  C   UNL     1       4.972   4.575  16.367  0.00  0.00    +0.000 A 
ATOM     26  C   UNL     1       4.020   3.834  17.063  0.00  0.00    +0.000 A 
ATOM     27  C   UNL     1       4.140   3.680  18.449  0.00  0.00    +0.000 A 
ATOM     28  C   UNL     1       5.194   4.291  19.149  0.00  0.00    +0.000 A 
BRANCH  23  30
ATOM     29  C   UNL     1       7.970   6.874  18.438  0.00  0.00    +0.000 C 
ATOM     30  C   UNL     1       7.320   5.693  19.110  0.00  0.00    +0.000 C 
ATOM     31  O   UNL     1       7.718   5.285  20.199  0.00  0.00    +0.000 OA
ENDBRANCH  23  30
ENDBRANCH  20  27
ENDBRANCH  18  20
ENDBRANCH  17  18
ENDBRANCH   1  17
TORSDOF 7
ENDMDL
MODEL 6
REMARK VINA RESULT:      -8.2      3.012      4.924
REMARK  Name = 
REMARK  8 active torsions:
REMARK  status: ('A' for Active; 'I' for Inactive)
REMARK    1  A    between atoms: C_1  and  C_2
REMARK    2  A    between atoms: C_2  and  C_4
REMARK    3  A    between atoms: C_8  and  S_9
REMARK    4  A    between atoms: S_9  and  N_12
REMARK    5  A    between atoms: N_12  and  C_13
REMARK    6  A    between atoms: C_13  and  C_14
REMARK    7  A    between atoms: C_14  and  C_15
REMARK    8  A    between atoms: C_20  and  C_21
REMARK                            x       y       z     vdW  Elec       q    Type
REMARK                         _______ _______ _______ _____ _____    ______ ____
ROOT
ATOM      1  C   UNL     1       2.130   5.702  20.848  0.00  0.00    +0.000 C 
ENDROOT
BRANCH   1   2
ATOM      2  C   UNL     1       2.101   6.900  19.927  0.00  0.00    +0.000 A 
ATOM      3  C   UNL     1       2.751   6.987  18.742  0.00  0.00    +0.000 A 
ATOM      4  S   UNL     1       2.456   8.469  17.853  0.00  0.00    +0.000 S 
ATOM      5  C   UNL     1       1.431   8.969  19.142  0.00  0.00    +0.000 A 
ATOM      6  N   UNL     1       0.733  10.034  19.360  0.00  0.00    +0.000 NA
ATOM      7  C   UNL     1       0.209   9.776  20.612  0.00  0.00    +0.000 A 
ATOM      8  N   UNL     1       0.548   8.568  21.132  0.00  0.00    +0.000 NA
ATOM      9  N   UNL     1       1.350   8.058  20.160  0.00  0.00    +0.000 N 
BRANCH   7  10
ATOM     10  C   UNL     1      -0.575  10.832  21.264  0.00  0.00    +0.000 A 
ATOM     11  C   UNL     1      -0.849  10.716  22.645  0.00  0.00    +0.000 A 
ATOM     12  C   UNL     1      -1.665  11.635  23.304  0.00  0.00    +0.000 A 
ATOM     13  C   UNL     1      -2.213  12.686  22.588  0.00  0.00    +0.000 A 
ATOM     14  F   UNL     1      -3.025  13.553  23.206  0.00  0.00    +0.000 F 
ATOM     15  C   UNL     1      -1.938  12.846  21.232  0.00  0.00    +0.000 A 
ATOM     16  C   UNL     1      -1.119  11.920  20.567  0.00  0.00    +0.000 A 
ENDBRANCH   7  10
ENDBRANCH   1   2
BRANCH   1  17
ATOM     17  C   UNL     1       1.311   4.533  20.259  0.00  0.00    +0.000 C 
BRANCH  17  18
ATOM     18  N   UNL     1       2.048   3.266  20.170  0.00  0.00    +0.000 NA
ATOM     19  H   UNL     1       2.828   3.133  20.813  0.00  0.00    +0.000 HD
BRANCH  18  20
ATOM     20  S   UNL     1       2.455   2.761  18.593  0.00  0.00    +0.000 S 
ATOM     21  O   UNL     1       1.410   3.191  17.690  0.00  0.00    +0.000 OA
ATOM     22  O   UNL     1       2.872   1.381  18.689  0.00  0.00    +0.000 OA
BRANCH  20  27
ATOM     23  C   UNL     1       5.329   4.879  16.618  0.00  0.00    +0.000 A 
ATOM     24  C   UNL     1       6.268   5.096  17.639  0.00  0.00    +0.000 A 
ATOM     25  C   UNL     1       6.037   4.624  18.933  0.00  0.00    +0.000 A 
ATOM     26  C   UNL     1       4.860   3.938  19.225  0.00  0.00    +0.000 A 
ATOM     27  C   UNL     1       3.912   3.730  18.218  0.00  0.00    +0.000 A 
ATOM     28  C   UNL     1       4.148   4.181  16.908  0.00  0.00    +0.000 A 
BRANCH  23  30
ATOM     29  C   UNL     1       6.250   4.483  14.233  0.00  0.00    +0.000 C 
ATOM     30  C   UNL     1       5.647   5.410  15.256  0.00  0.00    +0.000 C 
ATOM     31  O   UNL     1       5.397   6.581  14.981  0.00  0.00    +0.000 OA
ENDBRANCH  23  30
ENDBRANCH  20  27
ENDBRANCH  18  20
ENDBRANCH  17  18
ENDBRANCH   1  17
TORSDOF 7
ENDMDL
MODEL 7
REMARK VINA RESULT:      -7.8      2.894      4.464
REMARK  Name = 
REMARK  8 active torsions:
REMARK  status: ('A' for Active; 'I' for Inactive)
REMARK    1  A    between atoms: C_1  and  C_2
REMARK    2  A    between atoms: C_2  and  C_4
REMARK    3  A    between atoms: C_8  and  S_9
REMARK    4  A    between atoms: S_9  and  N_12
REMARK    5  A    between atoms: N_12  and  C_13
REMARK    6  A    between atoms: C_13  and  C_14
REMARK    7  A    between atoms: C_14  and  C_15
REMARK    8  A    between atoms: C_20  and  C_21
REMARK                            x       y       z     vdW  Elec       q    Type
REMARK                         _______ _______ _______ _____ _____    ______ ____
ROOT
ATOM      1  C   UNL     1       1.930   5.471  20.256  0.00  0.00    +0.000 C 
ENDROOT
BRANCH   1   2
ATOM      2  C   UNL     1       2.054   6.782  19.513  0.00  0.00    +0.000 A 
ATOM      3  C   UNL     1       2.675   6.945  18.321  0.00  0.00    +0.000 A 
ATOM      4  S   UNL     1       2.579   8.567  17.661  0.00  0.00    +0.000 S 
ATOM      5  C   UNL     1       1.677   9.017  19.056  0.00  0.00    +0.000 A 
ATOM      6  N   UNL     1       1.151  10.128  19.454  0.00  0.00    +0.000 NA
ATOM      7  C   UNL     1       0.631   9.770  20.683  0.00  0.00    +0.000 A 
ATOM      8  N   UNL     1       0.801   8.463  21.013  0.00  0.00    +0.000 NA
ATOM      9  N   UNL     1       1.489   7.989  19.940  0.00  0.00    +0.000 N 
BRANCH   7  10
ATOM     10  C   UNL     1       0.031  10.822  21.512  0.00  0.00    +0.000 A 
ATOM     11  C   UNL     1      -0.853  10.444  22.548  0.00  0.00    +0.000 A 
ATOM     12  C   UNL     1      -1.528  11.397  23.311  0.00  0.00    +0.000 A 
ATOM     13  C   UNL     1      -1.319  12.740  23.051  0.00  0.00    +0.000 A 
ATOM     14  F   UNL     1      -1.989  13.661  23.757  0.00  0.00    +0.000 F 
ATOM     15  C   UNL     1      -0.431  13.146  22.057  0.00  0.00    +0.000 A 
ATOM     16  C   UNL     1       0.246  12.188  21.286  0.00  0.00    +0.000 A 
ENDBRANCH   7  10
ENDBRANCH   1   2
BRANCH   1  17
ATOM     17  C   UNL     1       3.239   4.659  20.165  0.00  0.00    +0.000 C 
BRANCH  17  18
ATOM     18  N   UNL     1       3.054   3.265  19.741  0.00  0.00    +0.000 NA
ATOM     19  H   UNL     1       3.554   2.547  20.265  0.00  0.00    +0.000 HD
BRANCH  18  20
ATOM     20  S   UNL     1       3.153   2.986  18.062  0.00  0.00    +0.000 S 
ATOM     21  O   UNL     1       2.070   3.694  17.416  0.00  0.00    +0.000 OA
ATOM     22  O   UNL     1       3.362   1.568  17.884  0.00  0.00    +0.000 OA
BRANCH  20  27
ATOM     23  C   UNL     1       6.288   4.474  15.917  0.00  0.00    +0.000 A 
ATOM     24  C   UNL     1       7.124   4.952  16.939  0.00  0.00    +0.000 A 
ATOM     25  C   UNL     1       6.745   4.848  18.278  0.00  0.00    +0.000 A 
ATOM     26  C   UNL     1       5.521   4.273  18.614  0.00  0.00    +0.000 A 
ATOM     27  C   UNL     1       4.674   3.809  17.602  0.00  0.00    +0.000 A 
ATOM     28  C   UNL     1       5.059   3.888  16.253  0.00  0.00    +0.000 A 
BRANCH  23  30
ATOM     29  C   UNL     1       6.055   3.854  13.416  0.00  0.00    +0.000 C 
ATOM     30  C   UNL     1       6.763   4.616  14.505  0.00  0.00    +0.000 C 
ATOM     31  O   UNL     1       7.704   5.363  14.247  0.00  0.00    +0.000 OA
ENDBRANCH  23  30
ENDBRANCH  20  27
ENDBRANCH  18  20
ENDBRANCH  17  18
ENDBRANCH   1  17
TORSDOF 7
ENDMDL
MODEL 8
REMARK VINA RESULT:      -7.8      3.443      5.525
REMARK  Name = 
REMARK  8 active torsions:
REMARK  status: ('A' for Active; 'I' for Inactive)
REMARK    1  A    between atoms: C_1  and  C_2
REMARK    2  A    between atoms: C_2  and  C_4
REMARK    3  A    between atoms: C_8  and  S_9
REMARK    4  A    between atoms: S_9  and  N_12
REMARK    5  A    between atoms: N_12  and  C_13
REMARK    6  A    between atoms: C_13  and  C_14
REMARK    7  A    between atoms: C_14  and  C_15
REMARK    8  A    between atoms: C_20  and  C_21
REMARK                            x       y       z     vdW  Elec       q    Type
REMARK                         _______ _______ _______ _____ _____    ______ ____
ROOT
ATOM      1  C   UNL     1       1.869   6.472  20.661  0.00  0.00    +0.000 C 
ENDROOT
BRANCH   1   2
ATOM      2  C   UNL     1       1.770   7.744  19.848  0.00  0.00    +0.000 A 
ATOM      3  C   UNL     1       2.236   7.900  18.587  0.00  0.00    +0.000 A 
ATOM      4  S   UNL     1       1.894   9.462  17.868  0.00  0.00    +0.000 S 
ATOM      5  C   UNL     1       1.106   9.898  19.335  0.00  0.00    +0.000 A 
ATOM      6  N   UNL     1       0.510  10.971  19.739  0.00  0.00    +0.000 NA
ATOM      7  C   UNL     1       0.168  10.633  21.034  0.00  0.00    +0.000 A 
ATOM      8  N   UNL     1       0.513   9.372  21.402  0.00  0.00    +0.000 NA
ATOM      9  N   UNL     1       1.128   8.910  20.282  0.00  0.00    +0.000 N 
BRANCH   7  10
ATOM     10  C   UNL     1      -0.448  11.665  21.877  0.00  0.00    +0.000 A 
ATOM     11  C   UNL     1      -1.521  11.297  22.719  0.00  0.00    +0.000 A 
ATOM     12  C   UNL     1      -2.211  12.245  23.475  0.00  0.00    +0.000 A 
ATOM     13  C   UNL     1      -1.827  13.574  23.402  0.00  0.00    +0.000 A 
ATOM     14  F   UNL     1      -2.505  14.495  24.098  0.00  0.00    +0.000 F 
ATOM     15  C   UNL     1      -0.754  13.965  22.605  0.00  0.00    +0.000 A 
ATOM     16  C   UNL     1      -0.062  13.012  21.842  0.00  0.00    +0.000 A 
ENDBRANCH   7  10
ENDBRANCH   1   2
BRANCH   1  17
ATOM     17  C   UNL     1       2.294   5.282  19.774  0.00  0.00    +0.000 C 
BRANCH  17  18
ATOM     18  N   UNL     1       3.208   4.338  20.431  0.00  0.00    +0.000 NA
ATOM     19  H   UNL     1       3.971   4.732  20.981  0.00  0.00    +0.000 HD
BRANCH  18  20
ATOM     20  S   UNL     1       3.750   3.044  19.462  0.00  0.00    +0.000 S 
ATOM     21  O   UNL     1       2.597   2.394  18.880  0.00  0.00    +0.000 OA
ATOM     22  O   UNL     1       4.732   2.323  20.239  0.00  0.00    +0.000 OA
BRANCH  20  27
ATOM     23  C   UNL     1       6.270   5.476  17.370  0.00  0.00    +0.000 A 
ATOM     24  C   UNL     1       5.849   5.246  16.051  0.00  0.00    +0.000 A 
ATOM     25  C   UNL     1       4.818   4.346  15.777  0.00  0.00    +0.000 A 
ATOM     26  C   UNL     1       4.200   3.656  16.818  0.00  0.00    +0.000 A 
ATOM     27  C   UNL     1       4.623   3.867  18.135  0.00  0.00    +0.000 A 
ATOM     28  C   UNL     1       5.644   4.789  18.420  0.00  0.00    +0.000 A 
BRANCH  23  30
ATOM     29  C   UNL     1       8.058   6.508  18.929  0.00  0.00    +0.000 C 
ATOM     30  C   UNL     1       7.378   6.458  17.586  0.00  0.00    +0.000 C 
ATOM     31  O   UNL     1       7.733   7.193  16.668  0.00  0.00    +0.000 OA
ENDBRANCH  23  30
ENDBRANCH  20  27
ENDBRANCH  18  20
ENDBRANCH  17  18
ENDBRANCH   1  17
TORSDOF 7
ENDMDL
MODEL 9
REMARK VINA RESULT:      -7.8      1.015      1.200
REMARK  Name = 
REMARK  8 active torsions:
REMARK  status: ('A' for Active; 'I' for Inactive)
REMARK    1  A    between atoms: C_1  and  C_2
REMARK    2  A    between atoms: C_2  and  C_4
REMARK    3  A    between atoms: C_8  and  S_9
REMARK    4  A    between atoms: S_9  and  N_12
REMARK    5  A    between atoms: N_12  and  C_13
REMARK    6  A    between atoms: C_13  and  C_14
REMARK    7  A    between atoms: C_14  and  C_15
REMARK    8  A    between atoms: C_20  and  C_21
REMARK                            x       y       z     vdW  Elec       q    Type
REMARK                         _______ _______ _______ _____ _____    ______ ____
ROOT
ATOM      1  C   UNL     1       5.001   3.523  18.780  0.00  0.00    +0.000 C 
ENDROOT
BRANCH   1   2
ATOM      2  C   UNL     1       3.611   3.584  19.374  0.00  0.00    +0.000 A 
ATOM      3  C   UNL     1       2.854   2.508  19.695  0.00  0.00    +0.000 A 
ATOM      4  S   UNL     1       1.320   2.893  20.451  0.00  0.00    +0.000 S 
ATOM      5  C   UNL     1       1.735   4.557  20.311  0.00  0.00    +0.000 A 
ATOM      6  N   UNL     1       1.132   5.654  20.631  0.00  0.00    +0.000 NA
ATOM      7  C   UNL     1       2.023   6.609  20.179  0.00  0.00    +0.000 A 
ATOM      8  N   UNL     1       3.160   6.109  19.629  0.00  0.00    +0.000 NA
ATOM      9  N   UNL     1       2.952   4.769  19.720  0.00  0.00    +0.000 N 
BRANCH   7  10
ATOM     10  C   UNL     1       1.628   8.019  20.270  0.00  0.00    +0.000 A 
ATOM     11  C   UNL     1       1.211   8.525  21.522  0.00  0.00    +0.000 A 
ATOM     12  C   UNL     1       0.735   9.829  21.658  0.00  0.00    +0.000 A 
ATOM     13  C   UNL     1       0.679  10.646  20.541  0.00  0.00    +0.000 A 
ATOM     14  F   UNL     1       0.192  11.888  20.656  0.00  0.00    +0.000 F 
ATOM     15  C   UNL     1       1.112  10.188  19.298  0.00  0.00    +0.000 A 
ATOM     16  C   UNL     1       1.587   8.874  19.160  0.00  0.00    +0.000 A 
ENDBRANCH   7  10
ENDBRANCH   1   2
BRANCH   1  17
ATOM     17  C   UNL     1       4.940   3.272  17.258  0.00  0.00    +0.000 C 
BRANCH  17  18
ATOM     18  N   UNL     1       4.512   4.438  16.473  0.00  0.00    +0.000 NA
ATOM     19  H   UNL     1       3.897   4.266  15.678  0.00  0.00    +0.000 HD
BRANCH  18  20
ATOM     20  S   UNL     1       5.744   5.547  16.072  0.00  0.00    +0.000 S 
ATOM     21  O   UNL     1       6.852   5.349  16.979  0.00  0.00    +0.000 OA
ATOM     22  O   UNL     1       5.109   6.834  15.900  0.00  0.00    +0.000 OA
BRANCH  20  27
ATOM     23  C   UNL     1       6.008   3.559  12.520  0.00  0.00    +0.000 A 
ATOM     24  C   UNL     1       7.222   4.050  12.014  0.00  0.00    +0.000 A 
ATOM     25  C   UNL     1       7.961   4.995  12.727  0.00  0.00    +0.000 A 
ATOM     26  C   UNL     1       7.493   5.470  13.950  0.00  0.00    +0.000 A 
ATOM     27  C   UNL     1       6.276   4.998  14.455  0.00  0.00    +0.000 A 
ATOM     28  C   UNL     1       5.538   4.028  13.755  0.00  0.00    +0.000 A 
BRANCH  23  30
ATOM     29  C   UNL     1       5.971   1.260  11.332  0.00  0.00    +0.000 C 
ATOM     30  C   UNL     1       5.273   2.543  11.702  0.00  0.00    +0.000 C 
ATOM     31  O   UNL     1       4.112   2.755  11.362  0.00  0.00    +0.000 OA
ENDBRANCH  23  30
ENDBRANCH  20  27
ENDBRANCH  18  20
ENDBRANCH  17  18
ENDBRANCH   1  17
TORSDOF 7
ENDMDL
