MODEL 1
REMARK VINA RESULT:      -6.0      0.000      0.000
REMARK  Name = 
REMARK  10 active torsions:
REMARK  status: ('A' for Active; 'I' for Inactive)
REMARK    1  A    between atoms: C_1  and  O_2
REMARK    2  A    between atoms: O_2  and  C_3
REMARK    3  A    between atoms: C_3  and  C_4
REMARK    4  A    between atoms: C_4  and  C_5
REMARK    5  A    between atoms: C_5  and  N_6
REMARK    6  A    between atoms: C_7  and  S_8
REMARK    7  A    between atoms: N_9  and  C_10
REMARK    8  A    between atoms: C_11  and  C_12
REMARK    9  A    between atoms: C_14  and  C_15
REMARK   10  A    between atoms: C_17  and  C_18
REMARK                            x       y       z     vdW  Elec       q    Type
REMARK                         _______ _______ _______ _____ _____    ______ ____
ROOT
ATOM      1  N   UNL     1       6.141   4.421  17.679  0.00  0.00    +0.000 NA
ATOM      2  C   UNL     1       5.144   4.725  16.925  0.00  0.00    +0.000 C 
ATOM      3  N   UNL     1       3.853   4.311  17.126  0.00  0.00    +0.000 N 
ATOM      4  H   UNL     1       3.187   4.592  16.421  0.00  0.00    +0.000 HD
ENDROOT
BRANCH   3   5
ATOM      5  C   UNL     1       3.272   3.896  18.340  0.00  0.00    +0.000 A 
ATOM      6  C   UNL     1       3.165   2.538  18.720  0.00  0.00    +0.000 A 
ATOM      7  C   UNL     1       3.803   1.402  17.966  0.00  0.00    +0.000 C 
ATOM      8  C   UNL     1       2.441   2.193  19.877  0.00  0.00    +0.000 A 
ATOM      9  C   UNL     1       1.880   3.169  20.700  0.00  0.00    +0.000 A 
ATOM     10  C   UNL     1       1.078   2.785  21.906  0.00  0.00    +0.000 C 
ATOM     11  C   UNL     1       2.086   4.514  20.388  0.00  0.00    +0.000 A 
ATOM     12  C   UNL     1       2.782   4.889  19.226  0.00  0.00    +0.000 A 
ATOM     13  C   UNL     1       2.969   6.357  18.941  0.00  0.00    +0.000 C 
ENDBRANCH   3   5
BRANCH   2  14
ATOM     14  S   UNL     1       5.254   5.722  15.475  0.00  0.00    +0.000 S 
ATOM     15  H   UNL     1       6.543   6.052  15.590  0.00  0.00    +0.000 HD
ENDBRANCH   2  14
BRANCH   1  16
ATOM     16  C   UNL     1       7.465   4.996  17.490  0.00  0.00    +0.000 C 
BRANCH  16  17
ATOM     17  C   UNL     1       7.699   6.070  18.556  0.00  0.00    +0.000 C 
BRANCH  17  18
ATOM     18  C   UNL     1       7.715   7.459  17.930  0.00  0.00    +0.000 C 
BRANCH  18  20
ATOM     19  C   UNL     1       8.546   9.648  18.244  0.00  0.00    +0.000 C 
ATOM     20  O   UNL     1       8.607   8.294  18.668  0.00  0.00    +0.000 OA
ENDBRANCH  18  20
ENDBRANCH  17  18
ENDBRANCH  16  17
ENDBRANCH   1  16
TORSDOF 6
ENDMDL
MODEL 2
REMARK VINA RESULT:      -5.9      1.851      3.069
REMARK  Name = 
REMARK  10 active torsions:
REMARK  status: ('A' for Active; 'I' for Inactive)
REMARK    1  A    between atoms: C_1  and  O_2
REMARK    2  A    between atoms: O_2  and  C_3
REMARK    3  A    between atoms: C_3  and  C_4
REMARK    4  A    between atoms: C_4  and  C_5
REMARK    5  A    between atoms: C_5  and  N_6
REMARK    6  A    between atoms: C_7  and  S_8
REMARK    7  A    between atoms: N_9  and  C_10
REMARK    8  A    between atoms: C_11  and  C_12
REMARK    9  A    between atoms: C_14  and  C_15
REMARK   10  A    between atoms: C_17  and  C_18
REMARK                            x       y       z     vdW  Elec       q    Type
REMARK                         _______ _______ _______ _____ _____    ______ ____
ROOT
ATOM      1  N   UNL     1       5.397   5.414  18.257  0.00  0.00    +0.000 NA
ATOM      2  C   UNL     1       4.399   5.896  17.603  0.00  0.00    +0.000 C 
ATOM      3  N   UNL     1       3.107   5.453  17.702  0.00  0.00    +0.000 N 
ATOM      4  H   UNL     1       2.441   5.900  17.089  0.00  0.00    +0.000 HD
ENDROOT
BRANCH   3   5
ATOM      5  C   UNL     1       2.526   4.759  18.781  0.00  0.00    +0.000 A 
ATOM      6  C   UNL     1       2.108   5.395  19.973  0.00  0.00    +0.000 A 
ATOM      7  C   UNL     1       2.074   6.888  20.161  0.00  0.00    +0.000 C 
ATOM      8  C   UNL     1       1.673   4.616  21.062  0.00  0.00    +0.000 A 
ATOM      9  C   UNL     1       1.581   3.227  20.972  0.00  0.00    +0.000 A 
ATOM     10  C   UNL     1       1.154   2.410  22.153  0.00  0.00    +0.000 C 
ATOM     11  C   UNL     1       1.882   2.610  19.757  0.00  0.00    +0.000 A 
ATOM     12  C   UNL     1       2.343   3.358  18.659  0.00  0.00    +0.000 A 
ATOM     13  C   UNL     1       2.656   2.634  17.376  0.00  0.00    +0.000 C 
ENDBRANCH   3   5
BRANCH   2  14
ATOM     14  S   UNL     1       4.513   7.215  16.438  0.00  0.00    +0.000 S 
ATOM     15  H   UNL     1       3.422   7.880  16.823  0.00  0.00    +0.000 HD
ENDBRANCH   2  14
BRANCH   1  16
ATOM     16  C   UNL     1       6.724   6.011  18.208  0.00  0.00    +0.000 C 
BRANCH  16  17
ATOM     17  C   UNL     1       7.742   4.933  17.828  0.00  0.00    +0.000 C 
BRANCH  17  18
ATOM     18  C   UNL     1       7.392   4.310  16.481  0.00  0.00    +0.000 C 
BRANCH  18  20
ATOM     19  C   UNL     1       6.817   4.918  14.273  0.00  0.00    +0.000 C 
ATOM     20  O   UNL     1       7.474   5.312  15.468  0.00  0.00    +0.000 OA
ENDBRANCH  18  20
ENDBRANCH  17  18
ENDBRANCH  16  17
ENDBRANCH   1  16
TORSDOF 6
ENDMDL
MODEL 3
REMARK VINA RESULT:      -5.8      0.746      2.144
REMARK  Name = 
REMARK  10 active torsions:
REMARK  status: ('A' for Active; 'I' for Inactive)
REMARK    1  A    between atoms: C_1  and  O_2
REMARK    2  A    between atoms: O_2  and  C_3
REMARK    3  A    between atoms: C_3  and  C_4
REMARK    4  A    between atoms: C_4  and  C_5
REMARK    5  A    between atoms: C_5  and  N_6
REMARK    6  A    between atoms: C_7  and  S_8
REMARK    7  A    between atoms: N_9  and  C_10
REMARK    8  A    between atoms: C_11  and  C_12
REMARK    9  A    between atoms: C_14  and  C_15
REMARK   10  A    between atoms: C_17  and  C_18
REMARK                            x       y       z     vdW  Elec       q    Type
REMARK                         _______ _______ _______ _____ _____    ______ ____
ROOT
ATOM      1  N   UNL     1       5.727   4.543  17.982  0.00  0.00    +0.000 NA
ATOM      2  C   UNL     1       4.813   5.125  17.289  0.00  0.00    +0.000 C 
ATOM      3  N   UNL     1       3.468   4.897  17.415  0.00  0.00    +0.000 N 
ATOM      4  H   UNL     1       2.875   5.395  16.766  0.00  0.00    +0.000 HD
ENDROOT
BRANCH   3   5
ATOM      5  C   UNL     1       2.794   4.383  18.539  0.00  0.00    +0.000 A 
ATOM      6  C   UNL     1       2.405   5.183  19.638  0.00  0.00    +0.000 A 
ATOM      7  C   UNL     1       2.509   6.685  19.663  0.00  0.00    +0.000 C 
ATOM      8  C   UNL     1       1.867   4.573  20.788  0.00  0.00    +0.000 A 
ATOM      9  C   UNL     1       1.645   3.198  20.844  0.00  0.00    +0.000 A 
ATOM     10  C   UNL     1       1.109   2.559  22.089  0.00  0.00    +0.000 C 
ATOM     11  C   UNL     1       1.920   2.424  19.715  0.00  0.00    +0.000 A 
ATOM     12  C   UNL     1       2.481   3.000  18.562  0.00  0.00    +0.000 A 
ATOM     13  C   UNL     1       2.759   2.113  17.377  0.00  0.00    +0.000 C 
ENDBRANCH   3   5
BRANCH   2  14
ATOM     14  S   UNL     1       5.122   6.321  16.030  0.00  0.00    +0.000 S 
ATOM     15  H   UNL     1       6.337   5.892  15.679  0.00  0.00    +0.000 HD
ENDBRANCH   2  14
BRANCH   1  16
ATOM     16  C   UNL     1       7.131   4.922  17.896  0.00  0.00    +0.000 C 
BRANCH  16  17
ATOM     17  C   UNL     1       7.419   6.006  18.938  0.00  0.00    +0.000 C 
BRANCH  17  18
ATOM     18  C   UNL     1       8.346   7.073  18.367  0.00  0.00    +0.000 C 
BRANCH  18  20
ATOM     19  C   UNL     1       8.305   9.414  18.063  0.00  0.00    +0.000 C 
ATOM     20  O   UNL     1       7.569   8.204  17.973  0.00  0.00    +0.000 OA
ENDBRANCH  18  20
ENDBRANCH  17  18
ENDBRANCH  16  17
ENDBRANCH   1  16
TORSDOF 6
ENDMDL
MODEL 4
REMARK VINA RESULT:      -5.8      0.635      2.131
REMARK  Name = 
REMARK  10 active torsions:
REMARK  status: ('A' for Active; 'I' for Inactive)
REMARK    1  A    between atoms: C_1  and  O_2
REMARK    2  A    between atoms: O_2  and  C_3
REMARK    3  A    between atoms: C_3  and  C_4
REMARK    4  A    between atoms: C_4  and  C_5
REMARK    5  A    between atoms: C_5  and  N_6
REMARK    6  A    between atoms: C_7  and  S_8
REMARK    7  A    between atoms: N_9  and  C_10
REMARK    8  A    between atoms: C_11  and  C_12
REMARK    9  A    between atoms: C_14  and  C_15
REMARK   10  A    between atoms: C_17  and  C_18
REMARK                            x       y       z     vdW  Elec       q    Type
REMARK                         _______ _______ _______ _____ _____    ______ ____
ROOT
ATOM      1  N   UNL     1       6.164   4.575  17.750  0.00  0.00    +0.000 NA
ATOM      2  C   UNL     1       5.335   4.466  16.772  0.00  0.00    +0.000 C 
ATOM      3  N   UNL     1       4.102   3.873  16.850  0.00  0.00    +0.000 N 
ATOM      4  H   UNL     1       3.584   3.820  15.985  0.00  0.00    +0.000 HD
ENDROOT
BRANCH   3   5
ATOM      5  C   UNL     1       3.320   3.688  18.006  0.00  0.00    +0.000 A 
ATOM      6  C   UNL     1       2.599   4.734  18.627  0.00  0.00    +0.000 A 
ATOM      7  C   UNL     1       2.445   6.112  18.039  0.00  0.00    +0.000 C 
ATOM      8  C   UNL     1       1.960   4.503  19.860  0.00  0.00    +0.000 A 
ATOM      9  C   UNL     1       1.963   3.242  20.455  0.00  0.00    +0.000 A 
ATOM     10  C   UNL     1       1.313   3.022  21.787  0.00  0.00    +0.000 C 
ATOM     11  C   UNL     1       2.575   2.182  19.785  0.00  0.00    +0.000 A 
ATOM     12  C   UNL     1       3.243   2.386  18.565  0.00  0.00    +0.000 A 
ATOM     13  C   UNL     1       3.887   1.203  17.890  0.00  0.00    +0.000 C 
ENDBRANCH   3   5
BRANCH   2  14
ATOM     14  S   UNL     1       5.639   5.045  15.135  0.00  0.00    +0.000 S 
ATOM     15  H   UNL     1       6.567   4.144  14.802  0.00  0.00    +0.000 HD
ENDBRANCH   2  14
BRANCH   1  16
ATOM     16  C   UNL     1       7.404   5.330  17.640  0.00  0.00    +0.000 C 
BRANCH  16  17
ATOM     17  C   UNL     1       7.080   6.826  17.664  0.00  0.00    +0.000 C 
BRANCH  17  18
ATOM     18  C   UNL     1       8.208   7.613  18.322  0.00  0.00    +0.000 C 
BRANCH  18  20
ATOM     19  C   UNL     1       8.878   9.843  18.715  0.00  0.00    +0.000 C 
ATOM     20  O   UNL     1       8.170   8.962  17.856  0.00  0.00    +0.000 OA
ENDBRANCH  18  20
ENDBRANCH  17  18
ENDBRANCH  16  17
ENDBRANCH   1  16
TORSDOF 6
ENDMDL
MODEL 5
REMARK VINA RESULT:      -5.8      1.798      2.910
REMARK  Name = 
REMARK  10 active torsions:
REMARK  status: ('A' for Active; 'I' for Inactive)
REMARK    1  A    between atoms: C_1  and  O_2
REMARK    2  A    between atoms: O_2  and  C_3
REMARK    3  A    between atoms: C_3  and  C_4
REMARK    4  A    between atoms: C_4  and  C_5
REMARK    5  A    between atoms: C_5  and  N_6
REMARK    6  A    between atoms: C_7  and  S_8
REMARK    7  A    between atoms: N_9  and  C_10
REMARK    8  A    between atoms: C_11  and  C_12
REMARK    9  A    between atoms: C_14  and  C_15
REMARK   10  A    between atoms: C_17  and  C_18
REMARK                            x       y       z     vdW  Elec       q    Type
REMARK                         _______ _______ _______ _____ _____    ______ ____
ROOT
ATOM      1  N   UNL     1       5.516   5.010  18.843  0.00  0.00    +0.000 NA
ATOM      2  C   UNL     1       4.605   4.786  17.962  0.00  0.00    +0.000 C 
ATOM      3  N   UNL     1       3.266   5.014  18.142  0.00  0.00    +0.000 N 
ATOM      4  H   UNL     1       2.668   4.743  17.375  0.00  0.00    +0.000 HD
ENDROOT
BRANCH   3   5
ATOM      5  C   UNL     1       2.670   5.904  19.056  0.00  0.00    +0.000 A 
ATOM      6  C   UNL     1       2.130   5.490  20.296  0.00  0.00    +0.000 A 
ATOM      7  C   UNL     1       2.279   4.101  20.856  0.00  0.00    +0.000 C 
ATOM      8  C   UNL     1       1.421   6.413  21.089  0.00  0.00    +0.000 A 
ATOM      9  C   UNL     1       1.294   7.749  20.711  0.00  0.00    +0.000 A 
ATOM     10  C   UNL     1       0.502   8.709  21.545  0.00  0.00    +0.000 C 
ATOM     11  C   UNL     1       1.927   8.183  19.545  0.00  0.00    +0.000 A 
ATOM     12  C   UNL     1       2.621   7.281  18.720  0.00  0.00    +0.000 A 
ATOM     13  C   UNL     1       3.280   7.808  17.472  0.00  0.00    +0.000 C 
ENDBRANCH   3   5
BRANCH   2  14
ATOM     14  S   UNL     1       4.909   4.124  16.357  0.00  0.00    +0.000 S 
ATOM     15  H   UNL     1       3.636   4.025  15.966  0.00  0.00    +0.000 HD
ENDBRANCH   2  14
BRANCH   1  16
ATOM     16  C   UNL     1       6.935   4.871  18.549  0.00  0.00    +0.000 C 
BRANCH  16  17
ATOM     17  C   UNL     1       7.586   6.257  18.570  0.00  0.00    +0.000 C 
BRANCH  17  18
ATOM     18  C   UNL     1       7.552   6.892  17.184  0.00  0.00    +0.000 C 
BRANCH  18  20
ATOM     19  C   UNL     1       8.232   9.006  17.986  0.00  0.00    +0.000 C 
ATOM     20  O   UNL     1       7.220   8.274  17.312  0.00  0.00    +0.000 OA
ENDBRANCH  18  20
ENDBRANCH  17  18
ENDBRANCH  16  17
ENDBRANCH   1  16
TORSDOF 6
ENDMDL
MODEL 6
REMARK VINA RESULT:      -5.6      2.873      3.620
REMARK  Name = 
REMARK  10 active torsions:
REMARK  status: ('A' for Active; 'I' for Inactive)
REMARK    1  A    between atoms: C_1  and  O_2
REMARK    2  A    between atoms: O_2  and  C_3
REMARK    3  A    between atoms: C_3  and  C_4
REMARK    4  A    between atoms: C_4  and  C_5
REMARK    5  A    between atoms: C_5  and  N_6
REMARK    6  A    between atoms: C_7  and  S_8
REMARK    7  A    between atoms: N_9  and  C_10
REMARK    8  A    between atoms: C_11  and  C_12
REMARK    9  A    between atoms: C_14  and  C_15
REMARK   10  A    between atoms: C_17  and  C_18
REMARK                            x       y       z     vdW  Elec       q    Type
REMARK                         _______ _______ _______ _____ _____    ______ ____
ROOT
ATOM      1  N   UNL     1       6.101   4.681  17.129  0.00  0.00    +0.000 NA
ATOM      2  C   UNL     1       6.199   5.113  18.337  0.00  0.00    +0.000 C 
ATOM      3  N   UNL     1       5.162   5.190  19.229  0.00  0.00    +0.000 N 
ATOM      4  H   UNL     1       5.385   5.595  20.127  0.00  0.00    +0.000 HD
ENDROOT
BRANCH   3   5
ATOM      5  C   UNL     1       3.965   4.449  19.209  0.00  0.00    +0.000 A 
ATOM      6  C   UNL     1       3.875   3.115  19.671  0.00  0.00    +0.000 A 
ATOM      7  C   UNL     1       4.987   2.398  20.389  0.00  0.00    +0.000 C 
ATOM      8  C   UNL     1       2.681   2.392  19.483  0.00  0.00    +0.000 A 
ATOM      9  C   UNL     1       1.557   2.984  18.908  0.00  0.00    +0.000 A 
ATOM     10  C   UNL     1       0.307   2.190  18.677  0.00  0.00    +0.000 C 
ATOM     11  C   UNL     1       1.610   4.334  18.558  0.00  0.00    +0.000 A 
ATOM     12  C   UNL     1       2.794   5.075  18.711  0.00  0.00    +0.000 A 
ATOM     13  C   UNL     1       2.790   6.528  18.312  0.00  0.00    +0.000 C 
ENDBRANCH   3   5
BRANCH   2  14
ATOM     14  S   UNL     1       7.690   5.703  19.069  0.00  0.00    +0.000 S 
ATOM     15  H   UNL     1       7.750   6.870  18.423  0.00  0.00    +0.000 HD
ENDBRANCH   2  14
BRANCH   1  16
ATOM     16  C   UNL     1       7.262   4.500  16.269  0.00  0.00    +0.000 C 
BRANCH  16  17
ATOM     17  C   UNL     1       6.928   5.012  14.866  0.00  0.00    +0.000 C 
BRANCH  17  18
ATOM     18  C   UNL     1       5.656   4.357  14.339  0.00  0.00    +0.000 C 
BRANCH  18  20
ATOM     19  C   UNL     1       6.688   3.839  12.279  0.00  0.00    +0.000 C 
ATOM     20  O   UNL     1       6.009   3.327  13.416  0.00  0.00    +0.000 OA
ENDBRANCH  18  20
ENDBRANCH  17  18
ENDBRANCH  16  17
ENDBRANCH   1  16
TORSDOF 6
ENDMDL
MODEL 7
REMARK VINA RESULT:      -5.6      2.251      3.824
REMARK  Name = 
REMARK  10 active torsions:
REMARK  status: ('A' for Active; 'I' for Inactive)
REMARK    1  A    between atoms: C_1  and  O_2
REMARK    2  A    between atoms: O_2  and  C_3
REMARK    3  A    between atoms: C_3  and  C_4
REMARK    4  A    between atoms: C_4  and  C_5
REMARK    5  A    between atoms: C_5  and  N_6
REMARK    6  A    between atoms: C_7  and  S_8
REMARK    7  A    between atoms: N_9  and  C_10
REMARK    8  A    between atoms: C_11  and  C_12
REMARK    9  A    between atoms: C_14  and  C_15
REMARK   10  A    between atoms: C_17  and  C_18
REMARK                            x       y       z     vdW  Elec       q    Type
REMARK                         _______ _______ _______ _____ _____    ______ ____
ROOT
ATOM      1  N   UNL     1       5.203   5.004  19.030  0.00  0.00    +0.000 NA
ATOM      2  C   UNL     1       4.254   4.597  18.264  0.00  0.00    +0.000 C 
ATOM      3  N   UNL     1       2.922   4.854  18.459  0.00  0.00    +0.000 N 
ATOM      4  H   UNL     1       2.290   4.426  17.798  0.00  0.00    +0.000 HD
ENDROOT
BRANCH   3   5
ATOM      5  C   UNL     1       2.359   5.914  19.195  0.00  0.00    +0.000 A 
ATOM      6  C   UNL     1       2.456   7.267  18.796  0.00  0.00    +0.000 A 
ATOM      7  C   UNL     1       3.012   7.715  17.470  0.00  0.00    +0.000 C 
ATOM      8  C   UNL     1       1.996   8.282  19.657  0.00  0.00    +0.000 A 
ATOM      9  C   UNL     1       1.383   7.980  20.873  0.00  0.00    +0.000 A 
ATOM     10  C   UNL     1       0.936   9.072  21.797  0.00  0.00    +0.000 C 
ATOM     11  C   UNL     1       1.183   6.641  21.213  0.00  0.00    +0.000 A 
ATOM     12  C   UNL     1       1.653   5.606  20.386  0.00  0.00    +0.000 A 
ATOM     13  C   UNL     1       1.410   4.181  20.809  0.00  0.00    +0.000 C 
ENDBRANCH   3   5
BRANCH   2  14
ATOM     14  S   UNL     1       4.488   3.613  16.820  0.00  0.00    +0.000 S 
ATOM     15  H   UNL     1       4.437   2.419  17.414  0.00  0.00    +0.000 HD
ENDBRANCH   2  14
BRANCH   1  16
ATOM     16  C   UNL     1       6.608   4.812  18.701  0.00  0.00    +0.000 C 
BRANCH  16  17
ATOM     17  C   UNL     1       7.212   6.156  18.286  0.00  0.00    +0.000 C 
BRANCH  17  18
ATOM     18  C   UNL     1       7.174   6.322  16.771  0.00  0.00    +0.000 C 
BRANCH  18  20
ATOM     19  C   UNL     1       7.110   4.949  14.851  0.00  0.00    +0.000 C 
ATOM     20  O   UNL     1       7.637   5.118  16.158  0.00  0.00    +0.000 OA
ENDBRANCH  18  20
ENDBRANCH  17  18
ENDBRANCH  16  17
ENDBRANCH   1  16
TORSDOF 6
ENDMDL
MODEL 8
REMARK VINA RESULT:      -5.6      1.711      3.206
REMARK  Name = 
REMARK  10 active torsions:
REMARK  status: ('A' for Active; 'I' for Inactive)
REMARK    1  A    between atoms: C_1  and  O_2
REMARK    2  A    between atoms: O_2  and  C_3
REMARK    3  A    between atoms: C_3  and  C_4
REMARK    4  A    between atoms: C_4  and  C_5
REMARK    5  A    between atoms: C_5  and  N_6
REMARK    6  A    between atoms: C_7  and  S_8
REMARK    7  A    between atoms: N_9  and  C_10
REMARK    8  A    between atoms: C_11  and  C_12
REMARK    9  A    between atoms: C_14  and  C_15
REMARK   10  A    between atoms: C_17  and  C_18
REMARK                            x       y       z     vdW  Elec       q    Type
REMARK                         _______ _______ _______ _____ _____    ______ ____
ROOT
ATOM      1  N   UNL     1       5.481   5.067  18.601  0.00  0.00    +0.000 NA
ATOM      2  C   UNL     1       4.543   4.651  17.825  0.00  0.00    +0.000 C 
ATOM      3  N   UNL     1       3.202   4.802  18.063  0.00  0.00    +0.000 N 
ATOM      4  H   UNL     1       2.585   4.380  17.385  0.00  0.00    +0.000 HD
ENDROOT
BRANCH   3   5
ATOM      5  C   UNL     1       2.588   5.767  18.884  0.00  0.00    +0.000 A 
ATOM      6  C   UNL     1       2.584   7.149  18.582  0.00  0.00    +0.000 A 
ATOM      7  C   UNL     1       3.078   7.726  17.283  0.00  0.00    +0.000 C 
ATOM      8  C   UNL     1       2.079   8.066  19.523  0.00  0.00    +0.000 A 
ATOM      9  C   UNL     1       1.516   7.638  20.725  0.00  0.00    +0.000 A 
ATOM     10  C   UNL     1       1.019   8.628  21.734  0.00  0.00    +0.000 C 
ATOM     11  C   UNL     1       1.413   6.268  20.971  0.00  0.00    +0.000 A 
ATOM     12  C   UNL     1       1.932   5.328  20.063  0.00  0.00    +0.000 A 
ATOM     13  C   UNL     1       1.794   3.863  20.386  0.00  0.00    +0.000 C 
ENDBRANCH   3   5
BRANCH   2  14
ATOM     14  S   UNL     1       4.808   3.790  16.309  0.00  0.00    +0.000 S 
ATOM     15  H   UNL     1       5.302   2.666  16.833  0.00  0.00    +0.000 HD
ENDBRANCH   2  14
BRANCH   1  16
ATOM     16  C   UNL     1       6.888   4.995  18.231  0.00  0.00    +0.000 C 
BRANCH  16  17
ATOM     17  C   UNL     1       7.233   6.194  17.346  0.00  0.00    +0.000 C 
BRANCH  17  18
ATOM     18  C   UNL     1       7.914   7.289  18.159  0.00  0.00    +0.000 C 
BRANCH  18  20
ATOM     19  C   UNL     1       8.447   9.590  18.148  0.00  0.00    +0.000 C 
ATOM     20  O   UNL     1       7.866   8.514  17.427  0.00  0.00    +0.000 OA
ENDBRANCH  18  20
ENDBRANCH  17  18
ENDBRANCH  16  17
ENDBRANCH   1  16
TORSDOF 6
ENDMDL
MODEL 9
REMARK VINA RESULT:      -5.6      3.231      4.155
REMARK  Name = 
REMARK  10 active torsions:
REMARK  status: ('A' for Active; 'I' for Inactive)
REMARK    1  A    between atoms: C_1  and  O_2
REMARK    2  A    between atoms: O_2  and  C_3
REMARK    3  A    between atoms: C_3  and  C_4
REMARK    4  A    between atoms: C_4  and  C_5
REMARK    5  A    between atoms: C_5  and  N_6
REMARK    6  A    between atoms: C_7  and  S_8
REMARK    7  A    between atoms: N_9  and  C_10
REMARK    8  A    between atoms: C_11  and  C_12
REMARK    9  A    between atoms: C_14  and  C_15
REMARK   10  A    between atoms: C_17  and  C_18
REMARK                            x       y       z     vdW  Elec       q    Type
REMARK                         _______ _______ _______ _____ _____    ______ ____
ROOT
ATOM      1  N   UNL     1       5.644   4.384  16.378  0.00  0.00    +0.000 NA
ATOM      2  C   UNL     1       6.103   4.585  17.563  0.00  0.00    +0.000 C 
ATOM      3  N   UNL     1       5.338   4.672  18.697  0.00  0.00    +0.000 N 
ATOM      4  H   UNL     1       5.838   4.881  19.549  0.00  0.00    +0.000 HD
ENDROOT
BRANCH   3   5
ATOM      5  C   UNL     1       4.050   4.141  18.896  0.00  0.00    +0.000 A 
ATOM      6  C   UNL     1       3.818   2.878  19.489  0.00  0.00    +0.000 A 
ATOM      7  C   UNL     1       4.894   2.038  20.125  0.00  0.00    +0.000 C 
ATOM      8  C   UNL     1       2.512   2.353  19.521  0.00  0.00    +0.000 A 
ATOM      9  C   UNL     1       1.424   3.080  19.039  0.00  0.00    +0.000 A 
ATOM     10  C   UNL     1       0.047   2.491  19.043  0.00  0.00    +0.000 C 
ATOM     11  C   UNL     1       1.637   4.374  18.561  0.00  0.00    +0.000 A 
ATOM     12  C   UNL     1       2.933   4.917  18.493  0.00  0.00    +0.000 A 
ATOM     13  C   UNL     1       3.099   6.318  17.965  0.00  0.00    +0.000 C 
ENDBRANCH   3   5
BRANCH   2  14
ATOM     14  S   UNL     1       7.809   4.804  17.950  0.00  0.00    +0.000 S 
ATOM     15  H   UNL     1       7.646   5.280  19.187  0.00  0.00    +0.000 HD
ENDBRANCH   2  14
BRANCH   1  16
ATOM     16  C   UNL     1       6.515   4.170  15.231  0.00  0.00    +0.000 C 
BRANCH  16  17
ATOM     17  C   UNL     1       5.671   4.192  13.954  0.00  0.00    +0.000 C 
BRANCH  17  18
ATOM     18  C   UNL     1       6.481   3.696  12.762  0.00  0.00    +0.000 C 
BRANCH  18  20
ATOM     19  C   UNL     1       4.504   3.234  11.555  0.00  0.00    +0.000 C 
ATOM     20  O   UNL     1       5.724   2.711  12.060  0.00  0.00    +0.000 OA
ENDBRANCH  18  20
ENDBRANCH  17  18
ENDBRANCH  16  17
ENDBRANCH   1  16
TORSDOF 6
ENDMDL
