MODEL 1
REMARK VINA RESULT:      -7.8      0.000      0.000
REMARK  Name = 
REMARK  6 active torsions:
REMARK  status: ('A' for Active; 'I' for Inactive)
REMARK    1  A    between atoms: C_1  and  C_2
REMARK    2  A    between atoms: C_10  and  C_12
REMARK    3  A    between atoms: C_12  and  N_13
REMARK    4  A    between atoms: N_16  and  C_17
REMARK    5  A    between atoms: C_17  and  C_18
REMARK    6  A    between atoms: C_27  and  C_28
REMARK                            x       y       z     vdW  Elec       q    Type
REMARK                         _______ _______ _______ _____ _____    ______ ____
ROOT
ATOM      1  C   UNL     1       1.734   7.934  20.718  0.00  0.00    +0.000 C 
ENDROOT
BRANCH   1  11
ATOM      2  C   UNL     1       5.669   6.499  17.539  0.00  0.00    +0.000 C 
ATOM      3  C   UNL     1       4.171   6.347  17.309  0.00  0.00    +0.000 C 
ATOM      4  C   UNL     1       3.679   4.955  17.564  0.00  0.00    +0.000 A 
ATOM      5  C   UNL     1       4.096   3.784  16.941  0.00  0.00    +0.000 A 
ATOM      6  C   UNL     1       3.522   2.574  17.333  0.00  0.00    +0.000 A 
ATOM      7  C   UNL     1       2.523   2.552  18.313  0.00  0.00    +0.000 A 
ATOM      8  C   UNL     1       2.112   3.734  18.935  0.00  0.00    +0.000 A 
ATOM      9  C   UNL     1       2.714   4.928  18.569  0.00  0.00    +0.000 A 
ATOM     10  N   UNL     1       2.511   6.219  19.105  0.00  0.00    +0.000 N 
ATOM     11  C   UNL     1       1.869   6.452  20.326  0.00  0.00    +0.000 C 
ATOM     12  O   UNL     1       1.432   5.555  21.052  0.00  0.00    +0.000 OA
ATOM     13  C   UNL     1       3.349   7.183  18.333  0.00  0.00    +0.000 C 
ATOM     14  C   UNL     1       2.546   8.260  17.594  0.00  0.00    +0.000 C 
ENDBRANCH   1  11
BRANCH   1  15
ATOM     15  N   UNL     1       0.401   8.521  20.445  0.00  0.00    +0.000 NA
ATOM     16  C   UNL     1      -0.457   8.553  21.649  0.00  0.00    +0.000 C 
ATOM     17  C   UNL     1      -0.083   9.642  22.684  0.00  0.00    +0.000 C 
ATOM     18  N   UNL     1       0.067  11.010  22.134  0.00  0.00    +0.000 NA
ATOM     19  C   UNL     1       0.951  10.955  20.954  0.00  0.00    +0.000 C 
ATOM     20  C   UNL     1       0.552   9.888  19.906  0.00  0.00    +0.000 C 
BRANCH  18  21
ATOM     21  C   UNL     1      -1.227  11.632  21.784  0.00  0.00    +0.000 C 
BRANCH  21  22
ATOM     22  C   UNL     1      -1.679  12.621  22.835  0.00  0.00    +0.000 A 
ATOM     23  C   UNL     1      -2.941  12.482  23.438  0.00  0.00    +0.000 A 
ATOM     24  C   UNL     1      -3.442  13.494  24.253  0.00  0.00    +0.000 A 
ATOM     25  C   UNL     1      -2.684  14.644  24.482  0.00  0.00    +0.000 A 
ATOM     26 CL   UNL     1      -3.349  15.933  25.401  0.00  0.00    +0.000 Cl
ATOM     27  C   UNL     1      -1.405  14.764  23.940  0.00  0.00    +0.000 A 
ATOM     28  C   UNL     1      -0.902  13.755  23.123  0.00  0.00    +0.000 A 
ENDBRANCH  21  22
ENDBRANCH  18  21
ENDBRANCH   1  15
TORSDOF 4
ENDMDL
MODEL 2
REMARK VINA RESULT:      -7.7      1.412      2.762
REMARK  Name = 
REMARK  6 active torsions:
REMARK  status: ('A' for Active; 'I' for Inactive)
REMARK    1  A    between atoms: C_1  and  C_2
REMARK    2  A    between atoms: C_10  and  C_12
REMARK    3  A    between atoms: C_12  and  N_13
REMARK    4  A    between atoms: N_16  and  C_17
REMARK    5  A    between atoms: C_17  and  C_18
REMARK    6  A    between atoms: C_27  and  C_28
REMARK                            x       y       z     vdW  Elec       q    Type
REMARK                         _______ _______ _______ _____ _____    ______ ____
ROOT
ATOM      1  C   UNL     1       1.190   8.185  19.254  0.00  0.00    +0.000 C 
ENDROOT
BRANCH   1  11
ATOM      2  C   UNL     1       1.796   3.156  17.846  0.00  0.00    +0.000 C 
ATOM      3  C   UNL     1       2.812   4.075  18.511  0.00  0.00    +0.000 C 
ATOM      4  C   UNL     1       3.827   4.616  17.549  0.00  0.00    +0.000 A 
ATOM      5  C   UNL     1       4.706   3.891  16.753  0.00  0.00    +0.000 A 
ATOM      6  C   UNL     1       5.571   4.584  15.905  0.00  0.00    +0.000 A 
ATOM      7  C   UNL     1       5.570   5.984  15.887  0.00  0.00    +0.000 A 
ATOM      8  C   UNL     1       4.681   6.703  16.691  0.00  0.00    +0.000 A 
ATOM      9  C   UNL     1       3.798   6.008  17.502  0.00  0.00    +0.000 A 
ATOM     10  N   UNL     1       2.777   6.518  18.335  0.00  0.00    +0.000 N 
ATOM     11  C   UNL     1       2.289   7.826  18.240  0.00  0.00    +0.000 C 
ATOM     12  O   UNL     1       2.696   8.650  17.416  0.00  0.00    +0.000 OA
ATOM     13  C   UNL     1       2.142   5.373  19.049  0.00  0.00    +0.000 C 
ATOM     14  C   UNL     1       2.281   5.431  20.575  0.00  0.00    +0.000 C 
ENDBRANCH   1  11
BRANCH   1  15
ATOM     15  N   UNL     1       1.589   9.200  20.257  0.00  0.00    +0.000 NA
ATOM     16  C   UNL     1       0.993  10.525  19.987  0.00  0.00    +0.000 C 
ATOM     17  C   UNL     1      -0.512  10.642  20.327  0.00  0.00    +0.000 C 
ATOM     18  N   UNL     1      -0.889  10.188  21.687  0.00  0.00    +0.000 NA
ATOM     19  C   UNL     1      -0.309   8.852  21.921  0.00  0.00    +0.000 C 
ATOM     20  C   UNL     1       1.206   8.750  21.611  0.00  0.00    +0.000 C 
BRANCH  18  21
ATOM     21  C   UNL     1      -0.464  11.129  22.743  0.00  0.00    +0.000 C 
BRANCH  21  22
ATOM     22  C   UNL     1      -1.480  12.230  22.959  0.00  0.00    +0.000 A 
ATOM     23  C   UNL     1      -1.083  13.576  22.908  0.00  0.00    +0.000 A 
ATOM     24  C   UNL     1      -1.964  14.581  23.300  0.00  0.00    +0.000 A 
ATOM     25  C   UNL     1      -3.249  14.251  23.734  0.00  0.00    +0.000 A 
ATOM     26 CL   UNL     1      -4.294  15.482  24.316  0.00  0.00    +0.000 Cl
ATOM     27  C   UNL     1      -3.675  12.922  23.728  0.00  0.00    +0.000 A 
ATOM     28  C   UNL     1      -2.796  11.916  23.337  0.00  0.00    +0.000 A 
ENDBRANCH  21  22
ENDBRANCH  18  21
ENDBRANCH   1  15
TORSDOF 4
ENDMDL
MODEL 3
REMARK VINA RESULT:      -7.7      1.896      3.044
REMARK  Name = 
REMARK  6 active torsions:
REMARK  status: ('A' for Active; 'I' for Inactive)
REMARK    1  A    between atoms: C_1  and  C_2
REMARK    2  A    between atoms: C_10  and  C_12
REMARK    3  A    between atoms: C_12  and  N_13
REMARK    4  A    between atoms: N_16  and  C_17
REMARK    5  A    between atoms: C_17  and  C_18
REMARK    6  A    between atoms: C_27  and  C_28
REMARK                            x       y       z     vdW  Elec       q    Type
REMARK                         _______ _______ _______ _____ _____    ______ ____
ROOT
ATOM      1  C   UNL     1       1.427   8.514  19.238  0.00  0.00    +0.000 C 
ENDROOT
BRANCH   1  11
ATOM      2  C   UNL     1       1.563   3.427  17.917  0.00  0.00    +0.000 C 
ATOM      3  C   UNL     1       2.669   4.266  18.542  0.00  0.00    +0.000 C 
ATOM      4  C   UNL     1       3.705   4.699  17.549  0.00  0.00    +0.000 A 
ATOM      5  C   UNL     1       4.500   3.886  16.749  0.00  0.00    +0.000 A 
ATOM      6  C   UNL     1       5.403   4.486  15.870  0.00  0.00    +0.000 A 
ATOM      7  C   UNL     1       5.522   5.880  15.825  0.00  0.00    +0.000 A 
ATOM      8  C   UNL     1       4.718   6.688  16.632  0.00  0.00    +0.000 A 
ATOM      9  C   UNL     1       3.796   6.087  17.475  0.00  0.00    +0.000 A 
ATOM     10  N   UNL     1       2.842   6.699  18.319  0.00  0.00    +0.000 N 
ATOM     11  C   UNL     1       2.467   8.042  18.209  0.00  0.00    +0.000 C 
ATOM     12  O   UNL     1       2.925   8.813  17.360  0.00  0.00    +0.000 OA
ATOM     13  C   UNL     1       2.126   5.626  19.069  0.00  0.00    +0.000 C 
ATOM     14  C   UNL     1       2.304   5.699  20.590  0.00  0.00    +0.000 C 
ENDBRANCH   1  11
BRANCH   1  15
ATOM     15  N   UNL     1       1.350   9.984  19.403  0.00  0.00    +0.000 NA
ATOM     16  C   UNL     1       0.264  10.586  18.600  0.00  0.00    +0.000 C 
ATOM     17  C   UNL     1      -1.161  10.353  19.156  0.00  0.00    +0.000 C 
ATOM     18  N   UNL     1      -1.343  10.695  20.587  0.00  0.00    +0.000 NA
ATOM     19  C   UNL     1      -0.267  10.058  21.370  0.00  0.00    +0.000 C 
ATOM     20  C   UNL     1       1.159  10.324  20.828  0.00  0.00    +0.000 C 
BRANCH  18  21
ATOM     21  C   UNL     1      -1.368  12.152  20.829  0.00  0.00    +0.000 C 
BRANCH  21  22
ATOM     22  C   UNL     1      -2.572  12.568  21.646  0.00  0.00    +0.000 A 
ATOM     23  C   UNL     1      -2.554  12.437  23.045  0.00  0.00    +0.000 A 
ATOM     24  C   UNL     1      -3.721  12.627  23.781  0.00  0.00    +0.000 A 
ATOM     25  C   UNL     1      -4.909  12.960  23.128  0.00  0.00    +0.000 A 
ATOM     26 CL   UNL     1      -6.367  13.089  24.026  0.00  0.00    +0.000 Cl
ATOM     27  C   UNL     1      -4.924  13.153  21.747  0.00  0.00    +0.000 A 
ATOM     28  C   UNL     1      -3.759  12.963  21.009  0.00  0.00    +0.000 A 
ENDBRANCH  21  22
ENDBRANCH  18  21
ENDBRANCH   1  15
TORSDOF 4
ENDMDL
MODEL 4
REMARK VINA RESULT:      -7.6      0.449      1.014
REMARK  Name = 
REMARK  6 active torsions:
REMARK  status: ('A' for Active; 'I' for Inactive)
REMARK    1  A    between atoms: C_1  and  C_2
REMARK    2  A    between atoms: C_10  and  C_12
REMARK    3  A    between atoms: C_12  and  N_13
REMARK    4  A    between atoms: N_16  and  C_17
REMARK    5  A    between atoms: C_17  and  C_18
REMARK    6  A    between atoms: C_27  and  C_28
REMARK                            x       y       z     vdW  Elec       q    Type
REMARK                         _______ _______ _______ _____ _____    ______ ____
ROOT
ATOM      1  C   UNL     1       1.692   8.178  20.690  0.00  0.00    +0.000 C 
ENDROOT
BRANCH   1  11
ATOM      2  C   UNL     1       5.562   6.823  17.398  0.00  0.00    +0.000 C 
ATOM      3  C   UNL     1       4.063   6.616  17.224  0.00  0.00    +0.000 C 
ATOM      4  C   UNL     1       3.630   5.212  17.520  0.00  0.00    +0.000 A 
ATOM      5  C   UNL     1       4.065   4.045  16.902  0.00  0.00    +0.000 A 
ATOM      6  C   UNL     1       3.548   2.823  17.335  0.00  0.00    +0.000 A 
ATOM      7  C   UNL     1       2.586   2.784  18.350  0.00  0.00    +0.000 A 
ATOM      8  C   UNL     1       2.156   3.962  18.966  0.00  0.00    +0.000 A 
ATOM      9  C   UNL     1       2.701   5.170  18.558  0.00  0.00    +0.000 A 
ATOM     10  N   UNL     1       2.472   6.463  19.080  0.00  0.00    +0.000 N 
ATOM     11  C   UNL     1       1.866   6.695  20.319  0.00  0.00    +0.000 C 
ATOM     12  O   UNL     1       1.487   5.796  21.075  0.00  0.00    +0.000 OA
ATOM     13  C   UNL     1       3.248   7.440  18.263  0.00  0.00    +0.000 C 
ATOM     14  C   UNL     1       2.382   8.476  17.535  0.00  0.00    +0.000 C 
ENDBRANCH   1  11
BRANCH   1  15
ATOM     15  N   UNL     1       0.319   8.700  20.502  0.00  0.00    +0.000 NA
ATOM     16  C   UNL     1      -0.463   8.696  21.756  0.00  0.00    +0.000 C 
ATOM     17  C   UNL     1      -0.077   9.804  22.766  0.00  0.00    +0.000 C 
ATOM     18  N   UNL     1      -0.026  11.176  22.207  0.00  0.00    +0.000 NA
ATOM     19  C   UNL     1       0.784  11.160  20.975  0.00  0.00    +0.000 C 
ATOM     20  C   UNL     1       0.371  10.071  19.954  0.00  0.00    +0.000 C 
BRANCH  18  21
ATOM     21  C   UNL     1      -1.367  11.736  21.939  0.00  0.00    +0.000 C 
BRANCH  21  22
ATOM     22  C   UNL     1      -1.636  12.976  22.763  0.00  0.00    +0.000 A 
ATOM     23  C   UNL     1      -0.700  14.023  22.787  0.00  0.00    +0.000 A 
ATOM     24  C   UNL     1      -0.846  15.072  23.692  0.00  0.00    +0.000 A 
ATOM     25  C   UNL     1      -1.931  15.088  24.570  0.00  0.00    +0.000 A 
ATOM     26 CL   UNL     1      -2.050  16.325  25.754  0.00  0.00    +0.000 Cl
ATOM     27  C   UNL     1      -2.900  14.086  24.511  0.00  0.00    +0.000 A 
ATOM     28  C   UNL     1      -2.756  13.037  23.607  0.00  0.00    +0.000 A 
ENDBRANCH  21  22
ENDBRANCH  18  21
ENDBRANCH   1  15
TORSDOF 4
ENDMDL
MODEL 5
REMARK VINA RESULT:      -7.4      1.102      1.354
REMARK  Name = 
REMARK  6 active torsions:
REMARK  status: ('A' for Active; 'I' for Inactive)
REMARK    1  A    between atoms: C_1  and  C_2
REMARK    2  A    between atoms: C_10  and  C_12
REMARK    3  A    between atoms: C_12  and  N_13
REMARK    4  A    between atoms: N_16  and  C_17
REMARK    5  A    between atoms: C_17  and  C_18
REMARK    6  A    between atoms: C_27  and  C_28
REMARK                            x       y       z     vdW  Elec       q    Type
REMARK                         _______ _______ _______ _____ _____    ______ ____
ROOT
ATOM      1  C   UNL     1       1.545   8.206  20.789  0.00  0.00    +0.000 C 
ENDROOT
BRANCH   1  11
ATOM      2  C   UNL     1       5.416   6.934  17.466  0.00  0.00    +0.000 C 
ATOM      3  C   UNL     1       3.920   6.703  17.300  0.00  0.00    +0.000 C 
ATOM      4  C   UNL     1       3.512   5.290  17.590  0.00  0.00    +0.000 A 
ATOM      5  C   UNL     1       3.962   4.135  16.962  0.00  0.00    +0.000 A 
ATOM      6  C   UNL     1       3.468   2.902  17.391  0.00  0.00    +0.000 A 
ATOM      7  C   UNL     1       2.512   2.841  18.412  0.00  0.00    +0.000 A 
ATOM      8  C   UNL     1       2.067   4.009  19.037  0.00  0.00    +0.000 A 
ATOM      9  C   UNL     1       2.590   5.228  18.634  0.00  0.00    +0.000 A 
ATOM     10  N   UNL     1       2.343   6.513  19.164  0.00  0.00    +0.000 N 
ATOM     11  C   UNL     1       1.741   6.729  20.408  0.00  0.00    +0.000 C 
ATOM     12  O   UNL     1       1.381   5.819  21.161  0.00  0.00    +0.000 OA
ATOM     13  C   UNL     1       3.098   7.508  18.348  0.00  0.00    +0.000 C 
ATOM     14  C   UNL     1       2.211   8.534  17.632  0.00  0.00    +0.000 C 
ENDBRANCH   1  11
BRANCH   1  15
ATOM     15  N   UNL     1       0.132   8.649  20.821  0.00  0.00    +0.000 NA
ATOM     16  C   UNL     1      -0.467   8.529  22.167  0.00  0.00    +0.000 C 
ATOM     17  C   UNL     1      -0.007   9.604  23.181  0.00  0.00    +0.000 C 
ATOM     18  N   UNL     1      -0.111  11.004  22.706  0.00  0.00    +0.000 NA
ATOM     19  C   UNL     1       0.521  11.105  21.376  0.00  0.00    +0.000 C 
ATOM     20  C   UNL     1       0.031  10.048  20.356  0.00  0.00    +0.000 C 
BRANCH  18  21
ATOM     21  C   UNL     1      -1.505  11.491  22.656  0.00  0.00    +0.000 C 
BRANCH  21  22
ATOM     22  C   UNL     1      -1.572  12.989  22.457  0.00  0.00    +0.000 A 
ATOM     23  C   UNL     1      -1.168  13.856  23.485  0.00  0.00    +0.000 A 
ATOM     24  C   UNL     1      -1.414  15.224  23.385  0.00  0.00    +0.000 A 
ATOM     25  C   UNL     1      -2.053  15.735  22.254  0.00  0.00    +0.000 A 
ATOM     26 CL   UNL     1      -2.448  17.404  22.181  0.00  0.00    +0.000 Cl
ATOM     27  C   UNL     1      -2.401  14.892  21.199  0.00  0.00    +0.000 A 
ATOM     28  C   UNL     1      -2.158  13.524  21.297  0.00  0.00    +0.000 A 
ENDBRANCH  21  22
ENDBRANCH  18  21
ENDBRANCH   1  15
TORSDOF 4
ENDMDL
MODEL 6
REMARK VINA RESULT:      -7.4      1.817      2.847
REMARK  Name = 
REMARK  6 active torsions:
REMARK  status: ('A' for Active; 'I' for Inactive)
REMARK    1  A    between atoms: C_1  and  C_2
REMARK    2  A    between atoms: C_10  and  C_12
REMARK    3  A    between atoms: C_12  and  N_13
REMARK    4  A    between atoms: N_16  and  C_17
REMARK    5  A    between atoms: C_17  and  C_18
REMARK    6  A    between atoms: C_27  and  C_28
REMARK                            x       y       z     vdW  Elec       q    Type
REMARK                         _______ _______ _______ _____ _____    ______ ____
ROOT
ATOM      1  C   UNL     1       1.490   8.631  19.371  0.00  0.00    +0.000 C 
ENDROOT
BRANCH   1  11
ATOM      2  C   UNL     1       1.496   3.544  18.043  0.00  0.00    +0.000 C 
ATOM      3  C   UNL     1       2.646   4.372  18.600  0.00  0.00    +0.000 C 
ATOM      4  C   UNL     1       3.625   4.795  17.547  0.00  0.00    +0.000 A 
ATOM      5  C   UNL     1       4.362   3.975  16.701  0.00  0.00    +0.000 A 
ATOM      6  C   UNL     1       5.216   4.567  15.769  0.00  0.00    +0.000 A 
ATOM      7  C   UNL     1       5.347   5.960  15.717  0.00  0.00    +0.000 A 
ATOM      8  C   UNL     1       4.600   6.775  16.571  0.00  0.00    +0.000 A 
ATOM      9  C   UNL     1       3.724   6.183  17.468  0.00  0.00    +0.000 A 
ATOM     10  N   UNL     1       2.829   6.803  18.368  0.00  0.00    +0.000 N 
ATOM     11  C   UNL     1       2.462   8.150  18.281  0.00  0.00    +0.000 C 
ATOM     12  O   UNL     1       2.876   8.917  17.406  0.00  0.00    +0.000 OA
ATOM     13  C   UNL     1       2.149   5.737  19.159  0.00  0.00    +0.000 C 
ATOM     14  C   UNL     1       2.419   5.807  20.667  0.00  0.00    +0.000 C 
ENDBRANCH   1  11
BRANCH   1  15
ATOM     15  N   UNL     1       0.603   9.743  18.955  0.00  0.00    +0.000 NA
ATOM     16  C   UNL     1      -0.745   9.643  19.554  0.00  0.00    +0.000 C 
ATOM     17  C   UNL     1      -0.818  10.019  21.054  0.00  0.00    +0.000 C 
ATOM     18  N   UNL     1      -0.203  11.320  21.408  0.00  0.00    +0.000 NA
ATOM     19  C   UNL     1       1.151  11.383  20.826  0.00  0.00    +0.000 C 
ATOM     20  C   UNL     1       1.213  11.038  19.317  0.00  0.00    +0.000 C 
BRANCH  18  21
ATOM     21  C   UNL     1      -1.011  12.476  20.966  0.00  0.00    +0.000 C 
BRANCH  21  22
ATOM     22  C   UNL     1      -2.354  12.524  21.662  0.00  0.00    +0.000 A 
ATOM     23  C   UNL     1      -3.515  12.830  20.934  0.00  0.00    +0.000 A 
ATOM     24  C   UNL     1      -4.715  13.071  21.599  0.00  0.00    +0.000 A 
ATOM     25  C   UNL     1      -4.767  12.996  22.992  0.00  0.00    +0.000 A 
ATOM     26 CL   UNL     1      -6.220  13.397  23.812  0.00  0.00    +0.000 Cl
ATOM     27  C   UNL     1      -3.635  12.631  23.720  0.00  0.00    +0.000 A 
ATOM     28  C   UNL     1      -2.434  12.391  23.058  0.00  0.00    +0.000 A 
ENDBRANCH  21  22
ENDBRANCH  18  21
ENDBRANCH   1  15
TORSDOF 4
ENDMDL
MODEL 7
REMARK VINA RESULT:      -7.4      1.584      2.687
REMARK  Name = 
REMARK  6 active torsions:
REMARK  status: ('A' for Active; 'I' for Inactive)
REMARK    1  A    between atoms: C_1  and  C_2
REMARK    2  A    between atoms: C_10  and  C_12
REMARK    3  A    between atoms: C_12  and  N_13
REMARK    4  A    between atoms: N_16  and  C_17
REMARK    5  A    between atoms: C_17  and  C_18
REMARK    6  A    between atoms: C_27  and  C_28
REMARK                            x       y       z     vdW  Elec       q    Type
REMARK                         _______ _______ _______ _____ _____    ______ ____
ROOT
ATOM      1  C   UNL     1       1.568   8.611  19.036  0.00  0.00    +0.000 C 
ENDROOT
BRANCH   1  11
ATOM      2  C   UNL     1       1.541   3.455  18.009  0.00  0.00    +0.000 C 
ATOM      3  C   UNL     1       2.676   4.294  18.579  0.00  0.00    +0.000 C 
ATOM      4  C   UNL     1       3.718   4.637  17.558  0.00  0.00    +0.000 A 
ATOM      5  C   UNL     1       4.483   3.756  16.802  0.00  0.00    +0.000 A 
ATOM      6  C   UNL     1       5.397   4.277  15.885  0.00  0.00    +0.000 A 
ATOM      7  C   UNL     1       5.559   5.662  15.759  0.00  0.00    +0.000 A 
ATOM      8  C   UNL     1       4.784   6.539  16.523  0.00  0.00    +0.000 A 
ATOM      9  C   UNL     1       3.850   6.016  17.404  0.00  0.00    +0.000 A 
ATOM     10  N   UNL     1       2.921   6.704  18.216  0.00  0.00    +0.000 N 
ATOM     11  C   UNL     1       2.586   8.049  18.030  0.00  0.00    +0.000 C 
ATOM     12  O   UNL     1       3.062   8.756  17.136  0.00  0.00    +0.000 OA
ATOM     13  C   UNL     1       2.178   5.698  19.030  0.00  0.00    +0.000 C 
ATOM     14  C   UNL     1       2.368   5.853  20.543  0.00  0.00    +0.000 C 
ENDBRANCH   1  11
BRANCH   1  15
ATOM     15  N   UNL     1       1.375  10.078  18.960  0.00  0.00    +0.000 NA
ATOM     16  C   UNL     1       0.119  10.447  18.273  0.00  0.00    +0.000 C 
ATOM     17  C   UNL     1      -1.166  10.226  19.106  0.00  0.00    +0.000 C 
ATOM     18  N   UNL     1      -1.144  10.812  20.467  0.00  0.00    +0.000 NA
ATOM     19  C   UNL     1       0.102  10.405  21.142  0.00  0.00    +0.000 C 
ATOM     20  C   UNL     1       1.388  10.661  20.317  0.00  0.00    +0.000 C 
BRANCH  18  21
ATOM     21  C   UNL     1      -1.272  12.285  20.458  0.00  0.00    +0.000 C 
BRANCH  21  22
ATOM     22  C   UNL     1      -1.650  12.826  21.820  0.00  0.00    +0.000 A 
ATOM     23  C   UNL     1      -2.917  12.552  22.361  0.00  0.00    +0.000 A 
ATOM     24  C   UNL     1      -3.342  13.207  23.515  0.00  0.00    +0.000 A 
ATOM     25  C   UNL     1      -2.502  14.129  24.141  0.00  0.00    +0.000 A 
ATOM     26 CL   UNL     1      -3.070  15.011  25.500  0.00  0.00    +0.000 Cl
ATOM     27  C   UNL     1      -1.218  14.362  23.648  0.00  0.00    +0.000 A 
ATOM     28  C   UNL     1      -0.791  13.709  22.495  0.00  0.00    +0.000 A 
ENDBRANCH  21  22
ENDBRANCH  18  21
ENDBRANCH   1  15
TORSDOF 4
ENDMDL
MODEL 8
REMARK VINA RESULT:      -7.3      3.928     10.857
REMARK  Name = 
REMARK  6 active torsions:
REMARK  status: ('A' for Active; 'I' for Inactive)
REMARK    1  A    between atoms: C_1  and  C_2
REMARK    2  A    between atoms: C_10  and  C_12
REMARK    3  A    between atoms: C_12  and  N_13
REMARK    4  A    between atoms: N_16  and  C_17
REMARK    5  A    between atoms: C_17  and  C_18
REMARK    6  A    between atoms: C_27  and  C_28
REMARK                            x       y       z     vdW  Elec       q    Type
REMARK                         _______ _______ _______ _____ _____    ______ ____
ROOT
ATOM      1  C   UNL     1      -1.770  11.855  22.574  0.00  0.00    +0.000 C 
ENDROOT
BRANCH   1  11
ATOM      2  C   UNL     1      -6.715  12.939  23.995  0.00  0.00    +0.000 C 
ATOM      3  C   UNL     1      -5.824  13.709  23.029  0.00  0.00    +0.000 C 
ATOM      4  C   UNL     1      -5.226  14.940  23.642  0.00  0.00    +0.000 A 
ATOM      5  C   UNL     1      -5.902  16.022  24.194  0.00  0.00    +0.000 A 
ATOM      6  C   UNL     1      -5.159  17.073  24.732  0.00  0.00    +0.000 A 
ATOM      7  C   UNL     1      -3.760  17.047  24.683  0.00  0.00    +0.000 A 
ATOM      8  C   UNL     1      -3.091  15.954  24.126  0.00  0.00    +0.000 A 
ATOM      9  C   UNL     1      -3.833  14.895  23.629  0.00  0.00    +0.000 A 
ATOM     10  N   UNL     1      -3.375  13.671  23.091  0.00  0.00    +0.000 N 
ATOM     11  C   UNL     1      -2.068  13.201  23.256  0.00  0.00    +0.000 C 
ATOM     12  O   UNL     1      -1.199  13.803  23.893  0.00  0.00    +0.000 OA
ATOM     13  C   UNL     1      -4.561  12.887  22.639  0.00  0.00    +0.000 C 
ATOM     14  C   UNL     1      -4.581  12.594  21.133  0.00  0.00    +0.000 C 
ENDBRANCH   1  11
BRANCH   1  15
ATOM     15  N   UNL     1      -0.382  11.369  22.756  0.00  0.00    +0.000 NA
ATOM     16  C   UNL     1      -0.332   9.987  23.279  0.00  0.00    +0.000 C 
ATOM     17  C   UNL     1      -0.683   8.889  22.246  0.00  0.00    +0.000 C 
ATOM     18  N   UNL     1       0.056   8.970  20.964  0.00  0.00    +0.000 NA
ATOM     19  C   UNL     1      -0.035  10.349  20.447  0.00  0.00    +0.000 C 
ATOM     20  C   UNL     1       0.350  11.442  21.475  0.00  0.00    +0.000 C 
BRANCH  18  21
ATOM     21  C   UNL     1       1.468   8.555  21.089  0.00  0.00    +0.000 C 
BRANCH  21  22
ATOM     22  C   UNL     1       1.816   7.442  20.125  0.00  0.00    +0.000 A 
ATOM     23  C   UNL     1       1.756   6.102  20.544  0.00  0.00    +0.000 A 
ATOM     24  C   UNL     1       2.263   5.092  19.730  0.00  0.00    +0.000 A 
ATOM     25  C   UNL     1       2.822   5.409  18.491  0.00  0.00    +0.000 A 
ATOM     26 CL   UNL     1       3.541   4.174  17.540  0.00  0.00    +0.000 Cl
ATOM     27  C   UNL     1       2.830   6.729  18.039  0.00  0.00    +0.000 A 
ATOM     28  C   UNL     1       2.324   7.741  18.850  0.00  0.00    +0.000 A 
ENDBRANCH  21  22
ENDBRANCH  18  21
ENDBRANCH   1  15
TORSDOF 4
ENDMDL
MODEL 9
REMARK VINA RESULT:      -7.3      1.072      2.253
REMARK  Name = 
REMARK  6 active torsions:
REMARK  status: ('A' for Active; 'I' for Inactive)
REMARK    1  A    between atoms: C_1  and  C_2
REMARK    2  A    between atoms: C_10  and  C_12
REMARK    3  A    between atoms: C_12  and  N_13
REMARK    4  A    between atoms: N_16  and  C_17
REMARK    5  A    between atoms: C_17  and  C_18
REMARK    6  A    between atoms: C_27  and  C_28
REMARK                            x       y       z     vdW  Elec       q    Type
REMARK                         _______ _______ _______ _____ _____    ______ ____
ROOT
ATOM      1  C   UNL     1       1.646   7.920  20.505  0.00  0.00    +0.000 C 
ENDROOT
BRANCH   1  11
ATOM      2  C   UNL     1       1.149   3.132  18.392  0.00  0.00    +0.000 C 
ATOM      3  C   UNL     1       2.400   3.778  18.972  0.00  0.00    +0.000 C 
ATOM      4  C   UNL     1       3.328   4.304  17.918  0.00  0.00    +0.000 A 
ATOM      5  C   UNL     1       3.932   3.588  16.891  0.00  0.00    +0.000 A 
ATOM      6  C   UNL     1       4.758   4.267  15.995  0.00  0.00    +0.000 A 
ATOM      7  C   UNL     1       4.994   5.638  16.152  0.00  0.00    +0.000 A 
ATOM      8  C   UNL     1       4.380   6.348  17.187  0.00  0.00    +0.000 A 
ATOM      9  C   UNL     1       3.531   5.676  18.052  0.00  0.00    +0.000 A 
ATOM     10  N   UNL     1       2.757   6.197  19.113  0.00  0.00    +0.000 N 
ATOM     11  C   UNL     1       2.492   7.562  19.272  0.00  0.00    +0.000 C 
ATOM     12  O   UNL     1       2.899   8.433  18.498  0.00  0.00    +0.000 OA
ATOM     13  C   UNL     1       2.056   5.063  19.781  0.00  0.00    +0.000 C 
ATOM     14  C   UNL     1       2.443   4.866  21.252  0.00  0.00    +0.000 C 
ENDBRANCH   1  11
BRANCH   1  15
ATOM     15  N   UNL     1       0.359   8.585  20.194  0.00  0.00    +0.000 NA
ATOM     16  C   UNL     1      -0.580   8.558  21.335  0.00  0.00    +0.000 C 
ATOM     17  C   UNL     1      -0.239   9.542  22.481  0.00  0.00    +0.000 C 
ATOM     18  N   UNL     1       0.001  10.942  22.058  0.00  0.00    +0.000 NA
ATOM     19  C   UNL     1       0.964  10.944  20.941  0.00  0.00    +0.000 C 
ATOM     20  C   UNL     1       0.599   9.983  19.782  0.00  0.00    +0.000 C 
BRANCH  18  21
ATOM     21  C   UNL     1      -1.240  11.646  21.675  0.00  0.00    +0.000 C 
BRANCH  21  22
ATOM     22  C   UNL     1      -1.700  12.604  22.752  0.00  0.00    +0.000 A 
ATOM     23  C   UNL     1      -2.968  12.452  23.337  0.00  0.00    +0.000 A 
ATOM     24  C   UNL     1      -3.474  13.440  24.178  0.00  0.00    +0.000 A 
ATOM     25  C   UNL     1      -2.714  14.579  24.450  0.00  0.00    +0.000 A 
ATOM     26 CL   UNL     1      -3.384  15.842  25.401  0.00  0.00    +0.000 Cl
ATOM     27  C   UNL     1      -1.429  14.712  23.924  0.00  0.00    +0.000 A 
ATOM     28  C   UNL     1      -0.921  13.725  23.082  0.00  0.00    +0.000 A 
ENDBRANCH  21  22
ENDBRANCH  18  21
ENDBRANCH   1  15
TORSDOF 4
ENDMDL
