MODEL 1
REMARK VINA RESULT:      -8.1      0.000      0.000
REMARK  Name = 
REMARK  3 active torsions:
REMARK  status: ('A' for Active; 'I' for Inactive)
REMARK    1  A    between atoms: C_1  and  N_2
REMARK    2  A    between atoms: C_5  and  C_6
REMARK    3  A    between atoms: C_12  and  C_13
REMARK                            x       y       z     vdW  Elec       q    Type
REMARK                         _______ _______ _______ _____ _____    ______ ____
ROOT
ATOM      1  C   UNL     1       6.455   4.650  14.456  0.00  0.00    +0.000 A 
ATOM      2  N   UNL     1       7.540   5.441  14.431  0.00  0.00    +0.000 NA
ATOM      3  N   UNL     1       7.604   5.933  15.680  0.00  0.00    +0.000 N 
ATOM      4  C   UNL     1       6.610   5.496  16.507  0.00  0.00    +0.000 A 
ATOM      5  C   UNL     1       6.322   5.760  17.834  0.00  0.00    +0.000 A 
ATOM      6  N   UNL     1       5.250   5.155  18.401  0.00  0.00    +0.000 NA
ATOM      7  C   UNL     1       4.468   4.311  17.676  0.00  0.00    +0.000 A 
ATOM      8  C   UNL     1       4.729   4.022  16.337  0.00  0.00    +0.000 A 
ATOM      9  C   UNL     1       5.836   4.641  15.737  0.00  0.00    +0.000 A 
ATOM     10  H   UNL     1       8.363   6.569  15.904  0.00  0.00    +0.000 HD
ENDROOT
BRANCH   1  15
ATOM     11  C   UNL     1       3.555   3.024  10.919  0.00  0.00    +0.000 C 
ATOM     12  N   UNL     1       4.743   3.158  11.727  0.00  0.00    +0.000 N 
ATOM     13  C   UNL     1       5.934   2.522  11.549  0.00  0.00    +0.000 A 
ATOM     14  C   UNL     1       6.759   2.982  12.550  0.00  0.00    +0.000 A 
ATOM     15  C   UNL     1       5.970   3.897  13.285  0.00  0.00    +0.000 A 
ATOM     16  N   UNL     1       4.733   4.000  12.775  0.00  0.00    +0.000 NA
ENDBRANCH   1  15
BRANCH   7  17
ATOM     17  C   UNL     1       3.338   3.703  18.402  0.00  0.00    +0.000 A 
ATOM     18  C   UNL     1       2.066   3.527  17.831  0.00  0.00    +0.000 A 
ATOM     19  C   UNL     1       1.039   2.921  18.555  0.00  0.00    +0.000 A 
ATOM     20  C   UNL     1       1.303   2.506  19.846  0.00  0.00    +0.000 A 
ATOM     21  N   UNL     1       2.498   2.659  20.449  0.00  0.00    +0.000 NA
ATOM     22  C   UNL     1       3.476   3.256  19.717  0.00  0.00    +0.000 A 
ENDBRANCH   7  17
TORSDOF 2
ENDMDL
MODEL 2
REMARK VINA RESULT:      -8.0      0.895      1.057
REMARK  Name = 
REMARK  3 active torsions:
REMARK  status: ('A' for Active; 'I' for Inactive)
REMARK    1  A    between atoms: C_1  and  N_2
REMARK    2  A    between atoms: C_5  and  C_6
REMARK    3  A    between atoms: C_12  and  C_13
REMARK                            x       y       z     vdW  Elec       q    Type
REMARK                         _______ _______ _______ _____ _____    ______ ____
ROOT
ATOM      1  C   UNL     1       6.561   4.858  14.840  0.00  0.00    +0.000 A 
ATOM      2  N   UNL     1       7.670   5.605  14.968  0.00  0.00    +0.000 NA
ATOM      3  N   UNL     1       7.601   6.062  16.231  0.00  0.00    +0.000 N 
ATOM      4  C   UNL     1       6.498   5.645  16.919  0.00  0.00    +0.000 A 
ATOM      5  C   UNL     1       6.062   5.887  18.209  0.00  0.00    +0.000 A 
ATOM      6  N   UNL     1       4.908   5.311  18.625  0.00  0.00    +0.000 NA
ATOM      7  C   UNL     1       4.188   4.518  17.786  0.00  0.00    +0.000 A 
ATOM      8  C   UNL     1       4.598   4.253  16.480  0.00  0.00    +0.000 A 
ATOM      9  C   UNL     1       5.792   4.842  16.036  0.00  0.00    +0.000 A 
ATOM     10  H   UNL     1       8.350   6.661  16.563  0.00  0.00    +0.000 HD
ENDROOT
BRANCH   1  15
ATOM     11  C   UNL     1       3.904   2.990  11.233  0.00  0.00    +0.000 C 
ATOM     12  N   UNL     1       5.077   3.324  12.003  0.00  0.00    +0.000 N 
ATOM     13  C   UNL     1       6.373   3.041  11.691  0.00  0.00    +0.000 A 
ATOM     14  C   UNL     1       7.129   3.571  12.712  0.00  0.00    +0.000 A 
ATOM     15  C   UNL     1       6.193   4.155  13.597  0.00  0.00    +0.000 A 
ATOM     16  N   UNL     1       4.936   4.000  13.156  0.00  0.00    +0.000 NA
ENDBRANCH   1  15
BRANCH   7  17
ATOM     17  C   UNL     1       2.957   3.939  18.353  0.00  0.00    +0.000 A 
ATOM     18  C   UNL     1       2.318   4.460  19.490  0.00  0.00    +0.000 A 
ATOM     19  C   UNL     1       1.138   3.888  19.968  0.00  0.00    +0.000 A 
ATOM     20  C   UNL     1       0.620   2.796  19.299  0.00  0.00    +0.000 A 
ATOM     21  N   UNL     1       1.195   2.248  18.210  0.00  0.00    +0.000 NA
ATOM     22  C   UNL     1       2.344   2.827  17.773  0.00  0.00    +0.000 A 
ENDBRANCH   7  17
TORSDOF 2
ENDMDL
MODEL 3
REMARK VINA RESULT:      -8.0      1.116      1.471
REMARK  Name = 
REMARK  3 active torsions:
REMARK  status: ('A' for Active; 'I' for Inactive)
REMARK    1  A    between atoms: C_1  and  N_2
REMARK    2  A    between atoms: C_5  and  C_6
REMARK    3  A    between atoms: C_12  and  C_13
REMARK                            x       y       z     vdW  Elec       q    Type
REMARK                         _______ _______ _______ _____ _____    ______ ____
ROOT
ATOM      1  C   UNL     1       6.424   4.605  14.431  0.00  0.00    +0.000 A 
ATOM      2  N   UNL     1       7.537   5.358  14.432  0.00  0.00    +0.000 NA
ATOM      3  N   UNL     1       7.537   5.924  15.651  0.00  0.00    +0.000 N 
ATOM      4  C   UNL     1       6.476   5.570  16.434  0.00  0.00    +0.000 A 
ATOM      5  C   UNL     1       6.112   5.925  17.721  0.00  0.00    +0.000 A 
ATOM      6  N   UNL     1       4.985   5.390  18.249  0.00  0.00    +0.000 NA
ATOM      7  C   UNL     1       4.222   4.528  17.524  0.00  0.00    +0.000 A 
ATOM      8  C   UNL     1       4.559   4.149  16.226  0.00  0.00    +0.000 A 
ATOM      9  C   UNL     1       5.724   4.694  15.665  0.00  0.00    +0.000 A 
ATOM     10  H   UNL     1       8.302   6.547  15.888  0.00  0.00    +0.000 HD
ENDROOT
BRANCH   1  15
ATOM     11  C   UNL     1       6.404   1.264  10.909  0.00  0.00    +0.000 C 
ATOM     12  N   UNL     1       5.936   2.357  11.727  0.00  0.00    +0.000 N 
ATOM     13  C   UNL     1       4.742   3.006  11.627  0.00  0.00    +0.000 A 
ATOM     14  C   UNL     1       4.745   3.953  12.625  0.00  0.00    +0.000 A 
ATOM     15  C   UNL     1       5.990   3.797  13.277  0.00  0.00    +0.000 A 
ATOM     16  N   UNL     1       6.717   2.815  12.721  0.00  0.00    +0.000 NA
ENDBRANCH   1  15
BRANCH   7  17
ATOM     17  C   UNL     1       3.025   4.003  18.207  0.00  0.00    +0.000 A 
ATOM     18  C   UNL     1       2.474   4.599  19.354  0.00  0.00    +0.000 A 
ATOM     19  C   UNL     1       1.323   4.075  19.945  0.00  0.00    +0.000 A 
ATOM     20  C   UNL     1       0.746   2.955  19.377  0.00  0.00    +0.000 A 
ATOM     21  N   UNL     1       1.237   2.335  18.286  0.00  0.00    +0.000 NA
ATOM     22  C   UNL     1       2.360   2.869  17.737  0.00  0.00    +0.000 A 
ENDBRANCH   7  17
TORSDOF 2
ENDMDL
MODEL 4
REMARK VINA RESULT:      -8.0      1.022      1.285
REMARK  Name = 
REMARK  3 active torsions:
REMARK  status: ('A' for Active; 'I' for Inactive)
REMARK    1  A    between atoms: C_1  and  N_2
REMARK    2  A    between atoms: C_5  and  C_6
REMARK    3  A    between atoms: C_12  and  C_13
REMARK                            x       y       z     vdW  Elec       q    Type
REMARK                         _______ _______ _______ _____ _____    ______ ____
ROOT
ATOM      1  C   UNL     1       6.409   4.606  14.431  0.00  0.00    +0.000 A 
ATOM      2  N   UNL     1       7.523   5.357  14.427  0.00  0.00    +0.000 NA
ATOM      3  N   UNL     1       7.532   5.920  15.648  0.00  0.00    +0.000 N 
ATOM      4  C   UNL     1       6.475   5.565  16.437  0.00  0.00    +0.000 A 
ATOM      5  C   UNL     1       6.121   5.917  17.727  0.00  0.00    +0.000 A 
ATOM      6  N   UNL     1       4.997   5.382  18.261  0.00  0.00    +0.000 NA
ATOM      7  C   UNL     1       4.227   4.524  17.540  0.00  0.00    +0.000 A 
ATOM      8  C   UNL     1       4.554   4.148  16.238  0.00  0.00    +0.000 A 
ATOM      9  C   UNL     1       5.717   4.693  15.671  0.00  0.00    +0.000 A 
ATOM     10  H   UNL     1       8.299   6.541  15.881  0.00  0.00    +0.000 HD
ENDROOT
BRANCH   1  15
ATOM     11  C   UNL     1       6.327   1.233  10.942  0.00  0.00    +0.000 C 
ATOM     12  N   UNL     1       5.885   2.349  11.741  0.00  0.00    +0.000 N 
ATOM     13  C   UNL     1       4.717   3.039  11.615  0.00  0.00    +0.000 A 
ATOM     14  C   UNL     1       4.736   3.996  12.604  0.00  0.00    +0.000 A 
ATOM     15  C   UNL     1       5.965   3.802  13.278  0.00  0.00    +0.000 A 
ATOM     16  N   UNL     1       6.665   2.790  12.743  0.00  0.00    +0.000 NA
ENDBRANCH   1  15
BRANCH   7  17
ATOM     17  C   UNL     1       3.034   3.999  18.230  0.00  0.00    +0.000 A 
ATOM     18  C   UNL     1       2.420   2.785  17.880  0.00  0.00    +0.000 A 
ATOM     19  C   UNL     1       1.308   2.322  18.585  0.00  0.00    +0.000 A 
ATOM     20  C   UNL     1       0.826   3.090  19.628  0.00  0.00    +0.000 A 
ATOM     21  N   UNL     1       1.368   4.266  20.001  0.00  0.00    +0.000 NA
ATOM     22  C   UNL     1       2.447   4.690  19.291  0.00  0.00    +0.000 A 
ENDBRANCH   7  17
TORSDOF 2
ENDMDL
MODEL 5
REMARK VINA RESULT:      -7.8      3.679      7.279
REMARK  Name = 
REMARK  3 active torsions:
REMARK  status: ('A' for Active; 'I' for Inactive)
REMARK    1  A    between atoms: C_1  and  N_2
REMARK    2  A    between atoms: C_5  and  C_6
REMARK    3  A    between atoms: C_12  and  C_13
REMARK                            x       y       z     vdW  Elec       q    Type
REMARK                         _______ _______ _______ _____ _____    ______ ____
ROOT
ATOM      1  C   UNL     1       2.264   6.887  19.708  0.00  0.00    +0.000 A 
ATOM      2  N   UNL     1       1.790   6.341  20.841  0.00  0.00    +0.000 NA
ATOM      3  N   UNL     1       2.374   5.131  20.879  0.00  0.00    +0.000 N 
ATOM      4  C   UNL     1       3.202   4.873  19.824  0.00  0.00    +0.000 A 
ATOM      5  C   UNL     1       3.971   3.772  19.494  0.00  0.00    +0.000 A 
ATOM      6  N   UNL     1       4.717   3.814  18.363  0.00  0.00    +0.000 NA
ATOM      7  C   UNL     1       4.701   4.914  17.564  0.00  0.00    +0.000 A 
ATOM      8  C   UNL     1       3.937   6.041  17.865  0.00  0.00    +0.000 A 
ATOM      9  C   UNL     1       3.161   6.012  19.034  0.00  0.00    +0.000 A 
ATOM     10  H   UNL     1       2.164   4.524  21.664  0.00  0.00    +0.000 HD
ENDROOT
BRANCH   1  15
ATOM     11  C   UNL     1       0.395  11.365  19.600  0.00  0.00    +0.000 C 
ATOM     12  N   UNL     1       1.084  10.186  19.136  0.00  0.00    +0.000 N 
ATOM     13  C   UNL     1       1.686  10.007  17.926  0.00  0.00    +0.000 A 
ATOM     14  C   UNL     1       2.218   8.739  17.954  0.00  0.00    +0.000 A 
ATOM     15  C   UNL     1       1.882   8.228  19.230  0.00  0.00    +0.000 A 
ATOM     16  N   UNL     1       1.186   9.121  19.950  0.00  0.00    +0.000 NA
ENDBRANCH   1  15
BRANCH   7  17
ATOM     17  C   UNL     1       5.559   4.847  16.367  0.00  0.00    +0.000 A 
ATOM     18  C   UNL     1       5.233   4.088  15.231  0.00  0.00    +0.000 A 
ATOM     19  C   UNL     1       6.070   4.083  14.114  0.00  0.00    +0.000 A 
ATOM     20  C   UNL     1       7.227   4.837  14.158  0.00  0.00    +0.000 A 
ATOM     21  N   UNL     1       7.595   5.576  15.223  0.00  0.00    +0.000 NA
ATOM     22  C   UNL     1       6.760   5.556  16.295  0.00  0.00    +0.000 A 
ENDBRANCH   7  17
TORSDOF 2
ENDMDL
MODEL 6
REMARK VINA RESULT:      -7.7      3.706      5.427
REMARK  Name = 
REMARK  3 active torsions:
REMARK  status: ('A' for Active; 'I' for Inactive)
REMARK    1  A    between atoms: C_1  and  N_2
REMARK    2  A    between atoms: C_5  and  C_6
REMARK    3  A    between atoms: C_12  and  C_13
REMARK                            x       y       z     vdW  Elec       q    Type
REMARK                         _______ _______ _______ _____ _____    ______ ____
ROOT
ATOM      1  C   UNL     1       4.520   3.798  18.613  0.00  0.00    +0.000 A 
ATOM      2  N   UNL     1       4.435   2.626  19.265  0.00  0.00    +0.000 NA
ATOM      3  N   UNL     1       3.495   2.849  20.199  0.00  0.00    +0.000 N 
ATOM      4  C   UNL     1       2.971   4.110  20.179  0.00  0.00    +0.000 A 
ATOM      5  C   UNL     1       2.008   4.728  20.956  0.00  0.00    +0.000 A 
ATOM      6  N   UNL     1       1.680   6.015  20.684  0.00  0.00    +0.000 NA
ATOM      7  C   UNL     1       2.293   6.687  19.674  0.00  0.00    +0.000 A 
ATOM      8  C   UNL     1       3.268   6.096  18.872  0.00  0.00    +0.000 A 
ATOM      9  C   UNL     1       3.618   4.763  19.140  0.00  0.00    +0.000 A 
ATOM     10  H   UNL     1       3.253   2.088  20.825  0.00  0.00    +0.000 HD
ENDROOT
BRANCH   1  15
ATOM     11  C   UNL     1       6.332   4.048  14.117  0.00  0.00    +0.000 C 
ATOM     12  N   UNL     1       6.282   4.170  15.554  0.00  0.00    +0.000 N 
ATOM     13  C   UNL     1       7.256   4.657  16.373  0.00  0.00    +0.000 A 
ATOM     14  C   UNL     1       6.745   4.589  17.648  0.00  0.00    +0.000 A 
ATOM     15  C   UNL     1       5.449   4.042  17.495  0.00  0.00    +0.000 A 
ATOM     16  N   UNL     1       5.172   3.787  16.207  0.00  0.00    +0.000 NA
ENDBRANCH   1  15
BRANCH   7  17
ATOM     17  C   UNL     1       1.847   8.077  19.466  0.00  0.00    +0.000 A 
ATOM     18  C   UNL     1       2.021   8.765  18.254  0.00  0.00    +0.000 A 
ATOM     19  C   UNL     1       1.555  10.072  18.104  0.00  0.00    +0.000 A 
ATOM     20  C   UNL     1       0.924  10.670  19.178  0.00  0.00    +0.000 A 
ATOM     21  N   UNL     1       0.739  10.064  20.366  0.00  0.00    +0.000 NA
ATOM     22  C   UNL     1       1.208   8.793  20.480  0.00  0.00    +0.000 A 
ENDBRANCH   7  17
TORSDOF 2
ENDMDL
MODEL 7
REMARK VINA RESULT:      -7.5      3.721      5.446
REMARK  Name = 
REMARK  3 active torsions:
REMARK  status: ('A' for Active; 'I' for Inactive)
REMARK    1  A    between atoms: C_1  and  N_2
REMARK    2  A    between atoms: C_5  and  C_6
REMARK    3  A    between atoms: C_12  and  C_13
REMARK                            x       y       z     vdW  Elec       q    Type
REMARK                         _______ _______ _______ _____ _____    ______ ____
ROOT
ATOM      1  C   UNL     1       4.533   3.906  18.486  0.00  0.00    +0.000 A 
ATOM      2  N   UNL     1       4.449   2.759  19.181  0.00  0.00    +0.000 NA
ATOM      3  N   UNL     1       3.523   3.023  20.119  0.00  0.00    +0.000 N 
ATOM      4  C   UNL     1       3.007   4.286  20.059  0.00  0.00    +0.000 A 
ATOM      5  C   UNL     1       2.059   4.939  20.826  0.00  0.00    +0.000 A 
ATOM      6  N   UNL     1       1.737   6.217  20.512  0.00  0.00    +0.000 NA
ATOM      7  C   UNL     1       2.341   6.848  19.470  0.00  0.00    +0.000 A 
ATOM      8  C   UNL     1       3.301   6.220  18.677  0.00  0.00    +0.000 A 
ATOM      9  C   UNL     1       3.645   4.896  18.989  0.00  0.00    +0.000 A 
ATOM     10  H   UNL     1       3.284   2.286  20.775  0.00  0.00    +0.000 HD
ENDROOT
BRANCH   1  15
ATOM     11  C   UNL     1       6.272   4.015  13.956  0.00  0.00    +0.000 C 
ATOM     12  N   UNL     1       6.251   4.167  15.390  0.00  0.00    +0.000 N 
ATOM     13  C   UNL     1       7.251   4.645  16.182  0.00  0.00    +0.000 A 
ATOM     14  C   UNL     1       6.761   4.616  17.466  0.00  0.00    +0.000 A 
ATOM     15  C   UNL     1       5.449   4.102  17.347  0.00  0.00    +0.000 A 
ATOM     16  N   UNL     1       5.142   3.828  16.070  0.00  0.00    +0.000 NA
ENDBRANCH   1  15
BRANCH   7  17
ATOM     17  C   UNL     1       1.902   8.233  19.218  0.00  0.00    +0.000 A 
ATOM     18  C   UNL     1       1.160   8.982  20.146  0.00  0.00    +0.000 A 
ATOM     19  C   UNL     1       0.793  10.299  19.866  0.00  0.00    +0.000 A 
ATOM     20  C   UNL     1       1.173  10.842  18.653  0.00  0.00    +0.000 A 
ATOM     21  N   UNL     1       1.875  10.169  17.722  0.00  0.00    +0.000 NA
ATOM     22  C   UNL     1       2.213   8.887  18.024  0.00  0.00    +0.000 A 
ENDBRANCH   7  17
TORSDOF 2
ENDMDL
MODEL 8
REMARK VINA RESULT:      -7.4      3.095      7.239
REMARK  Name = 
REMARK  3 active torsions:
REMARK  status: ('A' for Active; 'I' for Inactive)
REMARK    1  A    between atoms: C_1  and  N_2
REMARK    2  A    between atoms: C_5  and  C_6
REMARK    3  A    between atoms: C_12  and  C_13
REMARK                            x       y       z     vdW  Elec       q    Type
REMARK                         _______ _______ _______ _____ _____    ______ ____
ROOT
ATOM      1  C   UNL     1       2.253   5.753  20.054  0.00  0.00    +0.000 A 
ATOM      2  N   UNL     1       1.747   4.955  21.010  0.00  0.00    +0.000 NA
ATOM      3  N   UNL     1       2.294   3.756  20.746  0.00  0.00    +0.000 N 
ATOM      4  C   UNL     1       3.128   3.745  19.665  0.00  0.00    +0.000 A 
ATOM      5  C   UNL     1       3.869   2.738  19.074  0.00  0.00    +0.000 A 
ATOM      6  N   UNL     1       4.631   3.038  17.994  0.00  0.00    +0.000 NA
ATOM      7  C   UNL     1       4.659   4.303  17.497  0.00  0.00    +0.000 A 
ATOM      8  C   UNL     1       3.925   5.343  18.068  0.00  0.00    +0.000 A 
ATOM      9  C   UNL     1       3.132   5.047  19.187  0.00  0.00    +0.000 A 
ATOM     10  H   UNL     1       2.054   2.979  21.352  0.00  0.00    +0.000 HD
ENDROOT
BRANCH   1  15
ATOM     11  C   UNL     1       1.651  10.178  18.152  0.00  0.00    +0.000 C 
ATOM     12  N   UNL     1       1.638   9.128  19.142  0.00  0.00    +0.000 N 
ATOM     13  C   UNL     1       1.205   9.218  20.430  0.00  0.00    +0.000 A 
ATOM     14  C   UNL     1       1.373   7.964  20.972  0.00  0.00    +0.000 A 
ATOM     15  C   UNL     1       1.918   7.182  19.927  0.00  0.00    +0.000 A 
ATOM     16  N   UNL     1       2.078   7.903  18.806  0.00  0.00    +0.000 NA
ENDBRANCH   1  15
BRANCH   7  17
ATOM     17  C   UNL     1       5.532   4.512  16.327  0.00  0.00    +0.000 A 
ATOM     18  C   UNL     1       5.303   3.903  15.082  0.00  0.00    +0.000 A 
ATOM     19  C   UNL     1       6.147   4.157  14.000  0.00  0.00    +0.000 A 
ATOM     20  C   UNL     1       7.213   5.017  14.187  0.00  0.00    +0.000 A 
ATOM     21  N   UNL     1       7.487   5.620  15.360  0.00  0.00    +0.000 NA
ATOM     22  C   UNL     1       6.648   5.348  16.395  0.00  0.00    +0.000 A 
ENDBRANCH   7  17
TORSDOF 2
ENDMDL
MODEL 9
REMARK VINA RESULT:      -7.3      2.430      4.795
REMARK  Name = 
REMARK  3 active torsions:
REMARK  status: ('A' for Active; 'I' for Inactive)
REMARK    1  A    between atoms: C_1  and  N_2
REMARK    2  A    between atoms: C_5  and  C_6
REMARK    3  A    between atoms: C_12  and  C_13
REMARK                            x       y       z     vdW  Elec       q    Type
REMARK                         _______ _______ _______ _____ _____    ______ ____
ROOT
ATOM      1  C   UNL     1       6.797   5.742  16.626  0.00  0.00    +0.000 A 
ATOM      2  N   UNL     1       7.133   5.462  15.355  0.00  0.00    +0.000 NA
ATOM      3  N   UNL     1       6.295   4.467  15.017  0.00  0.00    +0.000 N 
ATOM      4  C   UNL     1       5.437   4.093  16.011  0.00  0.00    +0.000 A 
ATOM      5  C   UNL     1       4.445   3.130  16.068  0.00  0.00    +0.000 A 
ATOM      6  N   UNL     1       3.734   2.996  17.213  0.00  0.00    +0.000 NA
ATOM      7  C   UNL     1       3.996   3.787  18.288  0.00  0.00    +0.000 A 
ATOM      8  C   UNL     1       4.988   4.766  18.265  0.00  0.00    +0.000 A 
ATOM      9  C   UNL     1       5.733   4.917  17.086  0.00  0.00    +0.000 A 
ATOM     10  H   UNL     1       6.363   4.085  14.079  0.00  0.00    +0.000 HD
ENDROOT
BRANCH   1  15
ATOM     11  C   UNL     1       8.556  10.033  18.057  0.00  0.00    +0.000 C 
ATOM     12  N   UNL     1       8.251   8.624  18.102  0.00  0.00    +0.000 N 
ATOM     13  C   UNL     1       8.541   7.752  19.108  0.00  0.00    +0.000 A 
ATOM     14  C   UNL     1       8.043   6.535  18.706  0.00  0.00    +0.000 A 
ATOM     15  C   UNL     1       7.468   6.774  17.436  0.00  0.00    +0.000 A 
ATOM     16  N   UNL     1       7.599   8.059  17.071  0.00  0.00    +0.000 NA
ENDBRANCH   1  15
BRANCH   7  17
ATOM     17  C   UNL     1       3.150   3.557  19.474  0.00  0.00    +0.000 A 
ATOM     18  C   UNL     1       1.844   4.060  19.592  0.00  0.00    +0.000 A 
ATOM     19  C   UNL     1       1.078   3.789  20.727  0.00  0.00    +0.000 A 
ATOM     20  C   UNL     1       1.638   3.020  21.729  0.00  0.00    +0.000 A 
ATOM     21  N   UNL     1       2.888   2.520  21.674  0.00  0.00    +0.000 NA
ATOM     22  C   UNL     1       3.609   2.806  20.557  0.00  0.00    +0.000 A 
ENDBRANCH   7  17
TORSDOF 2
ENDMDL
