MODEL 1
REMARK VINA RESULT:      -7.2      0.000      0.000
REMARK  Name = 
REMARK  2 active torsions:
REMARK  status: ('A' for Active; 'I' for Inactive)
REMARK    1  A    between atoms: C_9  and  C_10
REMARK    2  A    between atoms: C_20  and  C_21
REMARK                            x       y       z     vdW  Elec       q    Type
REMARK                         _______ _______ _______ _____ _____    ______ ____
ROOT
ATOM      1  N   UNL     1       2.518   3.415  22.420  0.00  0.00    +0.000 N 
ATOM      2  C   UNL     1       2.269   3.839  21.172  0.00  0.00    +0.000 C 
ATOM      3  N   UNL     1       3.112   4.373  20.368  0.00  0.00    +0.000 NA
ATOM      4  C   UNL     1       2.357   4.646  19.120  0.00  0.00    +0.000 C 
ATOM      5  C   UNL     1       0.934   4.132  19.433  0.00  0.00    +0.000 C 
ATOM      6  O   UNL     1       1.002   3.619  20.762  0.00  0.00    +0.000 OA
ATOM      7  C   UNL     1       2.450   6.133  18.807  0.00  0.00    +0.000 A 
ATOM      8  C   UNL     1       1.639   7.076  19.476  0.00  0.00    +0.000 A 
ATOM      9  C   UNL     1       1.671   8.453  19.189  0.00  0.00    +0.000 A 
ATOM     10  C   UNL     1       2.622   8.890  18.255  0.00  0.00    +0.000 A 
ATOM     11  C   UNL     1       3.472   7.981  17.615  0.00  0.00    +0.000 A 
ATOM     12  C   UNL     1       3.386   6.616  17.885  0.00  0.00    +0.000 A 
ATOM     13  O   UNL     1       4.239   5.817  17.170  0.00  0.00    +0.000 OA
ATOM     14  C   UNL     1       4.424   4.501  17.719  0.00  0.00    +0.000 C 
ATOM     15  C   UNL     1       3.046   3.869  17.982  0.00  0.00    +0.000 C 
ATOM     16  C   UNL     1       3.007   2.330  18.105  0.00  0.00    +0.000 C 
ATOM     17  O   UNL     1       2.316   2.200  16.840  0.00  0.00    +0.000 OA
ATOM     18  C   UNL     1       2.210   3.635  16.701  0.00  0.00    +0.000 C 
ATOM     19  H   UNL     1       3.501   3.310  22.627  0.00  0.00    +0.000 HD
ATOM     20  H   UNL     1       1.930   2.658  22.741  0.00  0.00    +0.000 HD
ENDROOT
BRANCH   9  21
ATOM     21  C   UNL     1       0.717   9.382  19.824  0.00  0.00    +0.000 A 
ATOM     22  C   UNL     1       0.450   9.418  21.184  0.00  0.00    +0.000 A 
ATOM     23  N   UNL     1      -0.406  10.279  21.783  0.00  0.00    +0.000 NA
ATOM     24  C   UNL     1      -1.027  11.144  20.969  0.00  0.00    +0.000 A 
ATOM     25  N   UNL     1      -0.869  11.221  19.644  0.00  0.00    +0.000 NA
ATOM     26  C   UNL     1       0.003  10.335  19.109  0.00  0.00    +0.000 A 
ENDBRANCH   9  21
BRANCH  14  27
ATOM     27  C   UNL     1       5.310   3.727  16.762  0.00  0.00    +0.000 C 
ATOM     28  C   UNL     1       5.591   4.261  15.377  0.00  0.00    +0.000 C 
ATOM     29  C   UNL     1       6.685   4.245  16.404  0.00  0.00    +0.000 C 
ENDBRANCH  14  27
TORSDOF 2
ENDMDL
MODEL 2
REMARK VINA RESULT:      -6.8      4.360      9.844
REMARK  Name = 
REMARK  2 active torsions:
REMARK  status: ('A' for Active; 'I' for Inactive)
REMARK    1  A    between atoms: C_9  and  C_10
REMARK    2  A    between atoms: C_20  and  C_21
REMARK                            x       y       z     vdW  Elec       q    Type
REMARK                         _______ _______ _______ _____ _____    ______ ____
ROOT
ATOM      1  N   UNL     1       1.152  14.955  19.009  0.00  0.00    +0.000 N 
ATOM      2  C   UNL     1       0.212  14.085  19.406  0.00  0.00    +0.000 C 
ATOM      3  N   UNL     1      -0.071  13.771  20.616  0.00  0.00    +0.000 NA
ATOM      4  C   UNL     1      -1.183  12.792  20.526  0.00  0.00    +0.000 C 
ATOM      5  C   UNL     1      -1.433  12.661  19.007  0.00  0.00    +0.000 C 
ATOM      6  O   UNL     1      -0.500  13.549  18.393  0.00  0.00    +0.000 OA
ATOM      7  C   UNL     1      -0.758  11.505  21.221  0.00  0.00    +0.000 A 
ATOM      8  C   UNL     1       0.087  10.571  20.583  0.00  0.00    +0.000 A 
ATOM      9  C   UNL     1       0.471   9.355  21.180  0.00  0.00    +0.000 A 
ATOM     10  C   UNL     1       0.052   9.129  22.499  0.00  0.00    +0.000 A 
ATOM     11  C   UNL     1      -0.744  10.063  23.171  0.00  0.00    +0.000 A 
ATOM     12  C   UNL     1      -1.148  11.238  22.538  0.00  0.00    +0.000 A 
ATOM     13  O   UNL     1      -1.959  12.058  23.278  0.00  0.00    +0.000 OA
ATOM     14  C   UNL     1      -2.044  13.409  22.791  0.00  0.00    +0.000 C 
ATOM     15  C   UNL     1      -2.383  13.381  21.291  0.00  0.00    +0.000 C 
ATOM     16  C   UNL     1      -2.985  14.673  20.696  0.00  0.00    +0.000 C 
ATOM     17  O   UNL     1      -4.281  14.050  20.533  0.00  0.00    +0.000 OA
ATOM     18  C   UNL     1      -3.769  12.771  20.973  0.00  0.00    +0.000 C 
ATOM     19  H   UNL     1       1.483  15.563  19.745  0.00  0.00    +0.000 HD
ATOM     20  H   UNL     1       0.966  15.414  18.127  0.00  0.00    +0.000 HD
ENDROOT
BRANCH   9  21
ATOM     21  C   UNL     1       1.251   8.355  20.426  0.00  0.00    +0.000 A 
ATOM     22  C   UNL     1       1.525   7.075  20.879  0.00  0.00    +0.000 A 
ATOM     23  N   UNL     1       2.220   6.140  20.188  0.00  0.00    +0.000 NA
ATOM     24  C   UNL     1       2.664   6.519  18.981  0.00  0.00    +0.000 A 
ATOM     25  N   UNL     1       2.477   7.717  18.421  0.00  0.00    +0.000 NA
ATOM     26  C   UNL     1       1.772   8.603  19.162  0.00  0.00    +0.000 A 
ENDBRANCH   9  21
BRANCH  14  27
ATOM     27  C   UNL     1      -3.047  14.145  23.659  0.00  0.00    +0.000 C 
ATOM     28  C   UNL     1      -3.546  13.528  24.944  0.00  0.00    +0.000 C 
ATOM     29  C   UNL     1      -2.629  14.714  24.996  0.00  0.00    +0.000 C 
ENDBRANCH  14  27
TORSDOF 2
ENDMDL
MODEL 3
REMARK VINA RESULT:      -6.7      4.516      9.772
REMARK  Name = 
REMARK  2 active torsions:
REMARK  status: ('A' for Active; 'I' for Inactive)
REMARK    1  A    between atoms: C_9  and  C_10
REMARK    2  A    between atoms: C_20  and  C_21
REMARK                            x       y       z     vdW  Elec       q    Type
REMARK                         _______ _______ _______ _____ _____    ______ ____
ROOT
ATOM      1  N   UNL     1       3.807  14.430  20.431  0.00  0.00    +0.000 N 
ATOM      2  C   UNL     1       2.560  13.936  20.395  0.00  0.00    +0.000 C 
ATOM      3  N   UNL     1       1.823  13.656  21.405  0.00  0.00    +0.000 NA
ATOM      4  C   UNL     1       0.543  13.160  20.841  0.00  0.00    +0.000 C 
ATOM      5  C   UNL     1       0.758  13.244  19.314  0.00  0.00    +0.000 C 
ATOM      6  O   UNL     1       2.073  13.774  19.147  0.00  0.00    +0.000 OA
ATOM      7  C   UNL     1       0.283  11.759  21.378  0.00  0.00    +0.000 A 
ATOM      8  C   UNL     1       0.935  10.631  20.832  0.00  0.00    +0.000 A 
ATOM      9  C   UNL     1       0.693   9.318  21.278  0.00  0.00    +0.000 A 
ATOM     10  C   UNL     1      -0.171   9.162  22.371  0.00  0.00    +0.000 A 
ATOM     11  C   UNL     1      -0.791  10.269  22.962  0.00  0.00    +0.000 A 
ATOM     12  C   UNL     1      -0.569  11.554  22.469  0.00  0.00    +0.000 A 
ATOM     13  O   UNL     1      -1.259  12.556  23.100  0.00  0.00    +0.000 OA
ATOM     14  C   UNL     1      -0.742  13.877  22.863  0.00  0.00    +0.000 C 
ATOM     15  C   UNL     1      -0.578  14.087  21.348  0.00  0.00    +0.000 C 
ATOM     16  C   UNL     1      -0.506  15.551  20.860  0.00  0.00    +0.000 C 
ATOM     17  O   UNL     1      -1.811  15.458  20.243  0.00  0.00    +0.000 OA
ATOM     18  C   UNL     1      -1.910  14.051  20.563  0.00  0.00    +0.000 C 
ATOM     19  H   UNL     1       4.066  14.818  21.328  0.00  0.00    +0.000 HD
ATOM     20  H   UNL     1       4.069  14.990  19.631  0.00  0.00    +0.000 HD
ENDROOT
BRANCH   9  21
ATOM     21  C   UNL     1       1.303   8.162  20.592  0.00  0.00    +0.000 A 
ATOM     22  C   UNL     1       1.985   8.239  19.389  0.00  0.00    +0.000 A 
ATOM     23  N   UNL     1       2.569   7.191  18.761  0.00  0.00    +0.000 NA
ATOM     24  C   UNL     1       2.454   6.006  19.376  0.00  0.00    +0.000 A 
ATOM     25  N   UNL     1       1.824   5.785  20.534  0.00  0.00    +0.000 NA
ATOM     26  C   UNL     1       1.266   6.874  21.111  0.00  0.00    +0.000 A 
ENDBRANCH   9  21
BRANCH  14  27
ATOM     27  C   UNL     1      -1.672  14.861  23.548  0.00  0.00    +0.000 C 
ATOM     28  C   UNL     1      -2.588  14.403  24.658  0.00  0.00    +0.000 C 
ATOM     29  C   UNL     1      -1.417  15.287  24.977  0.00  0.00    +0.000 C 
ENDBRANCH  14  27
TORSDOF 2
ENDMDL
MODEL 4
REMARK VINA RESULT:      -6.6      9.315     11.181
REMARK  Name = 
REMARK  2 active torsions:
REMARK  status: ('A' for Active; 'I' for Inactive)
REMARK    1  A    between atoms: C_9  and  C_10
REMARK    2  A    between atoms: C_20  and  C_21
REMARK                            x       y       z     vdW  Elec       q    Type
REMARK                         _______ _______ _______ _____ _____    ______ ____
ROOT
ATOM      1  N   UNL     1       8.070  16.251  17.970  0.00  0.00    +0.000 N 
ATOM      2  C   UNL     1       8.824  15.386  18.665  0.00  0.00    +0.000 C 
ATOM      3  N   UNL     1       8.485  14.206  19.033  0.00  0.00    +0.000 NA
ATOM      4  C   UNL     1       9.662  13.657  19.751  0.00  0.00    +0.000 C 
ATOM      5  C   UNL     1      10.701  14.797  19.677  0.00  0.00    +0.000 C 
ATOM      6  O   UNL     1      10.063  15.842  18.942  0.00  0.00    +0.000 OA
ATOM      7  C   UNL     1       9.236  13.264  21.159  0.00  0.00    +0.000 A 
ATOM      8  C   UNL     1       9.094  14.231  22.179  0.00  0.00    +0.000 A 
ATOM      9  C   UNL     1       8.737  13.902  23.500  0.00  0.00    +0.000 A 
ATOM     10  C   UNL     1       8.431  12.559  23.765  0.00  0.00    +0.000 A 
ATOM     11  C   UNL     1       8.516  11.590  22.759  0.00  0.00    +0.000 A 
ATOM     12  C   UNL     1       8.917  11.938  21.470  0.00  0.00    +0.000 A 
ATOM     13  O   UNL     1       9.004  10.900  20.578  0.00  0.00    +0.000 OA
ATOM     14  C   UNL     1       9.027  11.302  19.197  0.00  0.00    +0.000 C 
ATOM     15  C   UNL     1      10.106  12.382  19.007  0.00  0.00    +0.000 C 
ATOM     16  C   UNL     1      10.622  12.595  17.568  0.00  0.00    +0.000 C 
ATOM     17  O   UNL     1      11.908  12.018  17.893  0.00  0.00    +0.000 OA
ATOM     18  C   UNL     1      11.544  11.887  19.287  0.00  0.00    +0.000 C 
ATOM     19  H   UNL     1       7.273  15.826  17.519  0.00  0.00    +0.000 HD
ATOM     20  H   UNL     1       8.586  16.906  17.399  0.00  0.00    +0.000 HD
ENDROOT
BRANCH   9  21
ATOM     21  C   UNL     1       8.724  14.929  24.559  0.00  0.00    +0.000 A 
ATOM     22  C   UNL     1       8.876  16.288  24.331  0.00  0.00    +0.000 A 
ATOM     23  N   UNL     1       8.843  17.243  25.289  0.00  0.00    +0.000 NA
ATOM     24  C   UNL     1       8.651  16.805  26.542  0.00  0.00    +0.000 A 
ATOM     25  N   UNL     1       8.493  15.530  26.907  0.00  0.00    +0.000 NA
ATOM     26  C   UNL     1       8.533  14.626  25.901  0.00  0.00    +0.000 A 
ENDBRANCH   9  21
BRANCH  14  27
ATOM     27  C   UNL     1       9.222  10.051  18.361  0.00  0.00    +0.000 C 
ATOM     28  C   UNL     1       8.735   8.712  18.862  0.00  0.00    +0.000 C 
ATOM     29  C   UNL     1       8.036   9.374  17.711  0.00  0.00    +0.000 C 
ENDBRANCH  14  27
TORSDOF 2
ENDMDL
MODEL 5
REMARK VINA RESULT:      -6.6      9.859     11.384
REMARK  Name = 
REMARK  2 active torsions:
REMARK  status: ('A' for Active; 'I' for Inactive)
REMARK    1  A    between atoms: C_9  and  C_10
REMARK    2  A    between atoms: C_20  and  C_21
REMARK                            x       y       z     vdW  Elec       q    Type
REMARK                         _______ _______ _______ _____ _____    ______ ____
ROOT
ATOM      1  N   UNL     1       4.790  15.648  18.297  0.00  0.00    +0.000 N 
ATOM      2  C   UNL     1       5.951  15.677  18.968  0.00  0.00    +0.000 C 
ATOM      3  N   UNL     1       6.932  14.864  18.827  0.00  0.00    +0.000 NA
ATOM      4  C   UNL     1       7.975  15.328  19.775  0.00  0.00    +0.000 C 
ATOM      5  C   UNL     1       7.339  16.567  20.443  0.00  0.00    +0.000 C 
ATOM      6  O   UNL     1       6.056  16.707  19.834  0.00  0.00    +0.000 OA
ATOM      7  C   UNL     1       8.314  14.187  20.725  0.00  0.00    +0.000 A 
ATOM      8  C   UNL     1       7.484  13.878  21.825  0.00  0.00    +0.000 A 
ATOM      9  C   UNL     1       7.783  12.855  22.745  0.00  0.00    +0.000 A 
ATOM     10  C   UNL     1       8.915  12.069  22.482  0.00  0.00    +0.000 A 
ATOM     11  C   UNL     1       9.725  12.324  21.370  0.00  0.00    +0.000 A 
ATOM     12  C   UNL     1       9.430  13.374  20.502  0.00  0.00    +0.000 A 
ATOM     13  O   UNL     1      10.316  13.555  19.471  0.00  0.00    +0.000 OA
ATOM     14  C   UNL     1       9.813  14.353  18.386  0.00  0.00    +0.000 C 
ATOM     15  C   UNL     1       9.234  15.661  18.952  0.00  0.00    +0.000 C 
ATOM     16  C   UNL     1       9.092  16.837  17.961  0.00  0.00    +0.000 C 
ATOM     17  O   UNL     1      10.163  17.568  18.602  0.00  0.00    +0.000 OA
ATOM     18  C   UNL     1      10.286  16.566  19.637  0.00  0.00    +0.000 C 
ATOM     19  H   UNL     1       4.814  15.075  17.465  0.00  0.00    +0.000 HD
ATOM     20  H   UNL     1       4.336  16.544  18.187  0.00  0.00    +0.000 HD
ENDROOT
BRANCH   9  21
ATOM     21  C   UNL     1       6.953  12.652  23.947  0.00  0.00    +0.000 A 
ATOM     22  C   UNL     1       5.998  13.549  24.397  0.00  0.00    +0.000 A 
ATOM     23  N   UNL     1       5.213  13.365  25.486  0.00  0.00    +0.000 NA
ATOM     24  C   UNL     1       5.407  12.221  26.156  0.00  0.00    +0.000 A 
ATOM     25  N   UNL     1       6.291  11.271  25.840  0.00  0.00    +0.000 NA
ATOM     26  C   UNL     1       7.041  11.514  24.740  0.00  0.00    +0.000 A 
ENDBRANCH   9  21
BRANCH  14  27
ATOM     27  C   UNL     1      10.941  14.532  17.389  0.00  0.00    +0.000 C 
ATOM     28  C   UNL     1      12.284  13.881  17.627  0.00  0.00    +0.000 C 
ATOM     29  C   UNL     1      11.395  13.371  16.531  0.00  0.00    +0.000 C 
ENDBRANCH  14  27
TORSDOF 2
ENDMDL
MODEL 6
REMARK VINA RESULT:      -6.5      4.754      7.746
REMARK  Name = 
REMARK  2 active torsions:
REMARK  status: ('A' for Active; 'I' for Inactive)
REMARK    1  A    between atoms: C_9  and  C_10
REMARK    2  A    between atoms: C_20  and  C_21
REMARK                            x       y       z     vdW  Elec       q    Type
REMARK                         _______ _______ _______ _____ _____    ______ ____
ROOT
ATOM      1  N   UNL     1       0.056  14.766  21.161  0.00  0.00    +0.000 N 
ATOM      2  C   UNL     1      -0.435  13.526  21.017  0.00  0.00    +0.000 C 
ATOM      3  N   UNL     1      -0.233  12.739  20.026  0.00  0.00    +0.000 NA
ATOM      4  C   UNL     1      -0.971  11.492  20.348  0.00  0.00    +0.000 C 
ATOM      5  C   UNL     1      -1.601  11.786  21.728  0.00  0.00    +0.000 C 
ATOM      6  O   UNL     1      -1.172  13.105  22.065  0.00  0.00    +0.000 OA
ATOM      7  C   UNL     1      -1.968  11.212  19.232  0.00  0.00    +0.000 A 
ATOM      8  C   UNL     1      -3.201  11.897  19.161  0.00  0.00    +0.000 A 
ATOM      9  C   UNL     1      -4.162  11.640  18.165  0.00  0.00    +0.000 A 
ATOM     10  C   UNL     1      -3.817  10.721  17.164  0.00  0.00    +0.000 A 
ATOM     11  C   UNL     1      -2.580  10.066  17.184  0.00  0.00    +0.000 A 
ATOM     12  C   UNL     1      -1.666  10.307  18.209  0.00  0.00    +0.000 A 
ATOM     13  O   UNL     1      -0.506   9.579  18.149  0.00  0.00    +0.000 OA
ATOM     14  C   UNL     1       0.567  10.101  18.951  0.00  0.00    +0.000 C 
ATOM     15  C   UNL     1       0.053  10.342  20.381  0.00  0.00    +0.000 C 
ATOM     16  C   UNL     1       1.122  10.431  21.491  0.00  0.00    +0.000 C 
ATOM     17  O   UNL     1       0.716   9.160  22.050  0.00  0.00    +0.000 OA
ATOM     18  C   UNL     1      -0.383   9.052  21.116  0.00  0.00    +0.000 C 
ATOM     19  H   UNL     1       0.823  14.976  20.539  0.00  0.00    +0.000 HD
ATOM     20  H   UNL     1       0.186  15.067  22.118  0.00  0.00    +0.000 HD
ENDROOT
BRANCH   9  21
ATOM     21  C   UNL     1      -5.486  12.290  18.206  0.00  0.00    +0.000 A 
ATOM     22  C   UNL     1      -6.195  12.548  19.368  0.00  0.00    +0.000 A 
ATOM     23  N   UNL     1      -7.399  13.164  19.422  0.00  0.00    +0.000 NA
ATOM     24  C   UNL     1      -7.917  13.534  18.242  0.00  0.00    +0.000 A 
ATOM     25  N   UNL     1      -7.348  13.348  17.047  0.00  0.00    +0.000 NA
ATOM     26  C   UNL     1      -6.144  12.730  17.064  0.00  0.00    +0.000 A 
ENDBRANCH   9  21
BRANCH  14  27
ATOM     27  C   UNL     1       1.730   9.131  18.845  0.00  0.00    +0.000 C 
ATOM     28  C   UNL     1       1.705   8.016  17.828  0.00  0.00    +0.000 C 
ATOM     29  C   UNL     1       2.649   9.168  17.645  0.00  0.00    +0.000 C 
ENDBRANCH  14  27
TORSDOF 2
ENDMDL
MODEL 7
REMARK VINA RESULT:      -6.5      4.962     10.301
REMARK  Name = 
REMARK  2 active torsions:
REMARK  status: ('A' for Active; 'I' for Inactive)
REMARK    1  A    between atoms: C_9  and  C_10
REMARK    2  A    between atoms: C_20  and  C_21
REMARK                            x       y       z     vdW  Elec       q    Type
REMARK                         _______ _______ _______ _____ _____    ______ ____
ROOT
ATOM      1  N   UNL     1       2.850  15.497  20.896  0.00  0.00    +0.000 N 
ATOM      2  C   UNL     1       1.675  14.852  20.857  0.00  0.00    +0.000 C 
ATOM      3  N   UNL     1       1.038  14.369  21.860  0.00  0.00    +0.000 NA
ATOM      4  C   UNL     1      -0.201  13.776  21.299  0.00  0.00    +0.000 C 
ATOM      5  C   UNL     1      -0.087  14.054  19.784  0.00  0.00    +0.000 C 
ATOM      6  O   UNL     1       1.139  14.766  19.622  0.00  0.00    +0.000 OA
ATOM      7  C   UNL     1      -0.252  12.303  21.680  0.00  0.00    +0.000 A 
ATOM      8  C   UNL     1       0.502  11.336  20.978  0.00  0.00    +0.000 A 
ATOM      9  C   UNL     1       0.451   9.962  21.278  0.00  0.00    +0.000 A 
ATOM     10  C   UNL     1      -0.321   9.575  22.383  0.00  0.00    +0.000 A 
ATOM     11  C   UNL     1      -1.038  10.520  23.126  0.00  0.00    +0.000 A 
ATOM     12  C   UNL     1      -1.006  11.870  22.777  0.00  0.00    +0.000 A 
ATOM     13  O   UNL     1      -1.778  12.698  23.549  0.00  0.00    +0.000 OA
ATOM     14  C   UNL     1      -1.444  14.093  23.445  0.00  0.00    +0.000 C 
ATOM     15  C   UNL     1      -1.396  14.488  21.960  0.00  0.00    +0.000 C 
ATOM     16  C   UNL     1      -1.536  15.993  21.642  0.00  0.00    +0.000 C 
ATOM     17  O   UNL     1      -2.853  15.799  21.076  0.00  0.00    +0.000 OA
ATOM     18  C   UNL     1      -2.758  14.365  21.235  0.00  0.00    +0.000 C 
ATOM     19  H   UNL     1       3.111  15.815  21.819  0.00  0.00    +0.000 HD
ATOM     20  H   UNL     1       2.994  16.171  20.156  0.00  0.00    +0.000 HD
ENDROOT
BRANCH   9  21
ATOM     21  C   UNL     1       1.159   8.977  20.437  0.00  0.00    +0.000 A 
ATOM     22  C   UNL     1       1.506   7.702  20.852  0.00  0.00    +0.000 A 
ATOM     23  N   UNL     1       2.134   6.781  20.083  0.00  0.00    +0.000 NA
ATOM     24  C   UNL     1       2.431   7.169  18.835  0.00  0.00    +0.000 A 
ATOM     25  N   UNL     1       2.160   8.364  18.304  0.00  0.00    +0.000 NA
ATOM     26  C   UNL     1       1.528   9.237  19.123  0.00  0.00    +0.000 A 
ENDBRANCH   9  21
BRANCH  14  27
ATOM     27  C   UNL     1      -2.447  14.866  24.280  0.00  0.00    +0.000 C 
ATOM     28  C   UNL     1      -2.805  14.401  25.672  0.00  0.00    +0.000 C 
ATOM     29  C   UNL     1      -1.992  15.649  25.491  0.00  0.00    +0.000 C 
ENDBRANCH  14  27
TORSDOF 2
ENDMDL
MODEL 8
REMARK VINA RESULT:      -6.5      6.422      9.123
REMARK  Name = 
REMARK  2 active torsions:
REMARK  status: ('A' for Active; 'I' for Inactive)
REMARK    1  A    between atoms: C_9  and  C_10
REMARK    2  A    between atoms: C_20  and  C_21
REMARK                            x       y       z     vdW  Elec       q    Type
REMARK                         _______ _______ _______ _____ _____    ______ ____
ROOT
ATOM      1  N   UNL     1       1.622  15.222  18.876  0.00  0.00    +0.000 N 
ATOM      2  C   UNL     1       0.872  14.246  19.408  0.00  0.00    +0.000 C 
ATOM      3  N   UNL     1      -0.218  13.774  18.924  0.00  0.00    +0.000 NA
ATOM      4  C   UNL     1      -0.647  12.711  19.867  0.00  0.00    +0.000 C 
ATOM      5  C   UNL     1       0.454  12.716  20.950  0.00  0.00    +0.000 C 
ATOM      6  O   UNL     1       1.381  13.721  20.541  0.00  0.00    +0.000 OA
ATOM      7  C   UNL     1      -2.046  13.040  20.369  0.00  0.00    +0.000 A 
ATOM      8  C   UNL     1      -2.254  13.996  21.388  0.00  0.00    +0.000 A 
ATOM      9  C   UNL     1      -3.529  14.300  21.902  0.00  0.00    +0.000 A 
ATOM     10  C   UNL     1      -4.629  13.674  21.298  0.00  0.00    +0.000 A 
ATOM     11  C   UNL     1      -4.452  12.761  20.253  0.00  0.00    +0.000 A 
ATOM     12  C   UNL     1      -3.174  12.444  19.794  0.00  0.00    +0.000 A 
ATOM     13  O   UNL     1      -3.120  11.507  18.796  0.00  0.00    +0.000 OA
ATOM     14  C   UNL     1      -1.877  11.477  18.073  0.00  0.00    +0.000 C 
ATOM     15  C   UNL     1      -0.715  11.390  19.077  0.00  0.00    +0.000 C 
ATOM     16  C   UNL     1       0.631  10.870  18.528  0.00  0.00    +0.000 C 
ATOM     17  O   UNL     1       0.506   9.631  19.264  0.00  0.00    +0.000 OA
ATOM     18  C   UNL     1      -0.704  10.087  19.910  0.00  0.00    +0.000 C 
ATOM     19  H   UNL     1       1.412  15.416  17.907  0.00  0.00    +0.000 HD
ATOM     20  H   UNL     1       2.607  15.175  19.099  0.00  0.00    +0.000 HD
ENDROOT
BRANCH   9  21
ATOM     21  C   UNL     1      -3.683  15.212  23.052  0.00  0.00    +0.000 A 
ATOM     22  C   UNL     1      -2.626  15.780  23.745  0.00  0.00    +0.000 A 
ATOM     23  N   UNL     1      -2.753  16.636  24.786  0.00  0.00    +0.000 NA
ATOM     24  C   UNL     1      -4.010  16.930  25.149  0.00  0.00    +0.000 A 
ATOM     25  N   UNL     1      -5.119  16.456  24.574  0.00  0.00    +0.000 NA
ATOM     26  C   UNL     1      -4.922  15.608  23.538  0.00  0.00    +0.000 A 
ENDBRANCH   9  21
BRANCH  14  27
ATOM     27  C   UNL     1      -1.953  10.332  17.081  0.00  0.00    +0.000 C 
ATOM     28  C   UNL     1      -3.265   9.631  16.820  0.00  0.00    +0.000 C 
ATOM     29  C   UNL     1      -2.667  10.509  15.760  0.00  0.00    +0.000 C 
ENDBRANCH  14  27
TORSDOF 2
ENDMDL
MODEL 9
REMARK VINA RESULT:      -6.4      8.010     12.311
REMARK  Name = 
REMARK  2 active torsions:
REMARK  status: ('A' for Active; 'I' for Inactive)
REMARK    1  A    between atoms: C_9  and  C_10
REMARK    2  A    between atoms: C_20  and  C_21
REMARK                            x       y       z     vdW  Elec       q    Type
REMARK                         _______ _______ _______ _____ _____    ______ ____
ROOT
ATOM      1  N   UNL     1      -7.806  15.977  19.175  0.00  0.00    +0.000 N 
ATOM      2  C   UNL     1      -7.222  15.046  19.944  0.00  0.00    +0.000 C 
ATOM      3  N   UNL     1      -6.132  15.181  20.606  0.00  0.00    +0.000 NA
ATOM      4  C   UNL     1      -5.923  13.886  21.299  0.00  0.00    +0.000 C 
ATOM      5  C   UNL     1      -7.140  13.039  20.869  0.00  0.00    +0.000 C 
ATOM      6  O   UNL     1      -7.912  13.890  20.023  0.00  0.00    +0.000 OA
ATOM      7  C   UNL     1      -4.569  13.324  20.886  0.00  0.00    +0.000 A 
ATOM      8  C   UNL     1      -4.396  12.663  19.650  0.00  0.00    +0.000 A 
ATOM      9  C   UNL     1      -3.169  12.099  19.250  0.00  0.00    +0.000 A 
ATOM     10  C   UNL     1      -2.069  12.293  20.097  0.00  0.00    +0.000 A 
ATOM     11  C   UNL     1      -2.204  12.988  21.304  0.00  0.00    +0.000 A 
ATOM     12  C   UNL     1      -3.442  13.496  21.697  0.00  0.00    +0.000 A 
ATOM     13  O   UNL     1      -3.464  14.121  22.916  0.00  0.00    +0.000 OA
ATOM     14  C   UNL     1      -4.608  14.966  23.132  0.00  0.00    +0.000 C 
ATOM     15  C   UNL     1      -5.885  14.172  22.813  0.00  0.00    +0.000 C 
ATOM     16  C   UNL     1      -7.199  14.706  23.424  0.00  0.00    +0.000 C 
ATOM     17  O   UNL     1      -7.282  13.589  24.340  0.00  0.00    +0.000 OA
ATOM     18  C   UNL     1      -6.121  12.962  23.748  0.00  0.00    +0.000 C 
ATOM     19  H   UNL     1      -7.463  16.914  19.336  0.00  0.00    +0.000 HD
ATOM     20  H   UNL     1      -8.811  15.898  19.095  0.00  0.00    +0.000 HD
ENDROOT
BRANCH   9  21
ATOM     21  C   UNL     1      -3.069  11.311  18.007  0.00  0.00    +0.000 A 
ATOM     22  C   UNL     1      -3.918  11.453  16.921  0.00  0.00    +0.000 A 
ATOM     23  N   UNL     1      -3.823  10.753  15.766  0.00  0.00    +0.000 NA
ATOM     24  C   UNL     1      -2.824   9.861  15.706  0.00  0.00    +0.000 A 
ATOM     25  N   UNL     1      -1.937   9.617  16.675  0.00  0.00    +0.000 NA
ATOM     26  C   UNL     1      -2.084  10.353  17.800  0.00  0.00    +0.000 A 
ENDBRANCH   9  21
BRANCH  14  27
ATOM     27  C   UNL     1      -4.523  15.496  24.551  0.00  0.00    +0.000 C 
ATOM     28  C   UNL     1      -3.204  15.975  25.111  0.00  0.00    +0.000 C 
ATOM     29  C   UNL     1      -4.287  16.969  24.804  0.00  0.00    +0.000 C 
ENDBRANCH  14  27
TORSDOF 2
ENDMDL
