MODEL 1
REMARK VINA RESULT:      -7.7      0.000      0.000
REMARK  Name = 
REMARK  14 active torsions:
REMARK  status: ('A' for Active; 'I' for Inactive)
REMARK    1  A    between atoms: C_1  and  C_2
REMARK    2  A    between atoms: C_2  and  C_3
REMARK    3  A    between atoms: C_3  and  N_4
REMARK    4  A    between atoms: N_4  and  C_5
REMARK    5  A    between atoms: N_4  and  C_8
REMARK    6  A    between atoms: C_5  and  C_6
REMARK    7  A    between atoms: C_6  and  C_7
REMARK    8  A    between atoms: C_8  and  C_9
REMARK    9  A    between atoms: C_9  and  N_10
REMARK   10  A    between atoms: C_11  and  C_13
REMARK   11  A    between atoms: C_13  and  O_14
REMARK   12  A    between atoms: N_24  and  C_25
REMARK   13  A    between atoms: C_29  and  O_30
REMARK   14  A    between atoms: O_30  and  C_31
REMARK                            x       y       z     vdW  Elec       q    Type
REMARK                         _______ _______ _______ _____ _____    ______ ____
ROOT
ATOM      1  C   UNL     1       3.303   5.753  18.691  0.00  0.00    +0.000 C 
ATOM      2  C   UNL     1       2.584   4.498  19.140  0.00  0.00    +0.000 A 
ATOM      3  C   UNL     1       1.765   4.437  20.280  0.00  0.00    +0.000 A 
ATOM      4  C   UNL     1       1.047   3.279  20.578  0.00  0.00    +0.000 A 
ATOM      5  C   UNL     1       1.155   2.162  19.754  0.00  0.00    +0.000 A 
ATOM      6  C   UNL     1       1.945   2.218  18.606  0.00  0.00    +0.000 A 
ATOM      7  C   UNL     1       2.628   3.394  18.294  0.00  0.00    +0.000 A 
ATOM      8  N   UNL     1       3.335   3.494  17.098  0.00  0.00    +0.000 N 
ATOM      9  C   UNL     1       4.224   4.490  16.792  0.00  0.00    +0.000 C 
ATOM     10  O   UNL     1       4.874   4.384  15.753  0.00  0.00    +0.000 OA
ATOM     11  N   UNL     1       4.411   5.465  17.767  0.00  0.00    +0.000 N 
ATOM     12  H   UNL     1       3.346   2.714  16.453  0.00  0.00    +0.000 HD
ENDROOT
BRANCH  11  13
ATOM     13  C   UNL     1       5.758   5.874  18.027  0.00  0.00    +0.000 A 
ATOM     14  C   UNL     1       6.525   5.215  18.996  0.00  0.00    +0.000 A 
ATOM     15  C   UNL     1       7.794   5.686  19.336  0.00  0.00    +0.000 A 
ATOM     16  C   UNL     1       8.294   6.838  18.733  0.00  0.00    +0.000 A 
ATOM     17  C   UNL     1       7.536   7.527  17.785  0.00  0.00    +0.000 A 
ATOM     18  C   UNL     1       6.277   7.036  17.432  0.00  0.00    +0.000 A 
BRANCH  17  19
ATOM     19  O   UNL     1       8.114   8.673  17.310  0.00  0.00    +0.000 OA
ATOM     20  C   UNL     1       8.622   9.585  18.277  0.00  0.00    +0.000 C 
ENDBRANCH  17  19
ENDBRANCH  11  13
BRANCH   1  22
ATOM     21  N   UNL     1       2.373   8.099  18.318  0.00  0.00    +0.000 N 
ATOM     22  C   UNL     1       2.257   6.752  18.042  0.00  0.00    +0.000 C 
ATOM     23  O   UNL     1       1.236   6.324  17.488  0.00  0.00    +0.000 OA
ATOM     24  H   UNL     1       3.243   8.476  18.684  0.00  0.00    +0.000 HD
BRANCH  21  25
ATOM     25  C   UNL     1       1.333   9.006  17.872  0.00  0.00    +0.000 C 
BRANCH  25  26
ATOM     26  C   UNL     1       1.400  10.405  18.504  0.00  0.00    +0.000 C 
BRANCH  26  27
ATOM     27  N   UNL     1       0.356  10.716  19.514  0.00  0.00    +0.000 NA
BRANCH  27  28
ATOM     28  C   UNL     1      -0.911  10.036  19.150  0.00  0.00    +0.000 C 
BRANCH  28  30
ATOM     29  C   UNL     1      -2.784   9.904  17.424  0.00  0.00    +0.000 C 
ATOM     30  C   UNL     1      -1.890  10.809  18.255  0.00  0.00    +0.000 C 
ENDBRANCH  28  30
ENDBRANCH  27  28
BRANCH  27  31
ATOM     31  C   UNL     1       0.807  10.293  20.860  0.00  0.00    +0.000 C 
BRANCH  31  32
ATOM     32  C   UNL     1      -0.123   9.328  21.621  0.00  0.00    +0.000 C 
ATOM     33  C   UNL     1      -0.184   9.608  23.113  0.00  0.00    +0.000 C 
ENDBRANCH  31  32
ENDBRANCH  27  31
ENDBRANCH  26  27
ENDBRANCH  25  26
ENDBRANCH  21  25
ENDBRANCH   1  22
BRANCH   1  34
ATOM     34  O   UNL     1       3.770   6.462  19.853  0.00  0.00    +0.000 OA
ATOM     35  H   UNL     1       3.666   7.407  19.646  0.00  0.00    +0.000 HD
ENDBRANCH   1  34
TORSDOF 11
ENDMDL
MODEL 2
REMARK VINA RESULT:      -7.5      0.395      1.943
REMARK  Name = 
REMARK  14 active torsions:
REMARK  status: ('A' for Active; 'I' for Inactive)
REMARK    1  A    between atoms: C_1  and  C_2
REMARK    2  A    between atoms: C_2  and  C_3
REMARK    3  A    between atoms: C_3  and  N_4
REMARK    4  A    between atoms: N_4  and  C_5
REMARK    5  A    between atoms: N_4  and  C_8
REMARK    6  A    between atoms: C_5  and  C_6
REMARK    7  A    between atoms: C_6  and  C_7
REMARK    8  A    between atoms: C_8  and  C_9
REMARK    9  A    between atoms: C_9  and  N_10
REMARK   10  A    between atoms: C_11  and  C_13
REMARK   11  A    between atoms: C_13  and  O_14
REMARK   12  A    between atoms: N_24  and  C_25
REMARK   13  A    between atoms: C_29  and  O_30
REMARK   14  A    between atoms: O_30  and  C_31
REMARK                            x       y       z     vdW  Elec       q    Type
REMARK                         _______ _______ _______ _____ _____    ______ ____
ROOT
ATOM      1  C   UNL     1       3.300   5.745  18.692  0.00  0.00    +0.000 C 
ATOM      2  C   UNL     1       2.564   4.501  19.147  0.00  0.00    +0.000 A 
ATOM      3  C   UNL     1       1.741   4.457  20.284  0.00  0.00    +0.000 A 
ATOM      4  C   UNL     1       1.008   3.309  20.587  0.00  0.00    +0.000 A 
ATOM      5  C   UNL     1       1.106   2.186  19.770  0.00  0.00    +0.000 A 
ATOM      6  C   UNL     1       1.900   2.225  18.624  0.00  0.00    +0.000 A 
ATOM      7  C   UNL     1       2.598   3.391  18.307  0.00  0.00    +0.000 A 
ATOM      8  N   UNL     1       3.309   3.476  17.114  0.00  0.00    +0.000 N 
ATOM      9  C   UNL     1       4.212   4.460  16.804  0.00  0.00    +0.000 C 
ATOM     10  O   UNL     1       4.863   4.341  15.768  0.00  0.00    +0.000 OA
ATOM     11  N   UNL     1       4.406   5.439  17.774  0.00  0.00    +0.000 N 
ATOM     12  H   UNL     1       3.314   2.693  16.473  0.00  0.00    +0.000 HD
ENDROOT
BRANCH  11  13
ATOM     13  C   UNL     1       5.757   5.833  18.036  0.00  0.00    +0.000 A 
ATOM     14  C   UNL     1       6.509   5.182  19.022  0.00  0.00    +0.000 A 
ATOM     15  C   UNL     1       7.781   5.640  19.362  0.00  0.00    +0.000 A 
ATOM     16  C   UNL     1       8.302   6.775  18.742  0.00  0.00    +0.000 A 
ATOM     17  C   UNL     1       7.560   7.457  17.778  0.00  0.00    +0.000 A 
ATOM     18  C   UNL     1       6.297   6.977  17.424  0.00  0.00    +0.000 A 
BRANCH  17  19
ATOM     19  O   UNL     1       8.158   8.586  17.286  0.00  0.00    +0.000 OA
ATOM     20  C   UNL     1       8.518   9.586  18.232  0.00  0.00    +0.000 C 
ENDBRANCH  17  19
ENDBRANCH  11  13
BRANCH   1  22
ATOM     21  N   UNL     1       2.438   8.105  18.248  0.00  0.00    +0.000 N 
ATOM     22  C   UNL     1       2.267   6.753  18.035  0.00  0.00    +0.000 C 
ATOM     23  O   UNL     1       1.214   6.338  17.532  0.00  0.00    +0.000 OA
ATOM     24  H   UNL     1       3.333   8.466  18.568  0.00  0.00    +0.000 HD
BRANCH  21  25
ATOM     25  C   UNL     1       1.416   9.029  17.796  0.00  0.00    +0.000 C 
BRANCH  25  26
ATOM     26  C   UNL     1       1.317  10.318  18.626  0.00  0.00    +0.000 C 
BRANCH  26  27
ATOM     27  N   UNL     1       0.097  10.465  19.462  0.00  0.00    +0.000 NA
BRANCH  27  28
ATOM     28  C   UNL     1       0.484  10.707  20.873  0.00  0.00    +0.000 C 
BRANCH  28  30
ATOM     29  C   UNL     1       0.063   9.522  23.092  0.00  0.00    +0.000 C 
ATOM     30  C   UNL     1      -0.539  10.329  21.954  0.00  0.00    +0.000 C 
ENDBRANCH  28  30
ENDBRANCH  27  28
BRANCH  27  31
ATOM     31  C   UNL     1      -0.738  11.577  18.952  0.00  0.00    +0.000 C 
BRANCH  31  32
ATOM     32  C   UNL     1      -2.179  11.218  18.542  0.00  0.00    +0.000 C 
ATOM     33  C   UNL     1      -2.263   9.980  17.665  0.00  0.00    +0.000 C 
ENDBRANCH  31  32
ENDBRANCH  27  31
ENDBRANCH  26  27
ENDBRANCH  25  26
ENDBRANCH  21  25
ENDBRANCH   1  22
BRANCH   1  34
ATOM     34  O   UNL     1       3.771   6.456  19.852  0.00  0.00    +0.000 OA
ATOM     35  H   UNL     1       3.353   6.022  20.616  0.00  0.00    +0.000 HD
ENDBRANCH   1  34
TORSDOF 11
ENDMDL
MODEL 3
REMARK VINA RESULT:      -7.5      0.787      1.759
REMARK  Name = 
REMARK  14 active torsions:
REMARK  status: ('A' for Active; 'I' for Inactive)
REMARK    1  A    between atoms: C_1  and  C_2
REMARK    2  A    between atoms: C_2  and  C_3
REMARK    3  A    between atoms: C_3  and  N_4
REMARK    4  A    between atoms: N_4  and  C_5
REMARK    5  A    between atoms: N_4  and  C_8
REMARK    6  A    between atoms: C_5  and  C_6
REMARK    7  A    between atoms: C_6  and  C_7
REMARK    8  A    between atoms: C_8  and  C_9
REMARK    9  A    between atoms: C_9  and  N_10
REMARK   10  A    between atoms: C_11  and  C_13
REMARK   11  A    between atoms: C_13  and  O_14
REMARK   12  A    between atoms: N_24  and  C_25
REMARK   13  A    between atoms: C_29  and  O_30
REMARK   14  A    between atoms: O_30  and  C_31
REMARK                            x       y       z     vdW  Elec       q    Type
REMARK                         _______ _______ _______ _____ _____    ______ ____
ROOT
ATOM      1  C   UNL     1       3.332   5.763  18.663  0.00  0.00    +0.000 C 
ATOM      2  C   UNL     1       2.601   4.507  19.091  0.00  0.00    +0.000 A 
ATOM      3  C   UNL     1       1.775   4.437  20.225  0.00  0.00    +0.000 A 
ATOM      4  C   UNL     1       1.047   3.280  20.504  0.00  0.00    +0.000 A 
ATOM      5  C   UNL     1       1.154   2.173  19.665  0.00  0.00    +0.000 A 
ATOM      6  C   UNL     1       1.951   2.239  18.523  0.00  0.00    +0.000 A 
ATOM      7  C   UNL     1       2.644   3.414  18.231  0.00  0.00    +0.000 A 
ATOM      8  N   UNL     1       3.359   3.525  17.042  0.00  0.00    +0.000 N 
ATOM      9  C   UNL     1       4.257   4.519  16.753  0.00  0.00    +0.000 C 
ATOM     10  O   UNL     1       4.912   4.423  15.718  0.00  0.00    +0.000 OA
ATOM     11  N   UNL     1       4.443   5.480  17.743  0.00  0.00    +0.000 N 
ATOM     12  H   UNL     1       3.370   2.754  16.386  0.00  0.00    +0.000 HD
ENDROOT
BRANCH  11  13
ATOM     13  C   UNL     1       5.791   5.877  18.017  0.00  0.00    +0.000 A 
ATOM     14  C   UNL     1       6.542   5.212  18.995  0.00  0.00    +0.000 A 
ATOM     15  C   UNL     1       7.811   5.671  19.348  0.00  0.00    +0.000 A 
ATOM     16  C   UNL     1       8.329   6.818  18.748  0.00  0.00    +0.000 A 
ATOM     17  C   UNL     1       7.587   7.513  17.792  0.00  0.00    +0.000 A 
ATOM     18  C   UNL     1       6.328   7.033  17.426  0.00  0.00    +0.000 A 
BRANCH  17  19
ATOM     19  O   UNL     1       8.181   8.653  17.321  0.00  0.00    +0.000 OA
ATOM     20  C   UNL     1       8.587   9.613  18.291  0.00  0.00    +0.000 C 
ENDBRANCH  17  19
ENDBRANCH  11  13
BRANCH   1  22
ATOM     21  N   UNL     1       2.562   8.129  18.099  0.00  0.00    +0.000 N 
ATOM     22  C   UNL     1       2.296   6.778  18.021  0.00  0.00    +0.000 C 
ATOM     23  O   UNL     1       1.177   6.392  17.659  0.00  0.00    +0.000 OA
ATOM     24  H   UNL     1       3.503   8.457  18.301  0.00  0.00    +0.000 HD
BRANCH  21  25
ATOM     25  C   UNL     1       1.553   9.077  17.668  0.00  0.00    +0.000 C 
BRANCH  25  26
ATOM     26  C   UNL     1       1.150  10.103  18.738  0.00  0.00    +0.000 C 
BRANCH  26  27
ATOM     27  N   UNL     1       0.042   9.704  19.643  0.00  0.00    +0.000 NA
BRANCH  27  28
ATOM     28  C   UNL     1       0.598   9.148  20.901  0.00  0.00    +0.000 C 
BRANCH  28  30
ATOM     29  C   UNL     1       0.013   9.507  23.357  0.00  0.00    +0.000 C 
ATOM     30  C   UNL     1      -0.392   8.867  22.040  0.00  0.00    +0.000 C 
ENDBRANCH  28  30
ENDBRANCH  27  28
BRANCH  27  31
ATOM     31  C   UNL     1      -0.827  10.870  19.927  0.00  0.00    +0.000 C 
BRANCH  31  32
ATOM     32  C   UNL     1      -0.126  12.238  20.022  0.00  0.00    +0.000 C 
ATOM     33  C   UNL     1      -0.049  12.775  21.442  0.00  0.00    +0.000 C 
ENDBRANCH  31  32
ENDBRANCH  27  31
ENDBRANCH  26  27
ENDBRANCH  25  26
ENDBRANCH  21  25
ENDBRANCH   1  22
BRANCH   1  34
ATOM     34  O   UNL     1       3.796   6.454  19.837  0.00  0.00    +0.000 OA
ATOM     35  H   UNL     1       4.489   5.889  20.221  0.00  0.00    +0.000 HD
ENDBRANCH   1  34
TORSDOF 11
ENDMDL
MODEL 4
REMARK VINA RESULT:      -7.5      3.792      6.946
REMARK  Name = 
REMARK  14 active torsions:
REMARK  status: ('A' for Active; 'I' for Inactive)
REMARK    1  A    between atoms: C_1  and  C_2
REMARK    2  A    between atoms: C_2  and  C_3
REMARK    3  A    between atoms: C_3  and  N_4
REMARK    4  A    between atoms: N_4  and  C_5
REMARK    5  A    between atoms: N_4  and  C_8
REMARK    6  A    between atoms: C_5  and  C_6
REMARK    7  A    between atoms: C_6  and  C_7
REMARK    8  A    between atoms: C_8  and  C_9
REMARK    9  A    between atoms: C_9  and  N_10
REMARK   10  A    between atoms: C_11  and  C_13
REMARK   11  A    between atoms: C_13  and  O_14
REMARK   12  A    between atoms: N_24  and  C_25
REMARK   13  A    between atoms: C_29  and  O_30
REMARK   14  A    between atoms: O_30  and  C_31
REMARK                            x       y       z     vdW  Elec       q    Type
REMARK                         _______ _______ _______ _____ _____    ______ ____
ROOT
ATOM      1  C   UNL     1       6.263   4.920  17.287  0.00  0.00    +0.000 C 
ATOM      2  C   UNL     1       4.997   4.612  18.059  0.00  0.00    +0.000 A 
ATOM      3  C   UNL     1       4.935   3.687  19.114  0.00  0.00    +0.000 A 
ATOM      4  C   UNL     1       3.762   3.528  19.853  0.00  0.00    +0.000 A 
ATOM      5  C   UNL     1       2.632   4.275  19.532  0.00  0.00    +0.000 A 
ATOM      6  C   UNL     1       2.688   5.215  18.504  0.00  0.00    +0.000 A 
ATOM      7  C   UNL     1       3.877   5.396  17.796  0.00  0.00    +0.000 A 
ATOM      8  N   UNL     1       3.974   6.402  16.839  0.00  0.00    +0.000 N 
ATOM      9  C   UNL     1       4.990   6.526  15.928  0.00  0.00    +0.000 C 
ATOM     10  O   UNL     1       4.882   7.387  15.057  0.00  0.00    +0.000 OA
ATOM     11  N   UNL     1       5.990   5.561  15.992  0.00  0.00    +0.000 N 
ATOM     12  H   UNL     1       3.182   7.006  16.662  0.00  0.00    +0.000 HD
ENDROOT
BRANCH  11  13
ATOM     13  C   UNL     1       6.445   5.013  14.750  0.00  0.00    +0.000 A 
ATOM     14  C   UNL     1       7.581   5.534  14.118  0.00  0.00    +0.000 A 
ATOM     15  C   UNL     1       7.957   5.083  12.853  0.00  0.00    +0.000 A 
ATOM     16  C   UNL     1       7.183   4.130  12.193  0.00  0.00    +0.000 A 
ATOM     17  C   UNL     1       6.032   3.618  12.792  0.00  0.00    +0.000 A 
ATOM     18  C   UNL     1       5.675   4.055  14.070  0.00  0.00    +0.000 A 
BRANCH  17  19
ATOM     19  O   UNL     1       5.328   2.733  12.020  0.00  0.00    +0.000 OA
ATOM     20  C   UNL     1       4.186   3.240  11.340  0.00  0.00    +0.000 C 
ENDBRANCH  17  19
ENDBRANCH  11  13
BRANCH   1  22
ATOM     21  N   UNL     1       7.473   7.111  17.783  0.00  0.00    +0.000 N 
ATOM     22  C   UNL     1       7.217   5.816  18.183  0.00  0.00    +0.000 C 
ATOM     23  O   UNL     1       7.891   5.308  19.090  0.00  0.00    +0.000 OA
ATOM     24  H   UNL     1       6.866   7.571  17.110  0.00  0.00    +0.000 HD
BRANCH  21  25
ATOM     25  C   UNL     1       8.468   7.890  18.495  0.00  0.00    +0.000 C 
BRANCH  25  26
ATOM     26  C   UNL     1       8.380   9.404  18.250  0.00  0.00    +0.000 C 
BRANCH  26  27
ATOM     27  N   UNL     1       9.512  10.216  18.766  0.00  0.00    +0.000 NA
BRANCH  27  28
ATOM     28  C   UNL     1       9.694  11.418  17.915  0.00  0.00    +0.000 C 
BRANCH  28  30
ATOM     29  C   UNL     1      11.245  13.206  16.965  0.00  0.00    +0.000 C 
ATOM     30  C   UNL     1      11.134  11.810  17.556  0.00  0.00    +0.000 C 
ENDBRANCH  28  30
ENDBRANCH  27  28
BRANCH  27  31
ATOM     31  C   UNL     1       9.260  10.606  20.172  0.00  0.00    +0.000 C 
BRANCH  31  32
ATOM     32  C   UNL     1       9.019  12.105  20.434  0.00  0.00    +0.000 C 
ATOM     33  C   UNL     1       9.681  12.606  21.707  0.00  0.00    +0.000 C 
ENDBRANCH  31  32
ENDBRANCH  27  31
ENDBRANCH  26  27
ENDBRANCH  25  26
ENDBRANCH  21  25
ENDBRANCH   1  22
BRANCH   1  34
ATOM     34  O   UNL     1       7.010   3.702  17.115  0.00  0.00    +0.000 OA
ATOM     35  H   UNL     1       6.993   3.256  17.980  0.00  0.00    +0.000 HD
ENDBRANCH   1  34
TORSDOF 11
ENDMDL
MODEL 5
REMARK VINA RESULT:      -7.4      1.037      1.981
REMARK  Name = 
REMARK  14 active torsions:
REMARK  status: ('A' for Active; 'I' for Inactive)
REMARK    1  A    between atoms: C_1  and  C_2
REMARK    2  A    between atoms: C_2  and  C_3
REMARK    3  A    between atoms: C_3  and  N_4
REMARK    4  A    between atoms: N_4  and  C_5
REMARK    5  A    between atoms: N_4  and  C_8
REMARK    6  A    between atoms: C_5  and  C_6
REMARK    7  A    between atoms: C_6  and  C_7
REMARK    8  A    between atoms: C_8  and  C_9
REMARK    9  A    between atoms: C_9  and  N_10
REMARK   10  A    between atoms: C_11  and  C_13
REMARK   11  A    between atoms: C_13  and  O_14
REMARK   12  A    between atoms: N_24  and  C_25
REMARK   13  A    between atoms: C_29  and  O_30
REMARK   14  A    between atoms: O_30  and  C_31
REMARK                            x       y       z     vdW  Elec       q    Type
REMARK                         _______ _______ _______ _____ _____    ______ ____
ROOT
ATOM      1  C   UNL     1       3.324   5.781  18.691  0.00  0.00    +0.000 C 
ATOM      2  C   UNL     1       2.604   4.540  19.178  0.00  0.00    +0.000 A 
ATOM      3  C   UNL     1       1.788   4.514  20.321  0.00  0.00    +0.000 A 
ATOM      4  C   UNL     1       1.069   3.366  20.654  0.00  0.00    +0.000 A 
ATOM      5  C   UNL     1       1.174   2.225  19.862  0.00  0.00    +0.000 A 
ATOM      6  C   UNL     1       1.962   2.247  18.711  0.00  0.00    +0.000 A 
ATOM      7  C   UNL     1       2.646   3.412  18.364  0.00  0.00    +0.000 A 
ATOM      8  N   UNL     1       3.350   3.477  17.165  0.00  0.00    +0.000 N 
ATOM      9  C   UNL     1       4.240   4.462  16.828  0.00  0.00    +0.000 C 
ATOM     10  O   UNL     1       4.887   4.326  15.791  0.00  0.00    +0.000 OA
ATOM     11  N   UNL     1       4.429   5.465  17.774  0.00  0.00    +0.000 N 
ATOM     12  H   UNL     1       3.359   2.679  16.543  0.00  0.00    +0.000 HD
ENDROOT
BRANCH  11  13
ATOM     13  C   UNL     1       5.777   5.880  18.019  0.00  0.00    +0.000 A 
ATOM     14  C   UNL     1       6.561   5.218  18.973  0.00  0.00    +0.000 A 
ATOM     15  C   UNL     1       7.831   5.693  19.300  0.00  0.00    +0.000 A 
ATOM     16  C   UNL     1       8.318   6.853  18.699  0.00  0.00    +0.000 A 
ATOM     17  C   UNL     1       7.543   7.545  17.768  0.00  0.00    +0.000 A 
ATOM     18  C   UNL     1       6.282   7.049  17.427  0.00  0.00    +0.000 A 
BRANCH  17  19
ATOM     19  O   UNL     1       8.108   8.698  17.294  0.00  0.00    +0.000 OA
ATOM     20  C   UNL     1       8.576   9.629  18.263  0.00  0.00    +0.000 C 
ENDBRANCH  17  19
ENDBRANCH  11  13
BRANCH   1  22
ATOM     21  N   UNL     1       2.412   8.119  18.230  0.00  0.00    +0.000 N 
ATOM     22  C   UNL     1       2.278   6.763  18.016  0.00  0.00    +0.000 C 
ATOM     23  O   UNL     1       1.243   6.322  17.498  0.00  0.00    +0.000 OA
ATOM     24  H   UNL     1       3.293   8.502  18.564  0.00  0.00    +0.000 HD
BRANCH  21  25
ATOM     25  C   UNL     1       1.375   9.017  17.761  0.00  0.00    +0.000 C 
BRANCH  25  26
ATOM     26  C   UNL     1       0.861   9.999  18.825  0.00  0.00    +0.000 C 
BRANCH  26  27
ATOM     27  N   UNL     1      -0.615  10.094  18.968  0.00  0.00    +0.000 NA
BRANCH  27  28
ATOM     28  C   UNL     1      -0.971  11.360  19.654  0.00  0.00    +0.000 C 
BRANCH  28  30
ATOM     29  C   UNL     1      -0.433  13.547  18.457  0.00  0.00    +0.000 C 
ATOM     30  C   UNL     1       0.004  12.536  19.505  0.00  0.00    +0.000 C 
ENDBRANCH  28  30
ENDBRANCH  27  28
BRANCH  27  31
ATOM     31  C   UNL     1      -1.261  10.023  17.637  0.00  0.00    +0.000 C 
BRANCH  31  32
ATOM     32  C   UNL     1      -2.799  10.106  17.618  0.00  0.00    +0.000 C 
ATOM     33  C   UNL     1      -3.334  11.086  16.587  0.00  0.00    +0.000 C 
ENDBRANCH  31  32
ENDBRANCH  27  31
ENDBRANCH  26  27
ENDBRANCH  25  26
ENDBRANCH  21  25
ENDBRANCH   1  22
BRANCH   1  34
ATOM     34  O   UNL     1       3.794   6.523  19.831  0.00  0.00    +0.000 OA
ATOM     35  H   UNL     1       3.643   7.460  19.618  0.00  0.00    +0.000 HD
ENDBRANCH   1  34
TORSDOF 11
ENDMDL
MODEL 6
REMARK VINA RESULT:      -7.3      0.951      1.203
REMARK  Name = 
REMARK  14 active torsions:
REMARK  status: ('A' for Active; 'I' for Inactive)
REMARK    1  A    between atoms: C_1  and  C_2
REMARK    2  A    between atoms: C_2  and  C_3
REMARK    3  A    between atoms: C_3  and  N_4
REMARK    4  A    between atoms: N_4  and  C_5
REMARK    5  A    between atoms: N_4  and  C_8
REMARK    6  A    between atoms: C_5  and  C_6
REMARK    7  A    between atoms: C_6  and  C_7
REMARK    8  A    between atoms: C_8  and  C_9
REMARK    9  A    between atoms: C_9  and  N_10
REMARK   10  A    between atoms: C_11  and  C_13
REMARK   11  A    between atoms: C_13  and  O_14
REMARK   12  A    between atoms: N_24  and  C_25
REMARK   13  A    between atoms: C_29  and  O_30
REMARK   14  A    between atoms: O_30  and  C_31
REMARK                            x       y       z     vdW  Elec       q    Type
REMARK                         _______ _______ _______ _____ _____    ______ ____
ROOT
ATOM      1  C   UNL     1       3.313   5.757  18.734  0.00  0.00    +0.000 C 
ATOM      2  C   UNL     1       2.616   4.511  19.242  0.00  0.00    +0.000 A 
ATOM      3  C   UNL     1       1.813   4.484  20.393  0.00  0.00    +0.000 A 
ATOM      4  C   UNL     1       1.115   3.329  20.747  0.00  0.00    +0.000 A 
ATOM      5  C   UNL     1       1.229   2.182  19.965  0.00  0.00    +0.000 A 
ATOM      6  C   UNL     1       2.003   2.203  18.806  0.00  0.00    +0.000 A 
ATOM      7  C   UNL     1       2.666   3.375  18.439  0.00  0.00    +0.000 A 
ATOM      8  N   UNL     1       3.356   3.438  17.232  0.00  0.00    +0.000 N 
ATOM      9  C   UNL     1       4.228   4.433  16.874  0.00  0.00    +0.000 C 
ATOM     10  O   UNL     1       4.866   4.295  15.832  0.00  0.00    +0.000 OA
ATOM     11  N   UNL     1       4.412   5.448  17.808  0.00  0.00    +0.000 N 
ATOM     12  H   UNL     1       3.371   2.634  16.618  0.00  0.00    +0.000 HD
ENDROOT
BRANCH  11  13
ATOM     13  C   UNL     1       5.756   5.885  18.035  0.00  0.00    +0.000 A 
ATOM     14  C   UNL     1       6.565   5.237  18.977  0.00  0.00    +0.000 A 
ATOM     15  C   UNL     1       7.831   5.733  19.285  0.00  0.00    +0.000 A 
ATOM     16  C   UNL     1       8.289   6.901  18.678  0.00  0.00    +0.000 A 
ATOM     17  C   UNL     1       7.490   7.580  17.758  0.00  0.00    +0.000 A 
ATOM     18  C   UNL     1       6.233   7.063  17.435  0.00  0.00    +0.000 A 
BRANCH  17  19
ATOM     19  O   UNL     1       8.029   8.742  17.276  0.00  0.00    +0.000 OA
ATOM     20  C   UNL     1       8.589   9.635  18.233  0.00  0.00    +0.000 C 
ENDBRANCH  17  19
ENDBRANCH  11  13
BRANCH   1  22
ATOM     21  N   UNL     1       2.293   8.064  18.350  0.00  0.00    +0.000 N 
ATOM     22  C   UNL     1       2.244   6.716  18.061  0.00  0.00    +0.000 C 
ATOM     23  O   UNL     1       1.260   6.249  17.472  0.00  0.00    +0.000 OA
ATOM     24  H   UNL     1       3.134   8.475  18.745  0.00  0.00    +0.000 HD
BRANCH  21  25
ATOM     25  C   UNL     1       1.229   8.929  17.878  0.00  0.00    +0.000 C 
BRANCH  25  26
ATOM     26  C   UNL     1       1.245  10.340  18.486  0.00  0.00    +0.000 C 
BRANCH  26  27
ATOM     27  N   UNL     1       1.086  10.418  19.961  0.00  0.00    +0.000 NA
BRANCH  27  28
ATOM     28  C   UNL     1       1.124  11.836  20.395  0.00  0.00    +0.000 C 
BRANCH  28  30
ATOM     29  C   UNL     1      -0.589  13.459  19.426  0.00  0.00    +0.000 C 
ATOM     30  C   UNL     1       0.822  12.902  19.331  0.00  0.00    +0.000 C 
ENDBRANCH  28  30
ENDBRANCH  27  28
BRANCH  27  31
ATOM     31  C   UNL     1      -0.188   9.782  20.370  0.00  0.00    +0.000 C 
BRANCH  31  32
ATOM     32  C   UNL     1      -0.131   8.874  21.613  0.00  0.00    +0.000 C 
ATOM     33  C   UNL     1      -0.524   9.588  22.896  0.00  0.00    +0.000 C 
ENDBRANCH  31  32
ENDBRANCH  27  31
ENDBRANCH  26  27
ENDBRANCH  25  26
ENDBRANCH  21  25
ENDBRANCH   1  22
BRANCH   1  34
ATOM     34  O   UNL     1       3.784   6.518  19.861  0.00  0.00    +0.000 OA
ATOM     35  H   UNL     1       4.335   5.907  20.382  0.00  0.00    +0.000 HD
ENDBRANCH   1  34
TORSDOF 11
ENDMDL
MODEL 7
REMARK VINA RESULT:      -7.3      0.943      1.311
REMARK  Name = 
REMARK  14 active torsions:
REMARK  status: ('A' for Active; 'I' for Inactive)
REMARK    1  A    between atoms: C_1  and  C_2
REMARK    2  A    between atoms: C_2  and  C_3
REMARK    3  A    between atoms: C_3  and  N_4
REMARK    4  A    between atoms: N_4  and  C_5
REMARK    5  A    between atoms: N_4  and  C_8
REMARK    6  A    between atoms: C_5  and  C_6
REMARK    7  A    between atoms: C_6  and  C_7
REMARK    8  A    between atoms: C_8  and  C_9
REMARK    9  A    between atoms: C_9  and  N_10
REMARK   10  A    between atoms: C_11  and  C_13
REMARK   11  A    between atoms: C_13  and  O_14
REMARK   12  A    between atoms: N_24  and  C_25
REMARK   13  A    between atoms: C_29  and  O_30
REMARK   14  A    between atoms: O_30  and  C_31
REMARK                            x       y       z     vdW  Elec       q    Type
REMARK                         _______ _______ _______ _____ _____    ______ ____
ROOT
ATOM      1  C   UNL     1       3.282   5.709  18.712  0.00  0.00    +0.000 C 
ATOM      2  C   UNL     1       2.584   4.467  19.227  0.00  0.00    +0.000 A 
ATOM      3  C   UNL     1       1.773   4.450  20.374  0.00  0.00    +0.000 A 
ATOM      4  C   UNL     1       1.074   3.298  20.734  0.00  0.00    +0.000 A 
ATOM      5  C   UNL     1       1.194   2.143  19.964  0.00  0.00    +0.000 A 
ATOM      6  C   UNL     1       1.975   2.155  18.809  0.00  0.00    +0.000 A 
ATOM      7  C   UNL     1       2.639   3.324  18.435  0.00  0.00    +0.000 A 
ATOM      8  N   UNL     1       3.337   3.376  17.232  0.00  0.00    +0.000 N 
ATOM      9  C   UNL     1       4.209   4.369  16.870  0.00  0.00    +0.000 C 
ATOM     10  O   UNL     1       4.854   4.222  15.834  0.00  0.00    +0.000 OA
ATOM     11  N   UNL     1       4.387   5.393  17.796  0.00  0.00    +0.000 N 
ATOM     12  H   UNL     1       3.356   2.566  16.625  0.00  0.00    +0.000 HD
ENDROOT
BRANCH  11  13
ATOM     13  C   UNL     1       5.730   5.834  18.026  0.00  0.00    +0.000 A 
ATOM     14  C   UNL     1       6.536   5.188  18.972  0.00  0.00    +0.000 A 
ATOM     15  C   UNL     1       7.801   5.688  19.285  0.00  0.00    +0.000 A 
ATOM     16  C   UNL     1       8.258   6.856  18.678  0.00  0.00    +0.000 A 
ATOM     17  C   UNL     1       7.460   7.532  17.754  0.00  0.00    +0.000 A 
ATOM     18  C   UNL     1       6.205   7.012  17.427  0.00  0.00    +0.000 A 
BRANCH  17  19
ATOM     19  O   UNL     1       7.998   8.695  17.272  0.00  0.00    +0.000 OA
ATOM     20  C   UNL     1       8.581   9.576  18.226  0.00  0.00    +0.000 C 
ENDBRANCH  17  19
ENDBRANCH  11  13
BRANCH   1  22
ATOM     21  N   UNL     1       2.273   8.014  18.287  0.00  0.00    +0.000 N 
ATOM     22  C   UNL     1       2.217   6.661  18.023  0.00  0.00    +0.000 C 
ATOM     23  O   UNL     1       1.228   6.188  17.446  0.00  0.00    +0.000 OA
ATOM     24  H   UNL     1       3.117   8.428  18.672  0.00  0.00    +0.000 HD
BRANCH  21  25
ATOM     25  C   UNL     1       1.212   8.875  17.801  0.00  0.00    +0.000 C 
BRANCH  25  26
ATOM     26  C   UNL     1       1.101  10.219  18.538  0.00  0.00    +0.000 C 
BRANCH  26  27
ATOM     27  N   UNL     1      -0.240  10.858  18.534  0.00  0.00    +0.000 NA
BRANCH  27  28
ATOM     28  C   UNL     1      -1.192  10.019  17.766  0.00  0.00    +0.000 C 
BRANCH  28  30
ATOM     29  C   UNL     1      -2.651  10.144  15.678  0.00  0.00    +0.000 C 
ATOM     30  C   UNL     1      -2.334  10.743  17.038  0.00  0.00    +0.000 C 
ENDBRANCH  28  30
ENDBRANCH  27  28
BRANCH  27  31
ATOM     31  C   UNL     1      -0.716  11.050  19.923  0.00  0.00    +0.000 C 
BRANCH  31  32
ATOM     32  C   UNL     1      -1.338  12.421  20.250  0.00  0.00    +0.000 C 
ATOM     33  C   UNL     1      -0.773  13.552  19.407  0.00  0.00    +0.000 C 
ENDBRANCH  31  32
ENDBRANCH  27  31
ENDBRANCH  26  27
ENDBRANCH  25  26
ENDBRANCH  21  25
ENDBRANCH   1  22
BRANCH   1  34
ATOM     34  O   UNL     1       3.745   6.481  19.835  0.00  0.00    +0.000 OA
ATOM     35  H   UNL     1       3.697   5.886  20.604  0.00  0.00    +0.000 HD
ENDBRANCH   1  34
TORSDOF 11
ENDMDL
MODEL 8
REMARK VINA RESULT:      -7.0      1.139      1.725
REMARK  Name = 
REMARK  14 active torsions:
REMARK  status: ('A' for Active; 'I' for Inactive)
REMARK    1  A    between atoms: C_1  and  C_2
REMARK    2  A    between atoms: C_2  and  C_3
REMARK    3  A    between atoms: C_3  and  N_4
REMARK    4  A    between atoms: N_4  and  C_5
REMARK    5  A    between atoms: N_4  and  C_8
REMARK    6  A    between atoms: C_5  and  C_6
REMARK    7  A    between atoms: C_6  and  C_7
REMARK    8  A    between atoms: C_8  and  C_9
REMARK    9  A    between atoms: C_9  and  N_10
REMARK   10  A    between atoms: C_11  and  C_13
REMARK   11  A    between atoms: C_13  and  O_14
REMARK   12  A    between atoms: N_24  and  C_25
REMARK   13  A    between atoms: C_29  and  O_30
REMARK   14  A    between atoms: O_30  and  C_31
REMARK                            x       y       z     vdW  Elec       q    Type
REMARK                         _______ _______ _______ _____ _____    ______ ____
ROOT
ATOM      1  C   UNL     1       3.308   5.802  18.687  0.00  0.00    +0.000 C 
ATOM      2  C   UNL     1       2.577   4.553  19.132  0.00  0.00    +0.000 A 
ATOM      3  C   UNL     1       1.760   4.495  20.274  0.00  0.00    +0.000 A 
ATOM      4  C   UNL     1       1.031   3.343  20.569  0.00  0.00    +0.000 A 
ATOM      5  C   UNL     1       1.127   2.228  19.740  0.00  0.00    +0.000 A 
ATOM      6  C   UNL     1       1.914   2.281  18.590  0.00  0.00    +0.000 A 
ATOM      7  C   UNL     1       2.609   3.451  18.281  0.00  0.00    +0.000 A 
ATOM      8  N   UNL     1       3.313   3.550  17.085  0.00  0.00    +0.000 N 
ATOM      9  C   UNL     1       4.212   4.538  16.780  0.00  0.00    +0.000 C 
ATOM     10  O   UNL     1       4.858   4.431  15.739  0.00  0.00    +0.000 OA
ATOM     11  N   UNL     1       4.410   5.507  17.759  0.00  0.00    +0.000 N 
ATOM     12  H   UNL     1       3.316   2.773  16.436  0.00  0.00    +0.000 HD
ENDROOT
BRANCH  11  13
ATOM     13  C   UNL     1       5.762   5.902  18.018  0.00  0.00    +0.000 A 
ATOM     14  C   UNL     1       6.525   5.232  18.983  0.00  0.00    +0.000 A 
ATOM     15  C   UNL     1       7.799   5.688  19.322  0.00  0.00    +0.000 A 
ATOM     16  C   UNL     1       8.310   6.838  18.722  0.00  0.00    +0.000 A 
ATOM     17  C   UNL     1       7.556   7.538  17.779  0.00  0.00    +0.000 A 
ATOM     18  C   UNL     1       6.292   7.060  17.426  0.00  0.00    +0.000 A 
BRANCH  17  19
ATOM     19  O   UNL     1       8.145   8.680  17.306  0.00  0.00    +0.000 OA
ATOM     20  C   UNL     1       8.599   9.617  18.276  0.00  0.00    +0.000 C 
ENDBRANCH  17  19
ENDBRANCH  11  13
BRANCH   1  22
ATOM     21  N   UNL     1       2.394   8.158  18.334  0.00  0.00    +0.000 N 
ATOM     22  C   UNL     1       2.270   6.815  18.045  0.00  0.00    +0.000 C 
ATOM     23  O   UNL     1       1.248   6.399  17.484  0.00  0.00    +0.000 OA
ATOM     24  H   UNL     1       3.266   8.526  18.705  0.00  0.00    +0.000 HD
BRANCH  21  25
ATOM     25  C   UNL     1       1.362   9.077  17.894  0.00  0.00    +0.000 C 
BRANCH  25  26
ATOM     26  C   UNL     1       0.590   9.755  19.036  0.00  0.00    +0.000 C 
BRANCH  26  27
ATOM     27  N   UNL     1       0.432  11.228  18.933  0.00  0.00    +0.000 NA
BRANCH  27  28
ATOM     28  C   UNL     1      -1.008  11.582  18.974  0.00  0.00    +0.000 C 
BRANCH  28  30
ATOM     29  C   UNL     1      -2.951  12.719  20.173  0.00  0.00    +0.000 C 
ATOM     30  C   UNL     1      -1.558  12.125  20.301  0.00  0.00    +0.000 C 
ENDBRANCH  28  30
ENDBRANCH  27  28
BRANCH  27  31
ATOM     31  C   UNL     1       1.164  11.896  20.034  0.00  0.00    +0.000 C 
BRANCH  31  32
ATOM     32  C   UNL     1       2.082  13.067  19.635  0.00  0.00    +0.000 C 
ATOM     33  C   UNL     1       2.590  12.970  18.206  0.00  0.00    +0.000 C 
ENDBRANCH  31  32
ENDBRANCH  27  31
ENDBRANCH  26  27
ENDBRANCH  25  26
ENDBRANCH  21  25
ENDBRANCH   1  22
BRANCH   1  34
ATOM     34  O   UNL     1       3.785   6.502  19.851  0.00  0.00    +0.000 OA
ATOM     35  H   UNL     1       4.748   6.367  19.865  0.00  0.00    +0.000 HD
ENDBRANCH   1  34
TORSDOF 11
ENDMDL
MODEL 9
REMARK VINA RESULT:      -6.9      3.770      8.337
REMARK  Name = 
REMARK  14 active torsions:
REMARK  status: ('A' for Active; 'I' for Inactive)
REMARK    1  A    between atoms: C_1  and  C_2
REMARK    2  A    between atoms: C_2  and  C_3
REMARK    3  A    between atoms: C_3  and  N_4
REMARK    4  A    between atoms: N_4  and  C_5
REMARK    5  A    between atoms: N_4  and  C_8
REMARK    6  A    between atoms: C_5  and  C_6
REMARK    7  A    between atoms: C_6  and  C_7
REMARK    8  A    between atoms: C_8  and  C_9
REMARK    9  A    between atoms: C_9  and  N_10
REMARK   10  A    between atoms: C_11  and  C_13
REMARK   11  A    between atoms: C_13  and  O_14
REMARK   12  A    between atoms: N_24  and  C_25
REMARK   13  A    between atoms: C_29  and  O_30
REMARK   14  A    between atoms: O_30  and  C_31
REMARK                            x       y       z     vdW  Elec       q    Type
REMARK                         _______ _______ _______ _____ _____    ______ ____
ROOT
ATOM      1  C   UNL     1       0.124  11.125  19.110  0.00  0.00    +0.000 C 
ATOM      2  C   UNL     1      -1.217  10.965  18.424  0.00  0.00    +0.000 A 
ATOM      3  C   UNL     1      -1.433  10.110  17.330  0.00  0.00    +0.000 A 
ATOM      4  C   UNL     1      -2.716   9.928  16.812  0.00  0.00    +0.000 A 
ATOM      5  C   UNL     1      -3.793  10.615  17.367  0.00  0.00    +0.000 A 
ATOM      6  C   UNL     1      -3.596  11.447  18.468  0.00  0.00    +0.000 A 
ATOM      7  C   UNL     1      -2.316  11.592  19.004  0.00  0.00    +0.000 A 
ATOM      8  N   UNL     1      -2.125  12.336  20.165  0.00  0.00    +0.000 N 
ATOM      9  C   UNL     1      -0.909  12.742  20.649  0.00  0.00    +0.000 C 
ATOM     10  O   UNL     1      -0.896  13.504  21.614  0.00  0.00    +0.000 OA
ATOM     11  N   UNL     1       0.203  12.359  19.905  0.00  0.00    +0.000 N 
ATOM     12  H   UNL     1      -2.918  12.768  20.622  0.00  0.00    +0.000 HD
ENDROOT
BRANCH  11  13
ATOM     13  C   UNL     1       1.213  13.351  19.690  0.00  0.00    +0.000 A 
ATOM     14  C   UNL     1       2.405  13.321  20.425  0.00  0.00    +0.000 A 
ATOM     15  C   UNL     1       3.338  14.351  20.304  0.00  0.00    +0.000 A 
ATOM     16  C   UNL     1       3.074  15.437  19.471  0.00  0.00    +0.000 A 
ATOM     17  C   UNL     1       1.880  15.502  18.752  0.00  0.00    +0.000 A 
ATOM     18  C   UNL     1       0.962  14.455  18.858  0.00  0.00    +0.000 A 
BRANCH  17  19
ATOM     19  O   UNL     1       1.715  16.645  18.016  0.00  0.00    +0.000 OA
ATOM     20  C   UNL     1       1.043  17.726  18.652  0.00  0.00    +0.000 C 
ENDBRANCH  17  19
ENDBRANCH  11  13
BRANCH   1  22
ATOM     21  N   UNL     1       1.468   9.027  19.657  0.00  0.00    +0.000 N 
ATOM     22  C   UNL     1       0.412   9.846  20.001  0.00  0.00    +0.000 C 
ATOM     23  O   UNL     1      -0.411   9.465  20.844  0.00  0.00    +0.000 OA
ATOM     24  H   UNL     1       2.202   9.365  19.040  0.00  0.00    +0.000 HD
BRANCH  21  25
ATOM     25  C   UNL     1       1.646   7.769  20.356  0.00  0.00    +0.000 C 
BRANCH  25  26
ATOM     26  C   UNL     1       2.238   6.644  19.493  0.00  0.00    +0.000 C 
BRANCH  26  27
ATOM     27  N   UNL     1       3.107   5.667  20.198  0.00  0.00    +0.000 NA
BRANCH  27  28
ATOM     28  C   UNL     1       2.268   4.694  20.940  0.00  0.00    +0.000 C 
BRANCH  28  30
ATOM     29  C   UNL     1       1.052   2.650  20.019  0.00  0.00    +0.000 C 
ATOM     30  C   UNL     1       1.022   4.155  20.223  0.00  0.00    +0.000 C 
ENDBRANCH  28  30
ENDBRANCH  27  28
BRANCH  27  31
ATOM     31  C   UNL     1       3.980   4.969  19.226  0.00  0.00    +0.000 C 
BRANCH  31  32
ATOM     32  C   UNL     1       3.544   5.027  17.750  0.00  0.00    +0.000 C 
ATOM     33  C   UNL     1       3.209   3.664  17.169  0.00  0.00    +0.000 C 
ENDBRANCH  31  32
ENDBRANCH  27  31
ENDBRANCH  26  27
ENDBRANCH  25  26
ENDBRANCH  21  25
ENDBRANCH   1  22
BRANCH   1  34
ATOM     34  O   UNL     1       1.163  11.083  18.115  0.00  0.00    +0.000 OA
ATOM     35  H   UNL     1       0.733  11.312  17.272  0.00  0.00    +0.000 HD
ENDBRANCH   1  34
TORSDOF 11
ENDMDL
