MODEL 1
REMARK VINA RESULT:      -8.8      0.000      0.000
REMARK  Name = 
REMARK  5 active torsions:
REMARK  status: ('A' for Active; 'I' for Inactive)
REMARK    1  A    between atoms: C_1  and  C_2
REMARK    2  A    between atoms: C_5  and  C_6
REMARK    3  A    between atoms: C_6  and  N_7
REMARK    4  A    between atoms: C_8  and  C_10
REMARK    5  A    between atoms: C_13  and  N_14
REMARK                            x       y       z     vdW  Elec       q    Type
REMARK                         _______ _______ _______ _____ _____    ______ ____
ROOT
ATOM      1  C   UNL     1       3.754   6.135  18.363  0.00  0.00    +0.000 A 
ATOM      2  C   UNL     1       3.041   6.026  19.548  0.00  0.00    +0.000 A 
ATOM      3  C   UNL     1       2.146   7.031  19.925  0.00  0.00    +0.000 A 
ATOM      4  C   UNL     1       1.938   8.183  19.151  0.00  0.00    +0.000 A 
ATOM      5  C   UNL     1       2.672   8.296  17.963  0.00  0.00    +0.000 A 
ATOM      6  C   UNL     1       3.581   7.281  17.577  0.00  0.00    +0.000 A 
ENDROOT
BRANCH   4   7
ATOM      7  N   UNL     1       1.025   9.221  19.528  0.00  0.00    +0.000 N 
ATOM      8  C   UNL     1       0.686   9.519  20.823  0.00  0.00    +0.000 C 
ATOM      9  O   UNL     1       1.163   8.949  21.802  0.00  0.00    +0.000 OA
ATOM     10  N   UNL     1      -0.253  10.484  21.064  0.00  0.00    +0.000 N 
ATOM     11  C   UNL     1      -0.616  10.645  22.471  0.00  0.00    +0.000 C 
ATOM     12  C   UNL     1      -1.693  11.662  22.460  0.00  0.00    +0.000 A 
ATOM     13  C   UNL     1      -2.452  12.083  23.539  0.00  0.00    +0.000 A 
ATOM     14  C   UNL     1      -3.371  13.104  23.330  0.00  0.00    +0.000 A 
ATOM     15  C   UNL     1      -3.490  13.694  22.062  0.00  0.00    +0.000 A 
ATOM     16  C   UNL     1      -2.727  13.238  20.972  0.00  0.00    +0.000 A 
ATOM     17  C   UNL     1      -1.842  12.194  21.175  0.00  0.00    +0.000 A 
ATOM     18  C   UNL     1      -0.956  11.447  20.207  0.00  0.00    +0.000 C 
ATOM     19  H   UNL     1       0.604   9.766  18.792  0.00  0.00    +0.000 HD
ENDBRANCH   4   7
BRANCH   1  21
ATOM     20  N   UNL     1       5.856   5.481  17.319  0.00  0.00    +0.000 N 
ATOM     21  C   UNL     1       4.710   5.062  17.959  0.00  0.00    +0.000 C 
ATOM     22  O   UNL     1       4.470   3.887  18.208  0.00  0.00    +0.000 OA
ATOM     23  H   UNL     1       6.093   6.466  17.258  0.00  0.00    +0.000 HD
BRANCH  20  24
ATOM     24  C   UNL     1       6.874   4.551  16.865  0.00  0.00    +0.000 C 
BRANCH  24  29
ATOM     25  C   UNL     1       5.784   3.198  12.333  0.00  0.00    +0.000 C 
ATOM     26  C   UNL     1       6.482   3.988  13.362  0.00  0.00    +0.000 A 
ATOM     27  C   UNL     1       7.426   4.986  13.340  0.00  0.00    +0.000 A 
ATOM     28  N   UNL     1       7.737   5.371  14.621  0.00  0.00    +0.000 NA
ATOM     29  C   UNL     1       6.972   4.600  15.376  0.00  0.00    +0.000 A 
ATOM     30  O   UNL     1       6.179   3.730  14.671  0.00  0.00    +0.000 OA
ENDBRANCH  24  29
ENDBRANCH  20  24
ENDBRANCH   1  21
TORSDOF 4
ENDMDL
MODEL 2
REMARK VINA RESULT:      -8.6      1.736      3.036
REMARK  Name = 
REMARK  5 active torsions:
REMARK  status: ('A' for Active; 'I' for Inactive)
REMARK    1  A    between atoms: C_1  and  C_2
REMARK    2  A    between atoms: C_5  and  C_6
REMARK    3  A    between atoms: C_6  and  N_7
REMARK    4  A    between atoms: C_8  and  C_10
REMARK    5  A    between atoms: C_13  and  N_14
REMARK                            x       y       z     vdW  Elec       q    Type
REMARK                         _______ _______ _______ _____ _____    ______ ____
ROOT
ATOM      1  C   UNL     1       4.950   5.171  16.404  0.00  0.00    +0.000 A 
ATOM      2  C   UNL     1       4.227   4.468  17.358  0.00  0.00    +0.000 A 
ATOM      3  C   UNL     1       3.408   5.150  18.263  0.00  0.00    +0.000 A 
ATOM      4  C   UNL     1       3.288   6.548  18.264  0.00  0.00    +0.000 A 
ATOM      5  C   UNL     1       4.032   7.254  17.309  0.00  0.00    +0.000 A 
ATOM      6  C   UNL     1       4.864   6.569  16.391  0.00  0.00    +0.000 A 
ENDROOT
BRANCH   4   7
ATOM      7  N   UNL     1       2.453   7.257  19.187  0.00  0.00    +0.000 N 
ATOM      8  C   UNL     1       1.770   8.407  18.885  0.00  0.00    +0.000 C 
ATOM      9  O   UNL     1       1.773   8.931  17.773  0.00  0.00    +0.000 OA
ATOM     10  N   UNL     1       1.059   9.041  19.867  0.00  0.00    +0.000 N 
ATOM     11  C   UNL     1       0.461  10.312  19.464  0.00  0.00    +0.000 C 
ATOM     12  C   UNL     1      -0.164  10.835  20.701  0.00  0.00    +0.000 A 
ATOM     13  C   UNL     1      -0.765  12.070  20.873  0.00  0.00    +0.000 A 
ATOM     14  C   UNL     1      -1.355  12.342  22.101  0.00  0.00    +0.000 A 
ATOM     15  C   UNL     1      -1.354  11.369  23.112  0.00  0.00    +0.000 A 
ATOM     16  C   UNL     1      -0.719  10.128  22.929  0.00  0.00    +0.000 A 
ATOM     17  C   UNL     1      -0.096   9.876  21.718  0.00  0.00    +0.000 A 
ATOM     18  C   UNL     1       0.718   8.694  21.252  0.00  0.00    +0.000 C 
ATOM     19  H   UNL     1       2.363   6.885  20.120  0.00  0.00    +0.000 HD
ENDBRANCH   4   7
BRANCH   1  21
ATOM     20  N   UNL     1       6.251   5.167  14.344  0.00  0.00    +0.000 N 
ATOM     21  C   UNL     1       5.825   4.444  15.437  0.00  0.00    +0.000 C 
ATOM     22  O   UNL     1       6.141   3.279  15.637  0.00  0.00    +0.000 OA
ATOM     23  H   UNL     1       6.094   6.168  14.283  0.00  0.00    +0.000 HD
BRANCH  20  24
ATOM     24  C   UNL     1       7.103   4.592  13.320  0.00  0.00    +0.000 C 
BRANCH  24  29
ATOM     25  C   UNL     1       3.231   3.181  10.756  0.00  0.00    +0.000 C 
ATOM     26  C   UNL     1       4.577   3.034  11.336  0.00  0.00    +0.000 A 
ATOM     27  C   UNL     1       5.531   2.046  11.327  0.00  0.00    +0.000 A 
ATOM     28  N   UNL     1       6.628   2.442  12.052  0.00  0.00    +0.000 NA
ATOM     29  C   UNL     1       6.307   3.654  12.473  0.00  0.00    +0.000 A 
ATOM     30  O   UNL     1       5.066   4.079  12.072  0.00  0.00    +0.000 OA
ENDBRANCH  24  29
ENDBRANCH  20  24
ENDBRANCH   1  21
TORSDOF 4
ENDMDL
MODEL 3
REMARK VINA RESULT:      -8.5      1.691      2.926
REMARK  Name = 
REMARK  5 active torsions:
REMARK  status: ('A' for Active; 'I' for Inactive)
REMARK    1  A    between atoms: C_1  and  C_2
REMARK    2  A    between atoms: C_5  and  C_6
REMARK    3  A    between atoms: C_6  and  N_7
REMARK    4  A    between atoms: C_8  and  C_10
REMARK    5  A    between atoms: C_13  and  N_14
REMARK                            x       y       z     vdW  Elec       q    Type
REMARK                         _______ _______ _______ _____ _____    ______ ____
ROOT
ATOM      1  C   UNL     1       4.765   5.320  16.609  0.00  0.00    +0.000 A 
ATOM      2  C   UNL     1       4.976   6.677  16.808  0.00  0.00    +0.000 A 
ATOM      3  C   UNL     1       4.168   7.391  17.697  0.00  0.00    +0.000 A 
ATOM      4  C   UNL     1       3.116   6.791  18.408  0.00  0.00    +0.000 A 
ATOM      5  C   UNL     1       2.898   5.424  18.191  0.00  0.00    +0.000 A 
ATOM      6  C   UNL     1       3.712   4.696  17.290  0.00  0.00    +0.000 A 
ENDROOT
BRANCH   4   7
ATOM      7  N   UNL     1       2.281   7.513  19.320  0.00  0.00    +0.000 N 
ATOM      8  C   UNL     1       1.514   8.596  18.974  0.00  0.00    +0.000 C 
ATOM      9  O   UNL     1       1.433   9.038  17.830  0.00  0.00    +0.000 OA
ATOM     10  N   UNL     1       0.809   9.254  19.944  0.00  0.00    +0.000 N 
ATOM     11  C   UNL     1       0.114  10.455  19.485  0.00  0.00    +0.000 C 
ATOM     12  C   UNL     1      -0.486  11.027  20.713  0.00  0.00    +0.000 A 
ATOM     13  C   UNL     1      -1.155  12.234  20.829  0.00  0.00    +0.000 A 
ATOM     14  C   UNL     1      -1.705  12.556  22.063  0.00  0.00    +0.000 A 
ATOM     15  C   UNL     1      -1.597  11.660  23.138  0.00  0.00    +0.000 A 
ATOM     16  C   UNL     1      -0.893  10.449  23.009  0.00  0.00    +0.000 A 
ATOM     17  C   UNL     1      -0.312  10.149  21.789  0.00  0.00    +0.000 A 
ATOM     18  C   UNL     1       0.554   8.988  21.365  0.00  0.00    +0.000 C 
ATOM     19  H   UNL     1       2.257   7.205  20.280  0.00  0.00    +0.000 HD
ENDBRANCH   4   7
BRANCH   1  21
ATOM     20  N   UNL     1       6.098   5.257  14.570  0.00  0.00    +0.000 N 
ATOM     21  C   UNL     1       5.627   4.556  15.659  0.00  0.00    +0.000 C 
ATOM     22  O   UNL     1       5.893   3.380  15.868  0.00  0.00    +0.000 OA
ATOM     23  H   UNL     1       5.981   6.263  14.503  0.00  0.00    +0.000 HD
BRANCH  20  24
ATOM     24  C   UNL     1       6.944   4.645  13.562  0.00  0.00    +0.000 C 
BRANCH  24  29
ATOM     25  C   UNL     1       6.074   0.698  10.873  0.00  0.00    +0.000 C 
ATOM     26  C   UNL     1       5.745   1.993  11.494  0.00  0.00    +0.000 A 
ATOM     27  C   UNL     1       4.643   2.814  11.493  0.00  0.00    +0.000 A 
ATOM     28  N   UNL     1       4.886   3.932  12.252  0.00  0.00    +0.000 NA
ATOM     29  C   UNL     1       6.121   3.753  12.691  0.00  0.00    +0.000 A 
ATOM     30  O   UNL     1       6.707   2.588  12.265  0.00  0.00    +0.000 OA
ENDBRANCH  24  29
ENDBRANCH  20  24
ENDBRANCH   1  21
TORSDOF 4
ENDMDL
MODEL 4
REMARK VINA RESULT:      -8.4      6.485      9.166
REMARK  Name = 
REMARK  5 active torsions:
REMARK  status: ('A' for Active; 'I' for Inactive)
REMARK    1  A    between atoms: C_1  and  C_2
REMARK    2  A    between atoms: C_5  and  C_6
REMARK    3  A    between atoms: C_6  and  N_7
REMARK    4  A    between atoms: C_8  and  C_10
REMARK    5  A    between atoms: C_13  and  N_14
REMARK                            x       y       z     vdW  Elec       q    Type
REMARK                         _______ _______ _______ _____ _____    ______ ____
ROOT
ATOM      1  C   UNL     1       6.544   6.056  18.126  0.00  0.00    +0.000 A 
ATOM      2  C   UNL     1       7.715   6.222  18.851  0.00  0.00    +0.000 A 
ATOM      3  C   UNL     1       8.430   7.420  18.766  0.00  0.00    +0.000 A 
ATOM      4  C   UNL     1       8.019   8.487  17.952  0.00  0.00    +0.000 A 
ATOM      5  C   UNL     1       6.843   8.307  17.210  0.00  0.00    +0.000 A 
ATOM      6  C   UNL     1       6.116   7.095  17.291  0.00  0.00    +0.000 A 
ENDROOT
BRANCH   4   7
ATOM      7  N   UNL     1       8.744   9.718  17.856  0.00  0.00    +0.000 N 
ATOM      8  C   UNL     1       9.211  10.426  18.934  0.00  0.00    +0.000 C 
ATOM      9  O   UNL     1       9.088  10.055  20.099  0.00  0.00    +0.000 OA
ATOM     10  N   UNL     1       9.829  11.629  18.728  0.00  0.00    +0.000 N 
ATOM     11  C   UNL     1      10.189  12.347  19.948  0.00  0.00    +0.000 C 
ATOM     12  C   UNL     1      10.748  13.633  19.469  0.00  0.00    +0.000 A 
ATOM     13  C   UNL     1      11.132  14.715  20.243  0.00  0.00    +0.000 A 
ATOM     14  C   UNL     1      11.700  15.807  19.599  0.00  0.00    +0.000 A 
ATOM     15  C   UNL     1      11.894  15.782  18.209  0.00  0.00    +0.000 A 
ATOM     16  C   UNL     1      11.477  14.684  17.436  0.00  0.00    +0.000 A 
ATOM     17  C   UNL     1      10.874  13.614  18.076  0.00  0.00    +0.000 A 
ATOM     18  C   UNL     1      10.263  12.350  17.524  0.00  0.00    +0.000 C 
ATOM     19  H   UNL     1       8.922  10.088  16.935  0.00  0.00    +0.000 HD
ENDBRANCH   4   7
BRANCH   1  21
ATOM     20  N   UNL     1       4.734   4.632  17.330  0.00  0.00    +0.000 N 
ATOM     21  C   UNL     1       5.779   4.776  18.216  0.00  0.00    +0.000 C 
ATOM     22  O   UNL     1       6.094   3.918  19.030  0.00  0.00    +0.000 OA
ATOM     23  H   UNL     1       4.591   5.294  16.575  0.00  0.00    +0.000 HD
BRANCH  20  24
ATOM     24  C   UNL     1       3.900   3.444  17.303  0.00  0.00    +0.000 C 
BRANCH  24  29
ATOM     25  C   UNL     1       1.842   2.655  21.628  0.00  0.00    +0.000 C 
ATOM     26  C   UNL     1       1.917   3.201  20.262  0.00  0.00    +0.000 A 
ATOM     27  C   UNL     1       1.082   3.957  19.476  0.00  0.00    +0.000 A 
ATOM     28  N   UNL     1       1.661   4.182  18.251  0.00  0.00    +0.000 NA
ATOM     29  C   UNL     1       2.826   3.561  18.335  0.00  0.00    +0.000 A 
ATOM     30  O   UNL     1       3.048   2.939  19.537  0.00  0.00    +0.000 OA
ENDBRANCH  24  29
ENDBRANCH  20  24
ENDBRANCH   1  21
TORSDOF 4
ENDMDL
MODEL 5
REMARK VINA RESULT:      -8.4      3.290      4.218
REMARK  Name = 
REMARK  5 active torsions:
REMARK  status: ('A' for Active; 'I' for Inactive)
REMARK    1  A    between atoms: C_1  and  C_2
REMARK    2  A    between atoms: C_5  and  C_6
REMARK    3  A    between atoms: C_6  and  N_7
REMARK    4  A    between atoms: C_8  and  C_10
REMARK    5  A    between atoms: C_13  and  N_14
REMARK                            x       y       z     vdW  Elec       q    Type
REMARK                         _______ _______ _______ _____ _____    ______ ____
ROOT
ATOM      1  C   UNL     1       2.242   7.458  18.993  0.00  0.00    +0.000 A 
ATOM      2  C   UNL     1       2.275   8.216  17.832  0.00  0.00    +0.000 A 
ATOM      3  C   UNL     1       1.794   9.529  17.836  0.00  0.00    +0.000 A 
ATOM      4  C   UNL     1       1.254  10.130  18.983  0.00  0.00    +0.000 A 
ATOM      5  C   UNL     1       1.210   9.354  20.150  0.00  0.00    +0.000 A 
ATOM      6  C   UNL     1       1.693   8.023  20.151  0.00  0.00    +0.000 A 
ENDROOT
BRANCH   4   7
ATOM      7  N   UNL     1       0.758  11.473  18.999  0.00  0.00    +0.000 N 
ATOM      8  C   UNL     1       1.510  12.578  18.695  0.00  0.00    +0.000 C 
ATOM      9  O   UNL     1       2.686  12.527  18.339  0.00  0.00    +0.000 OA
ATOM     10  N   UNL     1       0.952  13.821  18.814  0.00  0.00    +0.000 N 
ATOM     11  C   UNL     1       1.873  14.930  18.571  0.00  0.00    +0.000 C 
ATOM     12  C   UNL     1       1.069  16.145  18.844  0.00  0.00    +0.000 A 
ATOM     13  C   UNL     1       1.519  17.454  18.865  0.00  0.00    +0.000 A 
ATOM     14  C   UNL     1       0.585  18.460  19.075  0.00  0.00    +0.000 A 
ATOM     15  C   UNL     1      -0.773  18.138  19.233  0.00  0.00    +0.000 A 
ATOM     16  C   UNL     1      -1.208  16.800  19.232  0.00  0.00    +0.000 A 
ATOM     17  C   UNL     1      -0.268  15.798  19.063  0.00  0.00    +0.000 A 
ATOM     18  C   UNL     1      -0.410  14.296  19.089  0.00  0.00    +0.000 C 
ATOM     19  H   UNL     1      -0.209  11.614  19.251  0.00  0.00    +0.000 HD
ENDBRANCH   4   7
BRANCH   1  21
ATOM     20  N   UNL     1       4.084   5.895  19.315  0.00  0.00    +0.000 N 
ATOM     21  C   UNL     1       2.754   6.055  18.990  0.00  0.00    +0.000 C 
ATOM     22  O   UNL     1       2.010   5.120  18.722  0.00  0.00    +0.000 OA
ATOM     23  H   UNL     1       4.634   6.669  19.672  0.00  0.00    +0.000 HD
BRANCH  20  24
ATOM     24  C   UNL     1       4.720   4.591  19.350  0.00  0.00    +0.000 C 
BRANCH  24  29
ATOM     25  C   UNL     1       6.405   4.063  14.828  0.00  0.00    +0.000 C 
ATOM     26  C   UNL     1       6.517   4.281  16.281  0.00  0.00    +0.000 A 
ATOM     27  C   UNL     1       7.563   4.473  17.151  0.00  0.00    +0.000 A 
ATOM     28  N   UNL     1       7.090   4.623  18.432  0.00  0.00    +0.000 NA
ATOM     29  C   UNL     1       5.778   4.520  18.297  0.00  0.00    +0.000 A 
ATOM     30  O   UNL     1       5.359   4.310  17.008  0.00  0.00    +0.000 OA
ENDBRANCH  24  29
ENDBRANCH  20  24
ENDBRANCH   1  21
TORSDOF 4
ENDMDL
MODEL 6
REMARK VINA RESULT:      -8.3      1.055      1.512
REMARK  Name = 
REMARK  5 active torsions:
REMARK  status: ('A' for Active; 'I' for Inactive)
REMARK    1  A    between atoms: C_1  and  C_2
REMARK    2  A    between atoms: C_5  and  C_6
REMARK    3  A    between atoms: C_6  and  N_7
REMARK    4  A    between atoms: C_8  and  C_10
REMARK    5  A    between atoms: C_13  and  N_14
REMARK                            x       y       z     vdW  Elec       q    Type
REMARK                         _______ _______ _______ _____ _____    ______ ____
ROOT
ATOM      1  C   UNL     1       3.412   6.619  18.664  0.00  0.00    +0.000 A 
ATOM      2  C   UNL     1       3.187   7.650  17.762  0.00  0.00    +0.000 A 
ATOM      3  C   UNL     1       2.250   8.645  18.053  0.00  0.00    +0.000 A 
ATOM      4  C   UNL     1       1.495   8.648  19.236  0.00  0.00    +0.000 A 
ATOM      5  C   UNL     1       1.716   7.596  20.136  0.00  0.00    +0.000 A 
ATOM      6  C   UNL     1       2.662   6.584  19.846  0.00  0.00    +0.000 A 
ENDROOT
BRANCH   4   7
ATOM      7  N   UNL     1       0.532   9.662  19.544  0.00  0.00    +0.000 N 
ATOM      8  C   UNL     1       0.449  10.308  20.751  0.00  0.00    +0.000 C 
ATOM      9  O   UNL     1       1.221  10.109  21.686  0.00  0.00    +0.000 OA
ATOM     10  N   UNL     1      -0.559  11.210  20.959  0.00  0.00    +0.000 N 
ATOM     11  C   UNL     1      -0.618  11.757  22.313  0.00  0.00    +0.000 C 
ATOM     12  C   UNL     1      -1.823  12.619  22.310  0.00  0.00    +0.000 A 
ATOM     13  C   UNL     1      -2.380  13.276  23.395  0.00  0.00    +0.000 A 
ATOM     14  C   UNL     1      -3.477  14.096  23.165  0.00  0.00    +0.000 A 
ATOM     15  C   UNL     1      -3.973  14.260  21.862  0.00  0.00    +0.000 A 
ATOM     16  C   UNL     1      -3.410  13.566  20.776  0.00  0.00    +0.000 A 
ATOM     17  C   UNL     1      -2.342  12.718  21.015  0.00  0.00    +0.000 A 
ATOM     18  C   UNL     1      -1.585  11.798  20.089  0.00  0.00    +0.000 C 
ATOM     19  H   UNL     1      -0.128   9.917  18.825  0.00  0.00    +0.000 HD
ENDBRANCH   4   7
BRANCH   1  21
ATOM     20  N   UNL     1       5.602   5.982  17.808  0.00  0.00    +0.000 N 
ATOM     21  C   UNL     1       4.412   5.554  18.355  0.00  0.00    +0.000 C 
ATOM     22  O   UNL     1       4.166   4.379  18.596  0.00  0.00    +0.000 OA
ATOM     23  H   UNL     1       5.832   6.968  17.757  0.00  0.00    +0.000 HD
BRANCH  20  24
ATOM     24  C   UNL     1       6.666   5.060  17.453  0.00  0.00    +0.000 C 
BRANCH  24  29
ATOM     25  C   UNL     1       7.972   5.380  12.789  0.00  0.00    +0.000 C 
ATOM     26  C   UNL     1       7.172   4.887  13.924  0.00  0.00    +0.000 A 
ATOM     27  C   UNL     1       6.118   4.015  14.057  0.00  0.00    +0.000 A 
ATOM     28  N   UNL     1       5.746   3.923  15.376  0.00  0.00    +0.000 NA
ATOM     29  C   UNL     1       6.584   4.735  15.998  0.00  0.00    +0.000 A 
ATOM     30  O   UNL     1       7.483   5.358  15.170  0.00  0.00    +0.000 OA
ENDBRANCH  24  29
ENDBRANCH  20  24
ENDBRANCH   1  21
TORSDOF 4
ENDMDL
MODEL 7
REMARK VINA RESULT:      -8.3      1.821      3.334
REMARK  Name = 
REMARK  5 active torsions:
REMARK  status: ('A' for Active; 'I' for Inactive)
REMARK    1  A    between atoms: C_1  and  C_2
REMARK    2  A    between atoms: C_5  and  C_6
REMARK    3  A    between atoms: C_6  and  N_7
REMARK    4  A    between atoms: C_8  and  C_10
REMARK    5  A    between atoms: C_13  and  N_14
REMARK                            x       y       z     vdW  Elec       q    Type
REMARK                         _______ _______ _______ _____ _____    ______ ____
ROOT
ATOM      1  C   UNL     1       5.604   5.364  16.578  0.00  0.00    +0.000 A 
ATOM      2  C   UNL     1       5.229   6.687  16.388  0.00  0.00    +0.000 A 
ATOM      3  C   UNL     1       4.342   7.301  17.276  0.00  0.00    +0.000 A 
ATOM      4  C   UNL     1       3.784   6.625  18.372  0.00  0.00    +0.000 A 
ATOM      5  C   UNL     1       4.154   5.285  18.551  0.00  0.00    +0.000 A 
ATOM      6  C   UNL     1       5.052   4.657  17.653  0.00  0.00    +0.000 A 
ENDROOT
BRANCH   4   7
ATOM      7  N   UNL     1       2.873   7.243  19.288  0.00  0.00    +0.000 N 
ATOM      8  C   UNL     1       2.037   8.280  18.963  0.00  0.00    +0.000 C 
ATOM      9  O   UNL     1       1.956   8.765  17.836  0.00  0.00    +0.000 OA
ATOM     10  N   UNL     1       1.259   8.843  19.937  0.00  0.00    +0.000 N 
ATOM     11  C   UNL     1       0.489  10.008  19.507  0.00  0.00    +0.000 C 
ATOM     12  C   UNL     1      -0.185  10.481  20.739  0.00  0.00    +0.000 A 
ATOM     13  C   UNL     1      -0.945  11.629  20.885  0.00  0.00    +0.000 A 
ATOM     14  C   UNL     1      -1.552  11.856  22.113  0.00  0.00    +0.000 A 
ATOM     15  C   UNL     1      -1.407  10.924  23.153  0.00  0.00    +0.000 A 
ATOM     16  C   UNL     1      -0.612   9.775  22.995  0.00  0.00    +0.000 A 
ATOM     17  C   UNL     1       0.024   9.572  21.782  0.00  0.00    +0.000 A 
ATOM     18  C   UNL     1       0.984   8.496  21.338  0.00  0.00    +0.000 C 
ATOM     19  H   UNL     1       2.846   6.892  20.232  0.00  0.00    +0.000 HD
ENDBRANCH   4   7
BRANCH   1  21
ATOM     20  N   UNL     1       6.273   4.861  14.290  0.00  0.00    +0.000 N 
ATOM     21  C   UNL     1       6.552   4.707  15.630  0.00  0.00    +0.000 C 
ATOM     22  O   UNL     1       7.520   4.085  16.048  0.00  0.00    +0.000 OA
ATOM     23  H   UNL     1       5.551   5.501  13.974  0.00  0.00    +0.000 HD
BRANCH  20  24
ATOM     24  C   UNL     1       7.104   4.276  13.254  0.00  0.00    +0.000 C 
BRANCH  24  29
ATOM     25  C   UNL     1       3.171   3.125  10.651  0.00  0.00    +0.000 C 
ATOM     26  C   UNL     1       4.513   2.902  11.218  0.00  0.00    +0.000 A 
ATOM     27  C   UNL     1       5.428   1.878  11.164  0.00  0.00    +0.000 A 
ATOM     28  N   UNL     1       6.541   2.201  11.899  0.00  0.00    +0.000 NA
ATOM     29  C   UNL     1       6.269   3.406  12.372  0.00  0.00    +0.000 A 
ATOM     30  O   UNL     1       5.044   3.895  11.995  0.00  0.00    +0.000 OA
ENDBRANCH  24  29
ENDBRANCH  20  24
ENDBRANCH   1  21
TORSDOF 4
ENDMDL
MODEL 8
REMARK VINA RESULT:      -8.3      0.946      1.724
REMARK  Name = 
REMARK  5 active torsions:
REMARK  status: ('A' for Active; 'I' for Inactive)
REMARK    1  A    between atoms: C_1  and  C_2
REMARK    2  A    between atoms: C_5  and  C_6
REMARK    3  A    between atoms: C_6  and  N_7
REMARK    4  A    between atoms: C_8  and  C_10
REMARK    5  A    between atoms: C_13  and  N_14
REMARK                            x       y       z     vdW  Elec       q    Type
REMARK                         _______ _______ _______ _____ _____    ______ ____
ROOT
ATOM      1  C   UNL     1       3.815   5.791  18.337  0.00  0.00    +0.000 A 
ATOM      2  C   UNL     1       3.568   7.023  17.749  0.00  0.00    +0.000 A 
ATOM      3  C   UNL     1       2.727   7.945  18.378  0.00  0.00    +0.000 A 
ATOM      4  C   UNL     1       2.093   7.675  19.601  0.00  0.00    +0.000 A 
ATOM      5  C   UNL     1       2.335   6.424  20.183  0.00  0.00    +0.000 A 
ATOM      6  C   UNL     1       3.184   5.484  19.549  0.00  0.00    +0.000 A 
ENDROOT
BRANCH   4   7
ATOM      7  N   UNL     1       1.228   8.613  20.253  0.00  0.00    +0.000 N 
ATOM      8  C   UNL     1       0.564   9.627  19.613  0.00  0.00    +0.000 C 
ATOM      9  O   UNL     1       0.613   9.815  18.399  0.00  0.00    +0.000 OA
ATOM     10  N   UNL     1      -0.179  10.509  20.348  0.00  0.00    +0.000 N 
ATOM     11  C   UNL     1      -0.754  11.611  19.580  0.00  0.00    +0.000 C 
ATOM     12  C   UNL     1      -1.422  12.460  20.594  0.00  0.00    +0.000 A 
ATOM     13  C   UNL     1      -2.021  13.691  20.387  0.00  0.00    +0.000 A 
ATOM     14  C   UNL     1      -2.656  14.295  21.464  0.00  0.00    +0.000 A 
ATOM     15  C   UNL     1      -2.699  13.648  22.709  0.00  0.00    +0.000 A 
ATOM     16  C   UNL     1      -2.065  12.409  22.908  0.00  0.00    +0.000 A 
ATOM     17  C   UNL     1      -1.399  11.828  21.842  0.00  0.00    +0.000 A 
ATOM     18  C   UNL     1      -0.575  10.566  21.760  0.00  0.00    +0.000 C 
ATOM     19  H   UNL     1       1.101   8.519  21.249  0.00  0.00    +0.000 HD
ENDBRANCH   4   7
BRANCH   1  21
ATOM     20  N   UNL     1       6.034   5.176  17.538  0.00  0.00    +0.000 N 
ATOM     21  C   UNL     1       4.713   4.804  17.667  0.00  0.00    +0.000 C 
ATOM     22  O   UNL     1       4.276   3.729  17.276  0.00  0.00    +0.000 OA
ATOM     23  H   UNL     1       6.393   6.005  18.000  0.00  0.00    +0.000 HD
BRANCH  20  24
ATOM     24  C   UNL     1       7.021   4.320  16.905  0.00  0.00    +0.000 C 
BRANCH  24  29
ATOM     25  C   UNL     1       5.693   3.269  12.356  0.00  0.00    +0.000 C 
ATOM     26  C   UNL     1       6.386   4.039  13.403  0.00  0.00    +0.000 A 
ATOM     27  C   UNL     1       7.208   5.140  13.409  0.00  0.00    +0.000 A 
ATOM     28  N   UNL     1       7.586   5.440  14.695  0.00  0.00    +0.000 NA
ATOM     29  C   UNL     1       6.981   4.518  15.425  0.00  0.00    +0.000 A 
ATOM     30  O   UNL     1       6.231   3.628  14.699  0.00  0.00    +0.000 OA
ENDBRANCH  24  29
ENDBRANCH  20  24
ENDBRANCH   1  21
TORSDOF 4
ENDMDL
MODEL 9
REMARK VINA RESULT:      -8.0      0.938      1.338
REMARK  Name = 
REMARK  5 active torsions:
REMARK  status: ('A' for Active; 'I' for Inactive)
REMARK    1  A    between atoms: C_1  and  C_2
REMARK    2  A    between atoms: C_5  and  C_6
REMARK    3  A    between atoms: C_6  and  N_7
REMARK    4  A    between atoms: C_8  and  C_10
REMARK    5  A    between atoms: C_13  and  N_14
REMARK                            x       y       z     vdW  Elec       q    Type
REMARK                         _______ _______ _______ _____ _____    ______ ____
ROOT
ATOM      1  C   UNL     1       3.992   5.860  17.479  0.00  0.00    +0.000 A 
ATOM      2  C   UNL     1       4.204   7.186  17.131  0.00  0.00    +0.000 A 
ATOM      3  C   UNL     1       3.350   8.184  17.610  0.00  0.00    +0.000 A 
ATOM      4  C   UNL     1       2.252   7.902  18.438  0.00  0.00    +0.000 A 
ATOM      5  C   UNL     1       2.034   6.559  18.774  0.00  0.00    +0.000 A 
ATOM      6  C   UNL     1       2.894   5.544  18.289  0.00  0.00    +0.000 A 
ENDROOT
BRANCH   4   7
ATOM      7  N   UNL     1       1.370   8.915  18.934  0.00  0.00    +0.000 N 
ATOM      8  C   UNL     1       1.099   9.121  20.262  0.00  0.00    +0.000 C 
ATOM      9  O   UNL     1       1.616   8.477  21.172  0.00  0.00    +0.000 OA
ATOM     10  N   UNL     1       0.183  10.072  20.619  0.00  0.00    +0.000 N 
ATOM     11  C   UNL     1      -0.109  10.133  22.049  0.00  0.00    +0.000 C 
ATOM     12  C   UNL     1      -1.175  11.156  22.166  0.00  0.00    +0.000 A 
ATOM     13  C   UNL     1      -1.876  11.503  23.309  0.00  0.00    +0.000 A 
ATOM     14  C   UNL     1      -2.792  12.543  23.220  0.00  0.00    +0.000 A 
ATOM     15  C   UNL     1      -2.966  13.225  22.006  0.00  0.00    +0.000 A 
ATOM     16  C   UNL     1      -2.263  12.845  20.849  0.00  0.00    +0.000 A 
ATOM     17  C   UNL     1      -1.380  11.781  20.931  0.00  0.00    +0.000 A 
ATOM     18  C   UNL     1      -0.550  11.101  19.870  0.00  0.00    +0.000 C 
ATOM     19  H   UNL     1       0.919   9.516  18.261  0.00  0.00    +0.000 HD
ENDBRANCH   4   7
BRANCH   1  21
ATOM     20  N   UNL     1       5.973   5.221  16.213  0.00  0.00    +0.000 N 
ATOM     21  C   UNL     1       4.903   4.793  16.967  0.00  0.00    +0.000 C 
ATOM     22  O   UNL     1       4.693   3.616  17.230  0.00  0.00    +0.000 OA
ATOM     23  H   UNL     1       6.201   6.207  16.137  0.00  0.00    +0.000 HD
BRANCH  20  24
ATOM     24  C   UNL     1       6.940   4.298  15.647  0.00  0.00    +0.000 C 
BRANCH  24  29
ATOM     25  C   UNL     1       4.581   3.091  11.580  0.00  0.00    +0.000 C 
ATOM     26  C   UNL     1       5.688   3.666  12.364  0.00  0.00    +0.000 A 
ATOM     27  C   UNL     1       6.877   4.281  12.053  0.00  0.00    +0.000 A 
ATOM     28  N   UNL     1       7.547   4.623  13.201  0.00  0.00    +0.000 NA
ATOM     29  C   UNL     1       6.745   4.210  14.169  0.00  0.00    +0.000 A 
ATOM     30  O   UNL     1       5.591   3.615  13.728  0.00  0.00    +0.000 OA
ENDBRANCH  24  29
ENDBRANCH  20  24
ENDBRANCH   1  21
TORSDOF 4
ENDMDL
