MODEL 1
REMARK VINA RESULT:      -7.7      0.000      0.000
REMARK  Name = 
REMARK  17 active torsions:
REMARK  status: ('A' for Active; 'I' for Inactive)
REMARK    1  A    between atoms: C_1  and  O_2
REMARK    2  A    between atoms: O_2  and  C_3
REMARK    3  A    between atoms: C_6  and  C_7
REMARK    4  A    between atoms: C_8  and  C_9
REMARK    5  A    between atoms: C_11  and  O_12
REMARK    6  A    between atoms: O_12  and  C_13
REMARK    7  A    between atoms: C_14  and  O_15
REMARK    8  A    between atoms: O_15  and  C_16
REMARK    9  A    between atoms: C_17  and  O_18
REMARK   10  A    between atoms: O_18  and  C_19
REMARK   11  A    between atoms: C_23  and  O_24
REMARK   12  A    between atoms: O_24  and  C_25
REMARK   13  A    between atoms: C_25  and  C_26
REMARK   14  A    between atoms: C_30  and  O_31
REMARK   15  A    between atoms: O_31  and  C_32
REMARK   16  A    between atoms: C_32  and  C_33
REMARK   17  A    between atoms: C_32  and  C_34
REMARK                            x       y       z     vdW  Elec       q    Type
REMARK                         _______ _______ _______ _____ _____    ______ ____
ROOT
ATOM      1  C   UNL     1       2.892   4.995  19.946  0.00  0.00    +0.000 C 
ATOM      2  C   UNL     1       3.917   4.262  19.493  0.00  0.00    +0.000 C 
ATOM      3  C   UNL     1       3.901   3.003  20.285  0.00  0.00    +0.000 C 
ATOM      4  O   UNL     1       4.712   2.102  20.143  0.00  0.00    +0.000 OA
ATOM      5  C   UNL     1       2.718   2.972  21.223  0.00  0.00    +0.000 C 
ATOM      6  C   UNL     1       2.167   4.395  21.113  0.00  0.00    +0.000 C 
ENDROOT
BRANCH   1  10
ATOM      7  C   UNL     1       1.732   8.856  18.480  0.00  0.00    +0.000 A 
ATOM      8  C   UNL     1       2.244   7.868  17.622  0.00  0.00    +0.000 A 
ATOM      9  C   UNL     1       2.604   6.607  18.103  0.00  0.00    +0.000 A 
ATOM     10  C   UNL     1       2.505   6.324  19.462  0.00  0.00    +0.000 A 
ATOM     11  C   UNL     1       2.041   7.320  20.331  0.00  0.00    +0.000 A 
ATOM     12  C   UNL     1       1.675   8.596  19.860  0.00  0.00    +0.000 A 
BRANCH   7  14
ATOM     13  C   UNL     1       2.153  11.168  18.098  0.00  0.00    +0.000 C 
ATOM     14  O   UNL     1       1.267  10.054  18.006  0.00  0.00    +0.000 OA
ENDBRANCH   7  14
BRANCH  12  15
ATOM     15  O   UNL     1       1.216   9.425  20.857  0.00  0.00    +0.000 OA
BRANCH  15  16
ATOM     16  C   UNL     1      -0.184   9.477  21.160  0.00  0.00    +0.000 C 
ATOM     17  C   UNL     1      -0.370   9.237  22.657  0.00  0.00    +0.000 C 
ATOM     18  C   UNL     1      -0.696  10.874  20.806  0.00  0.00    +0.000 C 
ENDBRANCH  15  16
ENDBRANCH  12  15
ENDBRANCH   1  10
BRANCH   2  19
ATOM     19  C   UNL     1       4.887   4.560  18.461  0.00  0.00    +0.000 A 
ATOM     20  C   UNL     1       5.862   5.530  18.679  0.00  0.00    +0.000 A 
ATOM     21  C   UNL     1       6.865   5.751  17.731  0.00  0.00    +0.000 A 
ATOM     22  C   UNL     1       6.863   5.019  16.521  0.00  0.00    +0.000 A 
ATOM     23  C   UNL     1       5.841   4.075  16.279  0.00  0.00    +0.000 A 
ATOM     24  C   UNL     1       4.871   3.851  17.263  0.00  0.00    +0.000 A 
BRANCH  21  25
ATOM     25  O   UNL     1       7.875   6.667  17.928  0.00  0.00    +0.000 OA
ATOM     26  C   UNL     1       7.562   8.015  17.586  0.00  0.00    +0.000 C 
ENDBRANCH  21  25
BRANCH  22  27
ATOM     27  O   UNL     1       7.865   5.346  15.632  0.00  0.00    +0.000 OA
ATOM     28  C   UNL     1       7.458   5.761  14.333  0.00  0.00    +0.000 C 
ENDBRANCH  22  27
BRANCH  23  29
ATOM     29  O   UNL     1       5.822   3.418  15.073  0.00  0.00    +0.000 OA
ATOM     30  C   UNL     1       5.073   4.000  14.014  0.00  0.00    +0.000 C 
ENDBRANCH  23  29
ENDBRANCH   2  19
BRANCH   5  31
ATOM     31  O   UNL     1       1.768   2.037  20.699  0.00  0.00    +0.000 OA
BRANCH  31  32
ATOM     32  C   UNL     1       1.605   2.054  19.351  0.00  0.00    +0.000 C 
ATOM     33  C   UNL     1       0.378   2.829  18.976  0.00  0.00    +0.000 C 
ATOM     34  O   UNL     1       2.342   1.513  18.539  0.00  0.00    +0.000 OA
ENDBRANCH  31  32
ENDBRANCH   5  31
TORSDOF 10
ENDMDL
MODEL 2
REMARK VINA RESULT:      -7.6      0.738      2.204
REMARK  Name = 
REMARK  17 active torsions:
REMARK  status: ('A' for Active; 'I' for Inactive)
REMARK    1  A    between atoms: C_1  and  O_2
REMARK    2  A    between atoms: O_2  and  C_3
REMARK    3  A    between atoms: C_6  and  C_7
REMARK    4  A    between atoms: C_8  and  C_9
REMARK    5  A    between atoms: C_11  and  O_12
REMARK    6  A    between atoms: O_12  and  C_13
REMARK    7  A    between atoms: C_14  and  O_15
REMARK    8  A    between atoms: O_15  and  C_16
REMARK    9  A    between atoms: C_17  and  O_18
REMARK   10  A    between atoms: O_18  and  C_19
REMARK   11  A    between atoms: C_23  and  O_24
REMARK   12  A    between atoms: O_24  and  C_25
REMARK   13  A    between atoms: C_25  and  C_26
REMARK   14  A    between atoms: C_30  and  O_31
REMARK   15  A    between atoms: O_31  and  C_32
REMARK   16  A    between atoms: C_32  and  C_33
REMARK   17  A    between atoms: C_32  and  C_34
REMARK                            x       y       z     vdW  Elec       q    Type
REMARK                         _______ _______ _______ _____ _____    ______ ____
ROOT
ATOM      1  C   UNL     1       2.830   5.229  19.977  0.00  0.00    +0.000 C 
ATOM      2  C   UNL     1       3.867   4.551  19.465  0.00  0.00    +0.000 C 
ATOM      3  C   UNL     1       3.901   3.250  20.185  0.00  0.00    +0.000 C 
ATOM      4  O   UNL     1       4.734   2.382  19.978  0.00  0.00    +0.000 OA
ATOM      5  C   UNL     1       2.738   3.134  21.141  0.00  0.00    +0.000 C 
ATOM      6  C   UNL     1       2.146   4.544  21.122  0.00  0.00    +0.000 C 
ENDROOT
BRANCH   1  10
ATOM      7  C   UNL     1       1.534   9.130  18.752  0.00  0.00    +0.000 A 
ATOM      8  C   UNL     1       2.022   8.194  17.826  0.00  0.00    +0.000 A 
ATOM      9  C   UNL     1       2.428   6.920  18.228  0.00  0.00    +0.000 A 
ATOM     10  C   UNL     1       2.397   6.571  19.575  0.00  0.00    +0.000 A 
ATOM     11  C   UNL     1       1.957   7.515  20.511  0.00  0.00    +0.000 A 
ATOM     12  C   UNL     1       1.547   8.805  20.119  0.00  0.00    +0.000 A 
BRANCH   7  14
ATOM     13  C   UNL     1       1.905  11.460  18.430  0.00  0.00    +0.000 C 
ATOM     14  O   UNL     1       1.026  10.339  18.358  0.00  0.00    +0.000 OA
ENDBRANCH   7  14
BRANCH  12  15
ATOM     15  O   UNL     1       1.120   9.576  21.175  0.00  0.00    +0.000 OA
BRANCH  15  16
ATOM     16  C   UNL     1      -0.273   9.632  21.506  0.00  0.00    +0.000 C 
ATOM     17  C   UNL     1      -0.434   9.331  22.995  0.00  0.00    +0.000 C 
ATOM     18  C   UNL     1      -0.773  11.050  21.222  0.00  0.00    +0.000 C 
ENDBRANCH  15  16
ENDBRANCH  12  15
ENDBRANCH   1  10
BRANCH   2  19
ATOM     19  C   UNL     1       4.807   4.934  18.433  0.00  0.00    +0.000 A 
ATOM     20  C   UNL     1       4.541   4.632  17.100  0.00  0.00    +0.000 A 
ATOM     21  C   UNL     1       5.389   5.089  16.088  0.00  0.00    +0.000 A 
ATOM     22  C   UNL     1       6.552   5.822  16.422  0.00  0.00    +0.000 A 
ATOM     23  C   UNL     1       6.848   6.079  17.778  0.00  0.00    +0.000 A 
ATOM     24  C   UNL     1       5.960   5.639  18.767  0.00  0.00    +0.000 A 
BRANCH  21  25
ATOM     25  O   UNL     1       5.138   4.854  14.754  0.00  0.00    +0.000 OA
ATOM     26  C   UNL     1       5.390   3.524  14.303  0.00  0.00    +0.000 C 
ENDBRANCH  21  25
BRANCH  22  27
ATOM     27  O   UNL     1       7.347   6.184  15.355  0.00  0.00    +0.000 OA
ATOM     28  C   UNL     1       8.050   5.136  14.696  0.00  0.00    +0.000 C 
ENDBRANCH  22  27
BRANCH  23  29
ATOM     29  O   UNL     1       8.012   6.740  18.085  0.00  0.00    +0.000 OA
ATOM     30  C   UNL     1       8.027   8.155  17.942  0.00  0.00    +0.000 C 
ENDBRANCH  23  29
ENDBRANCH   2  19
BRANCH   5  31
ATOM     31  O   UNL     1       1.805   2.203  20.583  0.00  0.00    +0.000 OA
BRANCH  31  32
ATOM     32  C   UNL     1       1.088   2.649  19.520  0.00  0.00    +0.000 C 
ATOM     33  C   UNL     1       1.645   2.103  18.239  0.00  0.00    +0.000 C 
ATOM     34  O   UNL     1       0.122   3.397  19.576  0.00  0.00    +0.000 OA
ENDBRANCH  31  32
ENDBRANCH   5  31
TORSDOF 10
ENDMDL
MODEL 3
REMARK VINA RESULT:      -7.5      1.272      2.380
REMARK  Name = 
REMARK  17 active torsions:
REMARK  status: ('A' for Active; 'I' for Inactive)
REMARK    1  A    between atoms: C_1  and  O_2
REMARK    2  A    between atoms: O_2  and  C_3
REMARK    3  A    between atoms: C_6  and  C_7
REMARK    4  A    between atoms: C_8  and  C_9
REMARK    5  A    between atoms: C_11  and  O_12
REMARK    6  A    between atoms: O_12  and  C_13
REMARK    7  A    between atoms: C_14  and  O_15
REMARK    8  A    between atoms: O_15  and  C_16
REMARK    9  A    between atoms: C_17  and  O_18
REMARK   10  A    between atoms: O_18  and  C_19
REMARK   11  A    between atoms: C_23  and  O_24
REMARK   12  A    between atoms: O_24  and  C_25
REMARK   13  A    between atoms: C_25  and  C_26
REMARK   14  A    between atoms: C_30  and  O_31
REMARK   15  A    between atoms: O_31  and  C_32
REMARK   16  A    between atoms: C_32  and  C_33
REMARK   17  A    between atoms: C_32  and  C_34
REMARK                            x       y       z     vdW  Elec       q    Type
REMARK                         _______ _______ _______ _____ _____    ______ ____
ROOT
ATOM      1  C   UNL     1       2.394   5.285  19.907  0.00  0.00    +0.000 C 
ATOM      2  C   UNL     1       3.538   4.677  19.565  0.00  0.00    +0.000 C 
ATOM      3  C   UNL     1       3.427   3.282  20.070  0.00  0.00    +0.000 C 
ATOM      4  O   UNL     1       4.304   2.443  19.944  0.00  0.00    +0.000 OA
ATOM      5  C   UNL     1       2.071   3.041  20.689  0.00  0.00    +0.000 C 
ATOM      6  C   UNL     1       1.470   4.447  20.738  0.00  0.00    +0.000 C 
ENDROOT
BRANCH   1  10
ATOM      7  C   UNL     1       1.326   9.341  19.008  0.00  0.00    +0.000 A 
ATOM      8  C   UNL     1       1.661   8.428  17.994  0.00  0.00    +0.000 A 
ATOM      9  C   UNL     1       1.993   7.104  18.292  0.00  0.00    +0.000 A 
ATOM     10  C   UNL     1       2.041   6.678  19.616  0.00  0.00    +0.000 A 
ATOM     11  C   UNL     1       1.755   7.595  20.635  0.00  0.00    +0.000 A 
ATOM     12  C   UNL     1       1.422   8.934  20.350  0.00  0.00    +0.000 A 
BRANCH   7  14
ATOM     13  C   UNL     1       1.888  11.586  18.449  0.00  0.00    +0.000 C 
ATOM     14  O   UNL     1       0.888  10.607  18.724  0.00  0.00    +0.000 OA
ENDBRANCH   7  14
BRANCH  12  15
ATOM     15  O   UNL     1       1.145   9.670  21.477  0.00  0.00    +0.000 OA
BRANCH  15  16
ATOM     16  C   UNL     1      -0.215   9.928  21.851  0.00  0.00    +0.000 C 
ATOM     17  C   UNL     1      -0.416   9.487  23.300  0.00  0.00    +0.000 C 
ATOM     18  C   UNL     1      -0.460  11.434  21.744  0.00  0.00    +0.000 C 
ENDBRANCH  15  16
ENDBRANCH  12  15
ENDBRANCH   1  10
BRANCH   2  19
ATOM     19  C   UNL     1       4.690   5.196  18.859  0.00  0.00    +0.000 A 
ATOM     20  C   UNL     1       4.594   5.516  17.507  0.00  0.00    +0.000 A 
ATOM     21  C   UNL     1       5.668   6.115  16.843  0.00  0.00    +0.000 A 
ATOM     22  C   UNL     1       6.878   6.354  17.536  0.00  0.00    +0.000 A 
ATOM     23  C   UNL     1       6.991   5.978  18.892  0.00  0.00    +0.000 A 
ATOM     24  C   UNL     1       5.885   5.413  19.538  0.00  0.00    +0.000 A 
BRANCH  21  25
ATOM     25  O   UNL     1       5.599   6.491  15.520  0.00  0.00    +0.000 OA
ATOM     26  C   UNL     1       5.630   5.426  14.572  0.00  0.00    +0.000 C 
ENDBRANCH  21  25
BRANCH  22  27
ATOM     27  O   UNL     1       7.892   6.903  16.779  0.00  0.00    +0.000 OA
ATOM     28  C   UNL     1       8.250   8.250  17.071  0.00  0.00    +0.000 C 
ENDBRANCH  22  27
BRANCH  23  29
ATOM     29  O   UNL     1       8.193   6.163  19.530  0.00  0.00    +0.000 OA
ATOM     30  C   UNL     1       8.573   5.211  20.516  0.00  0.00    +0.000 C 
ENDBRANCH  23  29
ENDBRANCH   2  19
BRANCH   5  31
ATOM     31  O   UNL     1       1.320   2.217  19.791  0.00  0.00    +0.000 OA
BRANCH  31  32
ATOM     32  C   UNL     1       1.283   2.633  18.499  0.00  0.00    +0.000 C 
ATOM     33  C   UNL     1       2.305   1.906  17.679  0.00  0.00    +0.000 C 
ATOM     34  O   UNL     1       0.530   3.485  18.048  0.00  0.00    +0.000 OA
ENDBRANCH  31  32
ENDBRANCH   5  31
TORSDOF 10
ENDMDL
MODEL 4
REMARK VINA RESULT:      -7.4      0.952      1.204
REMARK  Name = 
REMARK  17 active torsions:
REMARK  status: ('A' for Active; 'I' for Inactive)
REMARK    1  A    between atoms: C_1  and  O_2
REMARK    2  A    between atoms: O_2  and  C_3
REMARK    3  A    between atoms: C_6  and  C_7
REMARK    4  A    between atoms: C_8  and  C_9
REMARK    5  A    between atoms: C_11  and  O_12
REMARK    6  A    between atoms: O_12  and  C_13
REMARK    7  A    between atoms: C_14  and  O_15
REMARK    8  A    between atoms: O_15  and  C_16
REMARK    9  A    between atoms: C_17  and  O_18
REMARK   10  A    between atoms: O_18  and  C_19
REMARK   11  A    between atoms: C_23  and  O_24
REMARK   12  A    between atoms: O_24  and  C_25
REMARK   13  A    between atoms: C_25  and  C_26
REMARK   14  A    between atoms: C_30  and  O_31
REMARK   15  A    between atoms: O_31  and  C_32
REMARK   16  A    between atoms: C_32  and  C_33
REMARK   17  A    between atoms: C_32  and  C_34
REMARK                            x       y       z     vdW  Elec       q    Type
REMARK                         _______ _______ _______ _____ _____    ______ ____
ROOT
ATOM      1  C   UNL     1       2.835   5.194  20.028  0.00  0.00    +0.000 C 
ATOM      2  C   UNL     1       3.893   4.575  19.487  0.00  0.00    +0.000 C 
ATOM      3  C   UNL     1       3.986   3.255  20.165  0.00  0.00    +0.000 C 
ATOM      4  O   UNL     1       4.851   2.428  19.925  0.00  0.00    +0.000 OA
ATOM      5  C   UNL     1       2.837   3.062  21.127  0.00  0.00    +0.000 C 
ATOM      6  C   UNL     1       2.189   4.447  21.156  0.00  0.00    +0.000 C 
ENDROOT
BRANCH   1  10
ATOM      7  C   UNL     1       1.394   9.081  18.927  0.00  0.00    +0.000 A 
ATOM      8  C   UNL     1       2.322   8.389  18.132  0.00  0.00    +0.000 A 
ATOM      9  C   UNL     1       2.775   7.118  18.487  0.00  0.00    +0.000 A 
ATOM     10  C   UNL     1       2.344   6.529  19.672  0.00  0.00    +0.000 A 
ATOM     11  C   UNL     1       1.455   7.232  20.495  0.00  0.00    +0.000 A 
ATOM     12  C   UNL     1       0.992   8.517  20.150  0.00  0.00    +0.000 A 
BRANCH   7  14
ATOM     13  C   UNL     1      -0.490  10.249  18.057  0.00  0.00    +0.000 C 
ATOM     14  O   UNL     1       0.853  10.277  18.534  0.00  0.00    +0.000 OA
ENDBRANCH   7  14
BRANCH  12  15
ATOM     15  O   UNL     1       0.104   9.031  21.066  0.00  0.00    +0.000 OA
BRANCH  15  16
ATOM     16  C   UNL     1       0.549   9.985  22.040  0.00  0.00    +0.000 C 
ATOM     17  C   UNL     1      -0.077  11.341  21.718  0.00  0.00    +0.000 C 
ATOM     18  C   UNL     1       0.067   9.521  23.415  0.00  0.00    +0.000 C 
ENDBRANCH  15  16
ENDBRANCH  12  15
ENDBRANCH   1  10
BRANCH   2  19
ATOM     19  C   UNL     1       4.807   5.028  18.460  0.00  0.00    +0.000 A 
ATOM     20  C   UNL     1       5.970   5.708  18.812  0.00  0.00    +0.000 A 
ATOM     21  C   UNL     1       6.909   6.056  17.837  0.00  0.00    +0.000 A 
ATOM     22  C   UNL     1       6.656   5.759  16.478  0.00  0.00    +0.000 A 
ATOM     23  C   UNL     1       5.450   5.118  16.118  0.00  0.00    +0.000 A 
ATOM     24  C   UNL     1       4.546   4.750  17.122  0.00  0.00    +0.000 A 
BRANCH  21  25
ATOM     25  O   UNL     1       8.094   6.687  18.148  0.00  0.00    +0.000 OA
ATOM     26  C   UNL     1       8.072   8.111  18.078  0.00  0.00    +0.000 C 
ENDBRANCH  21  25
BRANCH  22  27
ATOM     27  O   UNL     1       7.620   6.187  15.591  0.00  0.00    +0.000 OA
ATOM     28  C   UNL     1       7.960   5.294  14.536  0.00  0.00    +0.000 C 
ENDBRANCH  22  27
BRANCH  23  29
ATOM     29  O   UNL     1       5.196   4.891  14.788  0.00  0.00    +0.000 OA
ATOM     30  C   UNL     1       5.344   3.563  14.302  0.00  0.00    +0.000 C 
ENDBRANCH  23  29
ENDBRANCH   2  19
BRANCH   5  31
ATOM     31  O   UNL     1       1.937   2.112  20.548  0.00  0.00    +0.000 OA
BRANCH  31  32
ATOM     32  C   UNL     1       1.166   2.572  19.530  0.00  0.00    +0.000 C 
ATOM     33  C   UNL     1       1.722   2.140  18.206  0.00  0.00    +0.000 C 
ATOM     34  O   UNL     1       0.156   3.251  19.654  0.00  0.00    +0.000 OA
ENDBRANCH  31  32
ENDBRANCH   5  31
TORSDOF 10
ENDMDL
MODEL 5
REMARK VINA RESULT:      -7.4      5.213     10.561
REMARK  Name = 
REMARK  17 active torsions:
REMARK  status: ('A' for Active; 'I' for Inactive)
REMARK    1  A    between atoms: C_1  and  O_2
REMARK    2  A    between atoms: O_2  and  C_3
REMARK    3  A    between atoms: C_6  and  C_7
REMARK    4  A    between atoms: C_8  and  C_9
REMARK    5  A    between atoms: C_11  and  O_12
REMARK    6  A    between atoms: O_12  and  C_13
REMARK    7  A    between atoms: C_14  and  O_15
REMARK    8  A    between atoms: O_15  and  C_16
REMARK    9  A    between atoms: C_17  and  O_18
REMARK   10  A    between atoms: O_18  and  C_19
REMARK   11  A    between atoms: C_23  and  O_24
REMARK   12  A    between atoms: O_24  and  C_25
REMARK   13  A    between atoms: C_25  and  C_26
REMARK   14  A    between atoms: C_30  and  O_31
REMARK   15  A    between atoms: O_31  and  C_32
REMARK   16  A    between atoms: C_32  and  C_33
REMARK   17  A    between atoms: C_32  and  C_34
REMARK                            x       y       z     vdW  Elec       q    Type
REMARK                         _______ _______ _______ _____ _____    ______ ____
ROOT
ATOM      1  C   UNL     1      -1.473  11.474  19.458  0.00  0.00    +0.000 C 
ATOM      2  C   UNL     1      -0.643  12.414  19.933  0.00  0.00    +0.000 C 
ATOM      3  C   UNL     1       0.563  11.690  20.414  0.00  0.00    +0.000 C 
ATOM      4  O   UNL     1       1.526  12.240  20.924  0.00  0.00    +0.000 OA
ATOM      5  C   UNL     1       0.456  10.212  20.123  0.00  0.00    +0.000 C 
ATOM      6  C   UNL     1      -0.993  10.068  19.655  0.00  0.00    +0.000 C 
ENDROOT
BRANCH   1  10
ATOM      7  C   UNL     1      -5.335  12.115  17.708  0.00  0.00    +0.000 A 
ATOM      8  C   UNL     1      -4.253  11.643  16.946  0.00  0.00    +0.000 A 
ATOM      9  C   UNL     1      -3.002  11.422  17.526  0.00  0.00    +0.000 A 
ATOM     10  C   UNL     1      -2.795  11.711  18.870  0.00  0.00    +0.000 A 
ATOM     11  C   UNL     1      -3.856  12.227  19.626  0.00  0.00    +0.000 A 
ATOM     12  C   UNL     1      -5.123  12.458  19.054  0.00  0.00    +0.000 A 
BRANCH   7  14
ATOM     13  C   UNL     1      -7.014  13.534  16.792  0.00  0.00    +0.000 C 
ATOM     14  O   UNL     1      -6.595  12.227  17.181  0.00  0.00    +0.000 OA
ENDBRANCH   7  14
BRANCH  12  15
ATOM     15  O   UNL     1      -6.041  12.937  19.959  0.00  0.00    +0.000 OA
BRANCH  15  16
ATOM     16  C   UNL     1      -6.247  12.254  21.203  0.00  0.00    +0.000 C 
ATOM     17  C   UNL     1      -6.321  13.289  22.323  0.00  0.00    +0.000 C 
ATOM     18  C   UNL     1      -7.578  11.505  21.119  0.00  0.00    +0.000 C 
ENDBRANCH  15  16
ENDBRANCH  12  15
ENDBRANCH   1  10
BRANCH   2  19
ATOM     19  C   UNL     1      -0.812  13.850  20.004  0.00  0.00    +0.000 A 
ATOM     20  C   UNL     1      -0.271  14.666  19.014  0.00  0.00    +0.000 A 
ATOM     21  C   UNL     1      -0.518  16.042  19.018  0.00  0.00    +0.000 A 
ATOM     22  C   UNL     1      -1.282  16.617  20.061  0.00  0.00    +0.000 A 
ATOM     23  C   UNL     1      -1.782  15.794  21.093  0.00  0.00    +0.000 A 
ATOM     24  C   UNL     1      -1.548  14.415  21.042  0.00  0.00    +0.000 A 
BRANCH  21  25
ATOM     25  O   UNL     1      -0.043  16.878  18.032  0.00  0.00    +0.000 OA
ATOM     26  C   UNL     1       1.327  17.259  18.152  0.00  0.00    +0.000 C 
ENDBRANCH  21  25
BRANCH  22  27
ATOM     27  O   UNL     1      -1.426  17.987  19.999  0.00  0.00    +0.000 OA
ATOM     28  C   UNL     1      -2.635  18.478  19.430  0.00  0.00    +0.000 C 
ENDBRANCH  22  27
BRANCH  23  29
ATOM     29  O   UNL     1      -2.470  16.380  22.128  0.00  0.00    +0.000 OA
ATOM     30  C   UNL     1      -3.876  16.171  22.189  0.00  0.00    +0.000 C 
ENDBRANCH  23  29
ENDBRANCH   2  19
BRANCH   5  31
ATOM     31  O   UNL     1       1.350   9.913  19.046  0.00  0.00    +0.000 OA
BRANCH  31  32
ATOM     32  C   UNL     1       1.880   8.662  19.047  0.00  0.00    +0.000 C 
ATOM     33  C   UNL     1       2.477   8.339  17.711  0.00  0.00    +0.000 C 
ATOM     34  O   UNL     1       1.876   7.890  19.995  0.00  0.00    +0.000 OA
ENDBRANCH  31  32
ENDBRANCH   5  31
TORSDOF 10
ENDMDL
MODEL 6
REMARK VINA RESULT:      -7.3      3.777     10.265
REMARK  Name = 
REMARK  17 active torsions:
REMARK  status: ('A' for Active; 'I' for Inactive)
REMARK    1  A    between atoms: C_1  and  O_2
REMARK    2  A    between atoms: O_2  and  C_3
REMARK    3  A    between atoms: C_6  and  C_7
REMARK    4  A    between atoms: C_8  and  C_9
REMARK    5  A    between atoms: C_11  and  O_12
REMARK    6  A    between atoms: O_12  and  C_13
REMARK    7  A    between atoms: C_14  and  O_15
REMARK    8  A    between atoms: O_15  and  C_16
REMARK    9  A    between atoms: C_17  and  O_18
REMARK   10  A    between atoms: O_18  and  C_19
REMARK   11  A    between atoms: C_23  and  O_24
REMARK   12  A    between atoms: O_24  and  C_25
REMARK   13  A    between atoms: C_25  and  C_26
REMARK   14  A    between atoms: C_30  and  O_31
REMARK   15  A    between atoms: O_31  and  C_32
REMARK   16  A    between atoms: C_32  and  C_33
REMARK   17  A    between atoms: C_32  and  C_34
REMARK                            x       y       z     vdW  Elec       q    Type
REMARK                         _______ _______ _______ _____ _____    ______ ____
ROOT
ATOM      1  C   UNL     1       1.112  12.124  19.390  0.00  0.00    +0.000 C 
ATOM      2  C   UNL     1       0.019  12.829  19.071  0.00  0.00    +0.000 C 
ATOM      3  C   UNL     1       0.483  14.225  18.849  0.00  0.00    +0.000 C 
ATOM      4  O   UNL     1      -0.259  15.147  18.552  0.00  0.00    +0.000 OA
ATOM      5  C   UNL     1       1.985  14.319  18.973  0.00  0.00    +0.000 C 
ATOM      6  C   UNL     1       2.362  12.941  19.521  0.00  0.00    +0.000 C 
ENDROOT
BRANCH   1  10
ATOM      7  C   UNL     1       1.174   7.935  20.310  0.00  0.00    +0.000 A 
ATOM      8  C   UNL     1       0.783   8.890  21.263  0.00  0.00    +0.000 A 
ATOM      9  C   UNL     1       0.750  10.251  20.953  0.00  0.00    +0.000 A 
ATOM     10  C   UNL     1       1.152  10.690  19.695  0.00  0.00    +0.000 A 
ATOM     11  C   UNL     1       1.589   9.748  18.754  0.00  0.00    +0.000 A 
ATOM     12  C   UNL     1       1.630   8.372  19.055  0.00  0.00    +0.000 A 
BRANCH   7  14
ATOM     13  C   UNL     1       2.242   5.989  21.173  0.00  0.00    +0.000 C 
ATOM     14  O   UNL     1       1.102   6.591  20.563  0.00  0.00    +0.000 OA
ENDBRANCH   7  14
BRANCH  12  15
ATOM     15  O   UNL     1       2.057   7.605  17.997  0.00  0.00    +0.000 OA
BRANCH  15  16
ATOM     16  C   UNL     1       3.239   6.803  18.121  0.00  0.00    +0.000 C 
ATOM     17  C   UNL     1       2.890   5.358  17.773  0.00  0.00    +0.000 C 
ATOM     18  C   UNL     1       4.275   7.326  17.124  0.00  0.00    +0.000 C 
ENDBRANCH  15  16
ENDBRANCH  12  15
ENDBRANCH   1  10
BRANCH   2  19
ATOM     19  C   UNL     1      -1.360  12.403  18.954  0.00  0.00    +0.000 A 
ATOM     20  C   UNL     1      -2.254  12.640  19.994  0.00  0.00    +0.000 A 
ATOM     21  C   UNL     1      -3.609  12.327  19.847  0.00  0.00    +0.000 A 
ATOM     22  C   UNL     1      -4.066  11.720  18.654  0.00  0.00    +0.000 A 
ATOM     23  C   UNL     1      -3.146  11.431  17.623  0.00  0.00    +0.000 A 
ATOM     24  C   UNL     1      -1.802  11.790  17.785  0.00  0.00    +0.000 A 
BRANCH  21  25
ATOM     25  O   UNL     1      -4.536  12.588  20.832  0.00  0.00    +0.000 OA
ATOM     26  C   UNL     1      -4.005  12.802  22.139  0.00  0.00    +0.000 C 
ENDBRANCH  21  25
BRANCH  22  27
ATOM     27  O   UNL     1      -5.408  11.407  18.629  0.00  0.00    +0.000 OA
ATOM     28  C   UNL     1      -6.252  12.269  17.874  0.00  0.00    +0.000 C 
ENDBRANCH  22  27
BRANCH  23  29
ATOM     29  O   UNL     1      -3.599  10.788  16.497  0.00  0.00    +0.000 OA
ATOM     30  C   UNL     1      -2.634  10.380  15.535  0.00  0.00    +0.000 C 
ENDBRANCH  23  29
ENDBRANCH   2  19
BRANCH   5  31
ATOM     31  O   UNL     1       2.523  14.487  17.657  0.00  0.00    +0.000 OA
BRANCH  31  32
ATOM     32  C   UNL     1       3.546  15.373  17.546  0.00  0.00    +0.000 C 
ATOM     33  C   UNL     1       3.025  16.751  17.266  0.00  0.00    +0.000 C 
ATOM     34  O   UNL     1       4.734  15.105  17.651  0.00  0.00    +0.000 OA
ENDBRANCH  31  32
ENDBRANCH   5  31
TORSDOF 10
ENDMDL
MODEL 7
REMARK VINA RESULT:      -7.3      5.985     12.409
REMARK  Name = 
REMARK  17 active torsions:
REMARK  status: ('A' for Active; 'I' for Inactive)
REMARK    1  A    between atoms: C_1  and  O_2
REMARK    2  A    between atoms: O_2  and  C_3
REMARK    3  A    between atoms: C_6  and  C_7
REMARK    4  A    between atoms: C_8  and  C_9
REMARK    5  A    between atoms: C_11  and  O_12
REMARK    6  A    between atoms: O_12  and  C_13
REMARK    7  A    between atoms: C_14  and  O_15
REMARK    8  A    between atoms: O_15  and  C_16
REMARK    9  A    between atoms: C_17  and  O_18
REMARK   10  A    between atoms: O_18  and  C_19
REMARK   11  A    between atoms: C_23  and  O_24
REMARK   12  A    between atoms: O_24  and  C_25
REMARK   13  A    between atoms: C_25  and  C_26
REMARK   14  A    between atoms: C_30  and  O_31
REMARK   15  A    between atoms: O_31  and  C_32
REMARK   16  A    between atoms: C_32  and  C_33
REMARK   17  A    between atoms: C_32  and  C_34
REMARK                            x       y       z     vdW  Elec       q    Type
REMARK                         _______ _______ _______ _____ _____    ______ ____
ROOT
ATOM      1  C   UNL     1      -2.133  14.216  21.893  0.00  0.00    +0.000 C 
ATOM      2  C   UNL     1      -3.416  14.455  21.587  0.00  0.00    +0.000 C 
ATOM      3  C   UNL     1      -3.600  15.925  21.715  0.00  0.00    +0.000 C 
ATOM      4  O   UNL     1      -4.661  16.496  21.519  0.00  0.00    +0.000 OA
ATOM      5  C   UNL     1      -2.292  16.604  22.046  0.00  0.00    +0.000 C 
ATOM      6  C   UNL     1      -1.368  15.423  22.346  0.00  0.00    +0.000 C 
ENDROOT
BRANCH   1  10
ATOM      7  C   UNL     1      -0.278  10.349  21.941  0.00  0.00    +0.000 A 
ATOM      8  C   UNL     1      -1.044  10.810  23.025  0.00  0.00    +0.000 A 
ATOM      9  C   UNL     1      -1.658  12.063  22.997  0.00  0.00    +0.000 A 
ATOM     10  C   UNL     1      -1.482  12.902  21.901  0.00  0.00    +0.000 A 
ATOM     11  C   UNL     1      -0.681  12.470  20.836  0.00  0.00    +0.000 A 
ATOM     12  C   UNL     1      -0.053  11.209  20.852  0.00  0.00    +0.000 A 
BRANCH   7  14
ATOM     13  C   UNL     1       1.590   8.922  22.317  0.00  0.00    +0.000 C 
ATOM     14  O   UNL     1       0.234   9.079  21.906  0.00  0.00    +0.000 OA
ENDBRANCH   7  14
BRANCH  12  15
ATOM     15  O   UNL     1       0.664  10.951  19.708  0.00  0.00    +0.000 OA
BRANCH  15  16
ATOM     16  C   UNL     1       0.301   9.850  18.865  0.00  0.00    +0.000 C 
ATOM     17  C   UNL     1      -0.893  10.263  18.007  0.00  0.00    +0.000 C 
ATOM     18  C   UNL     1       1.490   9.535  17.955  0.00  0.00    +0.000 C 
ENDBRANCH  15  16
ENDBRANCH  12  15
ENDBRANCH   1  10
BRANCH   2  19
ATOM     19  C   UNL     1      -4.467  13.534  21.210  0.00  0.00    +0.000 A 
ATOM     20  C   UNL     1      -5.355  13.057  22.171  0.00  0.00    +0.000 A 
ATOM     21  C   UNL     1      -6.435  12.252  21.799  0.00  0.00    +0.000 A 
ATOM     22  C   UNL     1      -6.602  11.879  20.445  0.00  0.00    +0.000 A 
ATOM     23  C   UNL     1      -5.668  12.319  19.481  0.00  0.00    +0.000 A 
ATOM     24  C   UNL     1      -4.617  13.154  19.880  0.00  0.00    +0.000 A 
BRANCH  21  25
ATOM     25  O   UNL     1      -7.364  11.799  22.711  0.00  0.00    +0.000 OA
ATOM     26  C   UNL     1      -7.640  12.677  23.800  0.00  0.00    +0.000 C 
ENDBRANCH  21  25
BRANCH  22  27
ATOM     27  O   UNL     1      -7.669  11.044  20.191  0.00  0.00    +0.000 OA
ATOM     28  C   UNL     1      -7.404   9.646  20.204  0.00  0.00    +0.000 C 
ENDBRANCH  22  27
BRANCH  23  29
ATOM     29  O   UNL     1      -5.813  11.897  18.183  0.00  0.00    +0.000 OA
ATOM     30  C   UNL     1      -4.852  10.980  17.674  0.00  0.00    +0.000 C 
ENDBRANCH  23  29
ENDBRANCH   2  19
BRANCH   5  31
ATOM     31  O   UNL     1      -1.846  17.291  20.872  0.00  0.00    +0.000 OA
BRANCH  31  32
ATOM     32  C   UNL     1      -0.530  17.624  20.847  0.00  0.00    +0.000 C 
ATOM     33  C   UNL     1       0.164  16.959  19.696  0.00  0.00    +0.000 C 
ATOM     34  O   UNL     1       0.033  18.360  21.646  0.00  0.00    +0.000 OA
ENDBRANCH  31  32
ENDBRANCH   5  31
TORSDOF 10
ENDMDL
MODEL 8
REMARK VINA RESULT:      -7.2      5.859     10.939
REMARK  Name = 
REMARK  17 active torsions:
REMARK  status: ('A' for Active; 'I' for Inactive)
REMARK    1  A    between atoms: C_1  and  O_2
REMARK    2  A    between atoms: O_2  and  C_3
REMARK    3  A    between atoms: C_6  and  C_7
REMARK    4  A    between atoms: C_8  and  C_9
REMARK    5  A    between atoms: C_11  and  O_12
REMARK    6  A    between atoms: O_12  and  C_13
REMARK    7  A    between atoms: C_14  and  O_15
REMARK    8  A    between atoms: O_15  and  C_16
REMARK    9  A    between atoms: C_17  and  O_18
REMARK   10  A    between atoms: O_18  and  C_19
REMARK   11  A    between atoms: C_23  and  O_24
REMARK   12  A    between atoms: O_24  and  C_25
REMARK   13  A    between atoms: C_25  and  C_26
REMARK   14  A    between atoms: C_30  and  O_31
REMARK   15  A    between atoms: O_31  and  C_32
REMARK   16  A    between atoms: C_32  and  C_33
REMARK   17  A    between atoms: C_32  and  C_34
REMARK                            x       y       z     vdW  Elec       q    Type
REMARK                         _______ _______ _______ _____ _____    ______ ____
ROOT
ATOM      1  C   UNL     1      -2.326  13.367  20.750  0.00  0.00    +0.000 C 
ATOM      2  C   UNL     1      -1.910  14.613  21.012  0.00  0.00    +0.000 C 
ATOM      3  C   UNL     1      -2.965  15.226  21.863  0.00  0.00    +0.000 C 
ATOM      4  O   UNL     1      -2.919  16.372  22.281  0.00  0.00    +0.000 OA
ATOM      5  C   UNL     1      -4.047  14.223  22.185  0.00  0.00    +0.000 C 
ATOM      6  C   UNL     1      -3.693  13.045  21.275  0.00  0.00    +0.000 C 
ENDROOT
BRANCH   1  10
ATOM      7  C   UNL     1      -0.201  10.437  18.448  0.00  0.00    +0.000 A 
ATOM      8  C   UNL     1       0.430  11.168  19.468  0.00  0.00    +0.000 A 
ATOM      9  C   UNL     1      -0.271  12.110  20.224  0.00  0.00    +0.000 A 
ATOM     10  C   UNL     1      -1.609  12.372  19.946  0.00  0.00    +0.000 A 
ATOM     11  C   UNL     1      -2.233  11.681  18.900  0.00  0.00    +0.000 A 
ATOM     12  C   UNL     1      -1.537  10.731  18.126  0.00  0.00    +0.000 A 
BRANCH   7  14
ATOM     13  C   UNL     1       1.853   9.335  17.960  0.00  0.00    +0.000 C 
ATOM     14  O   UNL     1       0.441   9.431  17.777  0.00  0.00    +0.000 OA
ENDBRANCH   7  14
BRANCH  12  15
ATOM     15  O   UNL     1      -2.326  10.137  17.169  0.00  0.00    +0.000 OA
BRANCH  15  16
ATOM     16  C   UNL     1      -2.944  10.936  16.152  0.00  0.00    +0.000 C 
ATOM     17  C   UNL     1      -2.883  10.176  14.828  0.00  0.00    +0.000 C 
ATOM     18  C   UNL     1      -4.408  11.153  16.542  0.00  0.00    +0.000 C 
ENDBRANCH  15  16
ENDBRANCH  12  15
ENDBRANCH   1  10
BRANCH   2  19
ATOM     19  C   UNL     1      -0.706  15.298  20.590  0.00  0.00    +0.000 A 
ATOM     20  C   UNL     1       0.459  15.187  21.344  0.00  0.00    +0.000 A 
ATOM     21  C   UNL     1       1.652  15.757  20.890  0.00  0.00    +0.000 A 
ATOM     22  C   UNL     1       1.666  16.493  19.682  0.00  0.00    +0.000 A 
ATOM     23  C   UNL     1       0.469  16.650  18.948  0.00  0.00    +0.000 A 
ATOM     24  C   UNL     1      -0.701  16.036  19.411  0.00  0.00    +0.000 A 
BRANCH  21  25
ATOM     25  O   UNL     1       2.838  15.631  21.580  0.00  0.00    +0.000 OA
ATOM     26  C   UNL     1       2.921  16.359  22.804  0.00  0.00    +0.000 C 
ENDBRANCH  21  25
BRANCH  22  27
ATOM     27  O   UNL     1       2.879  17.055  19.348  0.00  0.00    +0.000 OA
ATOM     28  C   UNL     1       3.642  16.385  18.351  0.00  0.00    +0.000 C 
ENDBRANCH  22  27
BRANCH  23  29
ATOM     29  O   UNL     1       0.490  17.417  17.810  0.00  0.00    +0.000 OA
ATOM     30  C   UNL     1      -0.709  18.088  17.442  0.00  0.00    +0.000 C 
ENDBRANCH  23  29
ENDBRANCH   2  19
BRANCH   5  31
ATOM     31  O   UNL     1      -3.898  13.844  23.557  0.00  0.00    +0.000 OA
BRANCH  31  32
ATOM     32  C   UNL     1      -4.839  12.994  24.042  0.00  0.00    +0.000 C 
ATOM     33  C   UNL     1      -6.217  13.502  23.740  0.00  0.00    +0.000 C 
ATOM     34  O   UNL     1      -4.615  11.956  24.647  0.00  0.00    +0.000 OA
ENDBRANCH  31  32
ENDBRANCH   5  31
TORSDOF 10
ENDMDL
MODEL 9
REMARK VINA RESULT:      -7.2      3.812     10.409
REMARK  Name = 
REMARK  17 active torsions:
REMARK  status: ('A' for Active; 'I' for Inactive)
REMARK    1  A    between atoms: C_1  and  O_2
REMARK    2  A    between atoms: O_2  and  C_3
REMARK    3  A    between atoms: C_6  and  C_7
REMARK    4  A    between atoms: C_8  and  C_9
REMARK    5  A    between atoms: C_11  and  O_12
REMARK    6  A    between atoms: O_12  and  C_13
REMARK    7  A    between atoms: C_14  and  O_15
REMARK    8  A    between atoms: O_15  and  C_16
REMARK    9  A    between atoms: C_17  and  O_18
REMARK   10  A    between atoms: O_18  and  C_19
REMARK   11  A    between atoms: C_23  and  O_24
REMARK   12  A    between atoms: O_24  and  C_25
REMARK   13  A    between atoms: C_25  and  C_26
REMARK   14  A    between atoms: C_30  and  O_31
REMARK   15  A    between atoms: O_31  and  C_32
REMARK   16  A    between atoms: C_32  and  C_33
REMARK   17  A    between atoms: C_32  and  C_34
REMARK                            x       y       z     vdW  Elec       q    Type
REMARK                         _______ _______ _______ _____ _____    ______ ____
ROOT
ATOM      1  C   UNL     1       1.142  12.193  19.414  0.00  0.00    +0.000 C 
ATOM      2  C   UNL     1       0.066  12.901  19.044  0.00  0.00    +0.000 C 
ATOM      3  C   UNL     1       0.542  14.297  18.852  0.00  0.00    +0.000 C 
ATOM      4  O   UNL     1      -0.183  15.222  18.523  0.00  0.00    +0.000 OA
ATOM      5  C   UNL     1       2.036  14.389  19.053  0.00  0.00    +0.000 C 
ATOM      6  C   UNL     1       2.384  13.008  19.613  0.00  0.00    +0.000 C 
ENDROOT
BRANCH   1  10
ATOM      7  C   UNL     1       1.155   7.999  20.315  0.00  0.00    +0.000 A 
ATOM      8  C   UNL     1       0.766   8.954  21.269  0.00  0.00    +0.000 A 
ATOM      9  C   UNL     1       0.748  10.317  20.965  0.00  0.00    +0.000 A 
ATOM     10  C   UNL     1       1.165  10.757  19.712  0.00  0.00    +0.000 A 
ATOM     11  C   UNL     1       1.600   9.816  18.771  0.00  0.00    +0.000 A 
ATOM     12  C   UNL     1       1.626   8.438  19.066  0.00  0.00    +0.000 A 
BRANCH   7  14
ATOM     13  C   UNL     1       2.187   6.044  21.201  0.00  0.00    +0.000 C 
ATOM     14  O   UNL     1       1.067   6.655  20.561  0.00  0.00    +0.000 OA
ENDBRANCH   7  14
BRANCH  12  15
ATOM     15  O   UNL     1       2.053   7.671  18.008  0.00  0.00    +0.000 OA
BRANCH  15  16
ATOM     16  C   UNL     1       3.242   6.878  18.129  0.00  0.00    +0.000 C 
ATOM     17  C   UNL     1       2.897   5.426  17.805  0.00  0.00    +0.000 C 
ATOM     18  C   UNL     1       4.263   7.393  17.113  0.00  0.00    +0.000 C 
ENDBRANCH  15  16
ENDBRANCH  12  15
ENDBRANCH   1  10
BRANCH   2  19
ATOM     19  C   UNL     1      -1.304  12.477  18.854  0.00  0.00    +0.000 A 
ATOM     20  C   UNL     1      -1.643  11.680  17.762  0.00  0.00    +0.000 A 
ATOM     21  C   UNL     1      -2.940  11.179  17.628  0.00  0.00    +0.000 A 
ATOM     22  C   UNL     1      -3.929  11.521  18.579  0.00  0.00    +0.000 A 
ATOM     23  C   UNL     1      -3.597  12.374  19.655  0.00  0.00    +0.000 A 
ATOM     24  C   UNL     1      -2.279  12.830  19.782  0.00  0.00    +0.000 A 
BRANCH  21  25
ATOM     25  O   UNL     1      -3.305  10.349  16.590  0.00  0.00    +0.000 OA
ATOM     26  C   UNL     1      -3.197  10.910  15.283  0.00  0.00    +0.000 C 
ENDBRANCH  21  25
BRANCH  22  27
ATOM     27  O   UNL     1      -5.188  11.016  18.330  0.00  0.00    +0.000 OA
ATOM     28  C   UNL     1      -6.095  11.870  17.640  0.00  0.00    +0.000 C 
ENDBRANCH  22  27
BRANCH  23  29
ATOM     29  O   UNL     1      -4.585  12.742  20.534  0.00  0.00    +0.000 OA
ATOM     30  C   UNL     1      -4.283  12.701  21.923  0.00  0.00    +0.000 C 
ENDBRANCH  23  29
ENDBRANCH   2  19
BRANCH   5  31
ATOM     31  O   UNL     1       2.641  14.564  17.768  0.00  0.00    +0.000 OA
BRANCH  31  32
ATOM     32  C   UNL     1       3.539  15.577  17.670  0.00  0.00    +0.000 C 
ATOM     33  C   UNL     1       2.877  16.825  17.168  0.00  0.00    +0.000 C 
ATOM     34  O   UNL     1       4.729  15.502  17.943  0.00  0.00    +0.000 OA
ENDBRANCH  31  32
ENDBRANCH   5  31
TORSDOF 10
ENDMDL
