MODEL 1
REMARK VINA RESULT:      -7.4      0.000      0.000
REMARK  Name = 
REMARK  10 active torsions:
REMARK  status: ('A' for Active; 'I' for Inactive)
REMARK    1  A    between atoms: C_2  and  C_3
REMARK    2  A    between atoms: C_3  and  N_4
REMARK    3  A    between atoms: C_5  and  C_7
REMARK    4  A    between atoms: C_14  and  C_15
REMARK    5  A    between atoms: C_16  and  C_17
REMARK    6  A    between atoms: N_23  and  C_24
REMARK    7  A    between atoms: C_24  and  C_25
REMARK    8  A    between atoms: C_25  and  C_26
REMARK    9  A    between atoms: C_30  and  O_31
REMARK   10  A    between atoms: O_31  and  C_32
REMARK                            x       y       z     vdW  Elec       q    Type
REMARK                         _______ _______ _______ _____ _____    ______ ____
ROOT
ATOM      1  C   UNL     1       0.506  12.082  19.360  0.00  0.00    +0.000 A 
ATOM      2  C   UNL     1      -0.232  11.772  20.505  0.00  0.00    +0.000 A 
ATOM      3  C   UNL     1      -0.105  10.506  21.083  0.00  0.00    +0.000 A 
ATOM      4  C   UNL     1       0.731   9.541  20.491  0.00  0.00    +0.000 A 
ATOM      5  C   UNL     1       1.498   9.875  19.385  0.00  0.00    +0.000 A 
ATOM      6  C   UNL     1       1.441  11.165  18.882  0.00  0.00    +0.000 A 
ATOM      7  N   UNL     1       2.271   8.952  18.685  0.00  0.00    +0.000 NA
ATOM      8  C   UNL     1       2.366   7.729  19.123  0.00  0.00    +0.000 C 
ATOM      9  N   UNL     1       1.738   7.286  20.285  0.00  0.00    +0.000 N 
ATOM     10  C   UNL     1       0.790   8.142  21.007  0.00  0.00    +0.000 C 
ENDROOT
BRANCH   1  12
ATOM     11  N   UNL     1       1.047  14.450  18.840  0.00  0.00    +0.000 N 
ATOM     12  C   UNL     1       0.241  13.344  18.616  0.00  0.00    +0.000 C 
ATOM     13  O   UNL     1      -0.653  13.382  17.778  0.00  0.00    +0.000 OA
ATOM     14  H   UNL     1       0.720  15.290  18.384  0.00  0.00    +0.000 HD
BRANCH  11  15
ATOM     15  C   UNL     1       2.132  14.553  19.792  0.00  0.00    +0.000 C 
BRANCH  15  17
ATOM     16  C   UNL     1       3.527  15.239  17.865  0.00  0.00    +0.000 C 
ATOM     17  C   UNL     1       3.366  15.129  19.191  0.00  0.00    +0.000 C 
ENDBRANCH  15  17
ENDBRANCH  11  15
ENDBRANCH   1  12
BRANCH   8  18
ATOM     18  C   UNL     1       3.146   6.793  18.236  0.00  0.00    +0.000 C 
ATOM     19  C   UNL     1       4.414   6.419  18.483  0.00  0.00    +0.000 C 
BRANCH  19  20
ATOM     20  C   UNL     1       5.112   5.552  17.535  0.00  0.00    +0.000 A 
ATOM     21  C   UNL     1       6.443   5.184  17.762  0.00  0.00    +0.000 A 
ATOM     22  C   UNL     1       7.140   4.437  16.809  0.00  0.00    +0.000 A 
ATOM     23  C   UNL     1       6.509   4.048  15.628  0.00  0.00    +0.000 A 
ATOM     24  C   UNL     1       5.175   4.389  15.408  0.00  0.00    +0.000 A 
ATOM     25  C   UNL     1       4.477   5.136  16.359  0.00  0.00    +0.000 A 
ENDBRANCH  19  20
ENDBRANCH   8  18
BRANCH   9  26
ATOM     26  C   UNL     1       2.095   6.037  20.962  0.00  0.00    +0.000 C 
BRANCH  26  27
ATOM     27  C   UNL     1       1.370   4.797  20.417  0.00  0.00    +0.000 C 
BRANCH  27  28
ATOM     28  C   UNL     1       2.106   3.800  19.545  0.00  0.00    +0.000 A 
ATOM     29  C   UNL     1       1.673   3.363  18.286  0.00  0.00    +0.000 A 
ATOM     30  C   UNL     1       2.364   2.365  17.601  0.00  0.00    +0.000 A 
ATOM     31  C   UNL     1       3.497   1.780  18.166  0.00  0.00    +0.000 A 
ATOM     32  C   UNL     1       3.948   2.193  19.419  0.00  0.00    +0.000 A 
ATOM     33  C   UNL     1       3.252   3.193  20.094  0.00  0.00    +0.000 A 
BRANCH  32  34
ATOM     34  O   UNL     1       5.056   1.538  19.881  0.00  0.00    +0.000 OA
ATOM     35  C   UNL     1       5.093   1.259  21.275  0.00  0.00    +0.000 C 
ENDBRANCH  32  34
ENDBRANCH  27  28
ENDBRANCH  26  27
ENDBRANCH   9  26
TORSDOF 9
ENDMDL
MODEL 2
REMARK VINA RESULT:      -7.2      2.136      3.308
REMARK  Name = 
REMARK  10 active torsions:
REMARK  status: ('A' for Active; 'I' for Inactive)
REMARK    1  A    between atoms: C_2  and  C_3
REMARK    2  A    between atoms: C_3  and  N_4
REMARK    3  A    between atoms: C_5  and  C_7
REMARK    4  A    between atoms: C_14  and  C_15
REMARK    5  A    between atoms: C_16  and  C_17
REMARK    6  A    between atoms: N_23  and  C_24
REMARK    7  A    between atoms: C_24  and  C_25
REMARK    8  A    between atoms: C_25  and  C_26
REMARK    9  A    between atoms: C_30  and  O_31
REMARK   10  A    between atoms: O_31  and  C_32
REMARK                            x       y       z     vdW  Elec       q    Type
REMARK                         _______ _______ _______ _____ _____    ______ ____
ROOT
ATOM      1  C   UNL     1       1.029   9.383  18.669  0.00  0.00    +0.000 A 
ATOM      2  C   UNL     1       1.040   8.798  19.938  0.00  0.00    +0.000 A 
ATOM      3  C   UNL     1       1.972   7.797  20.224  0.00  0.00    +0.000 A 
ATOM      4  C   UNL     1       2.864   7.357  19.229  0.00  0.00    +0.000 A 
ATOM      5  C   UNL     1       2.879   7.979  17.990  0.00  0.00    +0.000 A 
ATOM      6  C   UNL     1       2.021   9.040  17.750  0.00  0.00    +0.000 A 
ATOM      7  N   UNL     1       3.660   7.538  16.924  0.00  0.00    +0.000 NA
ATOM      8  C   UNL     1       4.492   6.552  17.101  0.00  0.00    +0.000 C 
ATOM      9  N   UNL     1       4.660   5.908  18.325  0.00  0.00    +0.000 N 
ATOM     10  C   UNL     1       3.782   6.203  19.463  0.00  0.00    +0.000 C 
ENDROOT
BRANCH   1  12
ATOM     11  N   UNL     1       0.058  11.664  18.512  0.00  0.00    +0.000 N 
ATOM     12  C   UNL     1      -0.073  10.304  18.277  0.00  0.00    +0.000 C 
ATOM     13  O   UNL     1      -1.065   9.861  17.706  0.00  0.00    +0.000 OA
ATOM     14  H   UNL     1      -0.784  12.192  18.325  0.00  0.00    +0.000 HD
BRANCH  11  15
ATOM     15  C   UNL     1       1.162  12.327  19.171  0.00  0.00    +0.000 C 
BRANCH  15  17
ATOM     16  C   UNL     1       2.762  14.040  18.375  0.00  0.00    +0.000 C 
ATOM     17  C   UNL     1       2.173  12.846  18.211  0.00  0.00    +0.000 C 
ENDBRANCH  15  17
ENDBRANCH  11  15
ENDBRANCH   1  12
BRANCH   8  18
ATOM     18  C   UNL     1       5.212   6.095  15.858  0.00  0.00    +0.000 C 
ATOM     19  C   UNL     1       4.933   4.946  15.219  0.00  0.00    +0.000 C 
BRANCH  19  20
ATOM     20  C   UNL     1       5.724   4.555  14.052  0.00  0.00    +0.000 A 
ATOM     21  C   UNL     1       5.235   3.596  13.157  0.00  0.00    +0.000 A 
ATOM     22  C   UNL     1       6.030   3.152  12.097  0.00  0.00    +0.000 A 
ATOM     23  C   UNL     1       7.313   3.669  11.922  0.00  0.00    +0.000 A 
ATOM     24  C   UNL     1       7.795   4.644  12.794  0.00  0.00    +0.000 A 
ATOM     25  C   UNL     1       7.002   5.089  13.854  0.00  0.00    +0.000 A 
ENDBRANCH  19  20
ENDBRANCH   8  18
BRANCH   9  26
ATOM     26  C   UNL     1       5.803   5.042  18.624  0.00  0.00    +0.000 C 
BRANCH  26  27
ATOM     27  C   UNL     1       5.418   3.652  19.152  0.00  0.00    +0.000 C 
BRANCH  27  28
ATOM     28  C   UNL     1       4.032   3.092  18.896  0.00  0.00    +0.000 A 
ATOM     29  C   UNL     1       3.549   2.692  17.643  0.00  0.00    +0.000 A 
ATOM     30  C   UNL     1       2.225   2.285  17.487  0.00  0.00    +0.000 A 
ATOM     31  C   UNL     1       1.358   2.277  18.579  0.00  0.00    +0.000 A 
ATOM     32  C   UNL     1       1.812   2.674  19.837  0.00  0.00    +0.000 A 
ATOM     33  C   UNL     1       3.137   3.076  19.983  0.00  0.00    +0.000 A 
BRANCH  32  34
ATOM     34  O   UNL     1       0.871   2.644  20.828  0.00  0.00    +0.000 OA
ATOM     35  C   UNL     1       1.357   2.559  22.162  0.00  0.00    +0.000 C 
ENDBRANCH  32  34
ENDBRANCH  27  28
ENDBRANCH  26  27
ENDBRANCH   9  26
TORSDOF 9
ENDMDL
MODEL 3
REMARK VINA RESULT:      -7.2      3.073      7.914
REMARK  Name = 
REMARK  10 active torsions:
REMARK  status: ('A' for Active; 'I' for Inactive)
REMARK    1  A    between atoms: C_2  and  C_3
REMARK    2  A    between atoms: C_3  and  N_4
REMARK    3  A    between atoms: C_5  and  C_7
REMARK    4  A    between atoms: C_14  and  C_15
REMARK    5  A    between atoms: C_16  and  C_17
REMARK    6  A    between atoms: N_23  and  C_24
REMARK    7  A    between atoms: C_24  and  C_25
REMARK    8  A    between atoms: C_25  and  C_26
REMARK    9  A    between atoms: C_30  and  O_31
REMARK   10  A    between atoms: O_31  and  C_32
REMARK                            x       y       z     vdW  Elec       q    Type
REMARK                         _______ _______ _______ _____ _____    ______ ____
ROOT
ATOM      1  C   UNL     1       6.250   5.089  15.657  0.00  0.00    +0.000 A 
ATOM      2  C   UNL     1       6.753   4.472  16.805  0.00  0.00    +0.000 A 
ATOM      3  C   UNL     1       6.119   4.687  18.033  0.00  0.00    +0.000 A 
ATOM      4  C   UNL     1       5.009   5.547  18.113  0.00  0.00    +0.000 A 
ATOM      5  C   UNL     1       4.487   6.113  16.960  0.00  0.00    +0.000 A 
ATOM      6  C   UNL     1       5.060   5.812  15.734  0.00  0.00    +0.000 A 
ATOM      7  N   UNL     1       3.456   7.049  16.968  0.00  0.00    +0.000 NA
ATOM      8  C   UNL     1       2.876   7.358  18.093  0.00  0.00    +0.000 C 
ATOM      9  N   UNL     1       3.226   6.781  19.312  0.00  0.00    +0.000 N 
ATOM     10  C   UNL     1       4.391   5.898  19.426  0.00  0.00    +0.000 C 
ENDROOT
BRANCH   1  12
ATOM     11  N   UNL     1       6.481   4.371  13.290  0.00  0.00    +0.000 N 
ATOM     12  C   UNL     1       7.016   5.037  14.381  0.00  0.00    +0.000 C 
ATOM     13  O   UNL     1       8.090   5.624  14.291  0.00  0.00    +0.000 OA
ATOM     14  H   UNL     1       7.120   4.286  12.512  0.00  0.00    +0.000 HD
BRANCH  11  15
ATOM     15  C   UNL     1       5.233   3.638  13.248  0.00  0.00    +0.000 C 
BRANCH  15  17
ATOM     16  C   UNL     1       6.023   2.153  11.431  0.00  0.00    +0.000 C 
ATOM     17  C   UNL     1       5.047   2.900  11.969  0.00  0.00    +0.000 C 
ENDBRANCH  15  17
ENDBRANCH  11  15
ENDBRANCH   1  12
BRANCH   8  18
ATOM     18  C   UNL     1       1.843   8.452  17.998  0.00  0.00    +0.000 C 
ATOM     19  C   UNL     1       1.967   9.644  18.607  0.00  0.00    +0.000 C 
BRANCH  19  20
ATOM     20  C   UNL     1       0.886  10.624  18.507  0.00  0.00    +0.000 A 
ATOM     21  C   UNL     1      -0.399  10.222  18.127  0.00  0.00    +0.000 A 
ATOM     22  C   UNL     1      -1.407  11.172  17.936  0.00  0.00    +0.000 A 
ATOM     23  C   UNL     1      -1.137  12.526  18.132  0.00  0.00    +0.000 A 
ATOM     24  C   UNL     1       0.135  12.930  18.536  0.00  0.00    +0.000 A 
ATOM     25  C   UNL     1       1.143  11.982  18.727  0.00  0.00    +0.000 A 
ENDBRANCH  19  20
ENDBRANCH   8  18
BRANCH   9  26
ATOM     26  C   UNL     1       2.382   6.863  20.507  0.00  0.00    +0.000 C 
BRANCH  26  27
ATOM     27  C   UNL     1       1.183   5.904  20.498  0.00  0.00    +0.000 C 
BRANCH  27  28
ATOM     28  C   UNL     1       1.392   4.418  20.280  0.00  0.00    +0.000 A 
ATOM     29  C   UNL     1       1.508   3.468  21.303  0.00  0.00    +0.000 A 
ATOM     30  C   UNL     1       1.802   2.137  21.009  0.00  0.00    +0.000 A 
ATOM     31  C   UNL     1       1.992   1.734  19.688  0.00  0.00    +0.000 A 
ATOM     32  C   UNL     1       1.886   2.660  18.651  0.00  0.00    +0.000 A 
ATOM     33  C   UNL     1       1.589   3.986  18.955  0.00  0.00    +0.000 A 
BRANCH  32  34
ATOM     34  O   UNL     1       2.110   2.157  17.400  0.00  0.00    +0.000 OA
ATOM     35  C   UNL     1       3.396   2.397  16.840  0.00  0.00    +0.000 C 
ENDBRANCH  32  34
ENDBRANCH  27  28
ENDBRANCH  26  27
ENDBRANCH   9  26
TORSDOF 9
ENDMDL
MODEL 4
REMARK VINA RESULT:      -7.1      1.561      2.306
REMARK  Name = 
REMARK  10 active torsions:
REMARK  status: ('A' for Active; 'I' for Inactive)
REMARK    1  A    between atoms: C_2  and  C_3
REMARK    2  A    between atoms: C_3  and  N_4
REMARK    3  A    between atoms: C_5  and  C_7
REMARK    4  A    between atoms: C_14  and  C_15
REMARK    5  A    between atoms: C_16  and  C_17
REMARK    6  A    between atoms: N_23  and  C_24
REMARK    7  A    between atoms: C_24  and  C_25
REMARK    8  A    between atoms: C_25  and  C_26
REMARK    9  A    between atoms: C_30  and  O_31
REMARK   10  A    between atoms: O_31  and  C_32
REMARK                            x       y       z     vdW  Elec       q    Type
REMARK                         _______ _______ _______ _____ _____    ______ ____
ROOT
ATOM      1  C   UNL     1      -0.091  11.602  20.036  0.00  0.00    +0.000 A 
ATOM      2  C   UNL     1      -0.798  11.113  21.137  0.00  0.00    +0.000 A 
ATOM      3  C   UNL     1      -0.545   9.816  21.593  0.00  0.00    +0.000 A 
ATOM      4  C   UNL     1       0.385   9.001  20.923  0.00  0.00    +0.000 A 
ATOM      5  C   UNL     1       1.118   9.513  19.863  0.00  0.00    +0.000 A 
ATOM      6  C   UNL     1       0.934  10.834  19.485  0.00  0.00    +0.000 A 
ATOM      7  N   UNL     1       1.982   8.744  19.089  0.00  0.00    +0.000 NA
ATOM      8  C   UNL     1       2.199   7.500  19.410  0.00  0.00    +0.000 C 
ATOM      9  N   UNL     1       1.614   6.887  20.517  0.00  0.00    +0.000 N 
ATOM     10  C   UNL     1       0.582   7.571  21.304  0.00  0.00    +0.000 C 
ENDROOT
BRANCH   1  12
ATOM     11  N   UNL     1      -1.631  12.967  18.643  0.00  0.00    +0.000 N 
ATOM     12  C   UNL     1      -0.479  12.898  19.411  0.00  0.00    +0.000 C 
ATOM     13  O   UNL     1       0.194  13.902  19.621  0.00  0.00    +0.000 OA
ATOM     14  H   UNL     1      -1.748  13.849  18.165  0.00  0.00    +0.000 HD
BRANCH  11  15
ATOM     15  C   UNL     1      -2.518  11.872  18.311  0.00  0.00    +0.000 C 
BRANCH  15  17
ATOM     16  C   UNL     1      -2.588   9.931  16.777  0.00  0.00    +0.000 C 
ATOM     17  C   UNL     1      -2.081  11.131  17.097  0.00  0.00    +0.000 C 
ENDBRANCH  15  17
ENDBRANCH  11  15
ENDBRANCH   1  12
BRANCH   8  18
ATOM     18  C   UNL     1       3.072   6.736  18.448  0.00  0.00    +0.000 C 
ATOM     19  C   UNL     1       4.291   6.266  18.765  0.00  0.00    +0.000 C 
BRANCH  19  20
ATOM     20  C   UNL     1       5.092   5.585  17.748  0.00  0.00    +0.000 A 
ATOM     21  C   UNL     1       6.338   5.042  18.078  0.00  0.00    +0.000 A 
ATOM     22  C   UNL     1       7.146   4.478  17.086  0.00  0.00    +0.000 A 
ATOM     23  C   UNL     1       6.709   4.447  15.763  0.00  0.00    +0.000 A 
ATOM     24  C   UNL     1       5.456   4.963  15.433  0.00  0.00    +0.000 A 
ATOM     25  C   UNL     1       4.648   5.527  16.422  0.00  0.00    +0.000 A 
ENDBRANCH  19  20
ENDBRANCH   8  18
BRANCH   9  26
ATOM     26  C   UNL     1       2.093   5.621  21.077  0.00  0.00    +0.000 C 
BRANCH  26  27
ATOM     27  C   UNL     1       1.589   4.374  20.334  0.00  0.00    +0.000 C 
BRANCH  27  28
ATOM     28  C   UNL     1       2.573   3.362  19.780  0.00  0.00    +0.000 A 
ATOM     29  C   UNL     1       2.489   2.776  18.510  0.00  0.00    +0.000 A 
ATOM     30  C   UNL     1       3.382   1.777  18.127  0.00  0.00    +0.000 A 
ATOM     31  C   UNL     1       4.371   1.341  19.008  0.00  0.00    +0.000 A 
ATOM     32  C   UNL     1       4.475   1.905  20.279  0.00  0.00    +0.000 A 
ATOM     33  C   UNL     1       3.579   2.904  20.652  0.00  0.00    +0.000 A 
BRANCH  32  34
ATOM     34  O   UNL     1       5.468   1.388  21.063  0.00  0.00    +0.000 OA
ATOM     35  C   UNL     1       5.727  -0.004  20.923  0.00  0.00    +0.000 C 
ENDBRANCH  32  34
ENDBRANCH  27  28
ENDBRANCH  26  27
ENDBRANCH   9  26
TORSDOF 9
ENDMDL
MODEL 5
REMARK VINA RESULT:      -7.1      3.054      7.793
REMARK  Name = 
REMARK  10 active torsions:
REMARK  status: ('A' for Active; 'I' for Inactive)
REMARK    1  A    between atoms: C_2  and  C_3
REMARK    2  A    between atoms: C_3  and  N_4
REMARK    3  A    between atoms: C_5  and  C_7
REMARK    4  A    between atoms: C_14  and  C_15
REMARK    5  A    between atoms: C_16  and  C_17
REMARK    6  A    between atoms: N_23  and  C_24
REMARK    7  A    between atoms: C_24  and  C_25
REMARK    8  A    between atoms: C_25  and  C_26
REMARK    9  A    between atoms: C_30  and  O_31
REMARK   10  A    between atoms: O_31  and  C_32
REMARK                            x       y       z     vdW  Elec       q    Type
REMARK                         _______ _______ _______ _____ _____    ______ ____
ROOT
ATOM      1  C   UNL     1       6.520   5.068  15.319  0.00  0.00    +0.000 A 
ATOM      2  C   UNL     1       7.057   4.465  16.459  0.00  0.00    +0.000 A 
ATOM      3  C   UNL     1       6.435   4.659  17.696  0.00  0.00    +0.000 A 
ATOM      4  C   UNL     1       5.302   5.487  17.794  0.00  0.00    +0.000 A 
ATOM      5  C   UNL     1       4.748   6.039  16.649  0.00  0.00    +0.000 A 
ATOM      6  C   UNL     1       5.312   5.756  15.415  0.00  0.00    +0.000 A 
ATOM      7  N   UNL     1       3.691   6.945  16.673  0.00  0.00    +0.000 NA
ATOM      8  C   UNL     1       3.118   7.236  17.807  0.00  0.00    +0.000 C 
ATOM      9  N   UNL     1       3.501   6.668  19.020  0.00  0.00    +0.000 N 
ATOM     10  C   UNL     1       4.693   5.819  19.116  0.00  0.00    +0.000 C 
ENDROOT
BRANCH   1  12
ATOM     11  N   UNL     1       6.786   4.283  12.977  0.00  0.00    +0.000 N 
ATOM     12  C   UNL     1       7.270   5.040  14.033  0.00  0.00    +0.000 C 
ATOM     13  O   UNL     1       8.280   5.723  13.901  0.00  0.00    +0.000 OA
ATOM     14  H   UNL     1       7.419   4.229  12.191  0.00  0.00    +0.000 HD
BRANCH  11  15
ATOM     15  C   UNL     1       5.615   3.433  12.985  0.00  0.00    +0.000 C 
BRANCH  15  17
ATOM     16  C   UNL     1       4.022   3.165  11.109  0.00  0.00    +0.000 C 
ATOM     17  C   UNL     1       5.243   2.959  11.625  0.00  0.00    +0.000 C 
ENDBRANCH  15  17
ENDBRANCH  11  15
ENDBRANCH   1  12
BRANCH   8  18
ATOM     18  C   UNL     1       2.053   8.299  17.729  0.00  0.00    +0.000 C 
ATOM     19  C   UNL     1       2.025   9.382  18.525  0.00  0.00    +0.000 C 
BRANCH  19  20
ATOM     20  C   UNL     1       0.920  10.333  18.417  0.00  0.00    +0.000 A 
ATOM     21  C   UNL     1       1.115  11.682  18.735  0.00  0.00    +0.000 A 
ATOM     22  C   UNL     1       0.038  12.572  18.724  0.00  0.00    +0.000 A 
ATOM     23  C   UNL     1      -1.238  12.120  18.390  0.00  0.00    +0.000 A 
ATOM     24  C   UNL     1      -1.434  10.783  18.047  0.00  0.00    +0.000 A 
ATOM     25  C   UNL     1      -0.359   9.892  18.056  0.00  0.00    +0.000 A 
ENDBRANCH  19  20
ENDBRANCH   8  18
BRANCH   9  26
ATOM     26  C   UNL     1       2.673   6.724  20.227  0.00  0.00    +0.000 C 
BRANCH  26  27
ATOM     27  C   UNL     1       1.791   5.485  20.443  0.00  0.00    +0.000 C 
BRANCH  27  28
ATOM     28  C   UNL     1       2.162   4.160  19.807  0.00  0.00    +0.000 A 
ATOM     29  C   UNL     1       1.324   3.410  18.971  0.00  0.00    +0.000 A 
ATOM     30  C   UNL     1       1.714   2.151  18.515  0.00  0.00    +0.000 A 
ATOM     31  C   UNL     1       2.946   1.617  18.893  0.00  0.00    +0.000 A 
ATOM     32  C   UNL     1       3.798   2.340  19.726  0.00  0.00    +0.000 A 
ATOM     33  C   UNL     1       3.400   3.598  20.174  0.00  0.00    +0.000 A 
BRANCH  32  34
ATOM     34  O   UNL     1       4.969   1.711  20.045  0.00  0.00    +0.000 OA
ATOM     35  C   UNL     1       5.018   1.064  21.310  0.00  0.00    +0.000 C 
ENDBRANCH  32  34
ENDBRANCH  27  28
ENDBRANCH  26  27
ENDBRANCH   9  26
TORSDOF 9
ENDMDL
MODEL 6
REMARK VINA RESULT:      -7.1      1.001      1.584
REMARK  Name = 
REMARK  10 active torsions:
REMARK  status: ('A' for Active; 'I' for Inactive)
REMARK    1  A    between atoms: C_2  and  C_3
REMARK    2  A    between atoms: C_3  and  N_4
REMARK    3  A    between atoms: C_5  and  C_7
REMARK    4  A    between atoms: C_14  and  C_15
REMARK    5  A    between atoms: C_16  and  C_17
REMARK    6  A    between atoms: N_23  and  C_24
REMARK    7  A    between atoms: C_24  and  C_25
REMARK    8  A    between atoms: C_25  and  C_26
REMARK    9  A    between atoms: C_30  and  O_31
REMARK   10  A    between atoms: O_31  and  C_32
REMARK                            x       y       z     vdW  Elec       q    Type
REMARK                         _______ _______ _______ _____ _____    ______ ____
ROOT
ATOM      1  C   UNL     1       0.103  12.032  19.618  0.00  0.00    +0.000 A 
ATOM      2  C   UNL     1      -0.589  11.615  20.758  0.00  0.00    +0.000 A 
ATOM      3  C   UNL     1      -0.370  10.329  21.261  0.00  0.00    +0.000 A 
ATOM      4  C   UNL     1       0.510   9.453  20.600  0.00  0.00    +0.000 A 
ATOM      5  C   UNL     1       1.230   9.895  19.500  0.00  0.00    +0.000 A 
ATOM      6  C   UNL     1       1.082  11.204  19.071  0.00  0.00    +0.000 A 
ATOM      7  N   UNL     1       2.042   9.062  18.734  0.00  0.00    +0.000 NA
ATOM      8  C   UNL     1       2.223   7.825  19.102  0.00  0.00    +0.000 C 
ATOM      9  N   UNL     1       1.650   7.280  20.249  0.00  0.00    +0.000 N 
ATOM     10  C   UNL     1       0.667   8.034  21.035  0.00  0.00    +0.000 C 
ENDROOT
BRANCH   1  12
ATOM     11  N   UNL     1       0.176  14.513  19.497  0.00  0.00    +0.000 N 
ATOM     12  C   UNL     1      -0.257  13.315  18.951  0.00  0.00    +0.000 C 
ATOM     13  O   UNL     1      -0.889  13.299  17.900  0.00  0.00    +0.000 OA
ATOM     14  H   UNL     1      -0.214  15.329  19.047  0.00  0.00    +0.000 HD
BRANCH  11  15
ATOM     15  C   UNL     1       0.925  14.686  20.724  0.00  0.00    +0.000 C 
BRANCH  15  17
ATOM     16  C   UNL     1      -0.447  14.640  22.784  0.00  0.00    +0.000 C 
ATOM     17  C   UNL     1       0.125  15.341  21.794  0.00  0.00    +0.000 C 
ENDBRANCH  15  17
ENDBRANCH  11  15
ENDBRANCH   1  12
BRANCH   8  18
ATOM     18  C   UNL     1       3.040   6.990  18.148  0.00  0.00    +0.000 C 
ATOM     19  C   UNL     1       4.319   6.646  18.373  0.00  0.00    +0.000 C 
BRANCH  19  20
ATOM     20  C   UNL     1       5.052   5.882  17.363  0.00  0.00    +0.000 A 
ATOM     21  C   UNL     1       4.881   6.163  16.003  0.00  0.00    +0.000 A 
ATOM     22  C   UNL     1       5.505   5.370  15.036  0.00  0.00    +0.000 A 
ATOM     23  C   UNL     1       6.308   4.298  15.423  0.00  0.00    +0.000 A 
ATOM     24  C   UNL     1       6.503   4.029  16.777  0.00  0.00    +0.000 A 
ATOM     25  C   UNL     1       5.880   4.820  17.746  0.00  0.00    +0.000 A 
ENDBRANCH  19  20
ENDBRANCH   8  18
BRANCH   9  26
ATOM     26  C   UNL     1       2.098   6.021  20.847  0.00  0.00    +0.000 C 
BRANCH  26  27
ATOM     27  C   UNL     1       1.404   4.773  20.282  0.00  0.00    +0.000 C 
BRANCH  27  28
ATOM     28  C   UNL     1       2.148   3.840  19.347  0.00  0.00    +0.000 A 
ATOM     29  C   UNL     1       1.862   3.675  17.985  0.00  0.00    +0.000 A 
ATOM     30  C   UNL     1       2.534   2.717  17.227  0.00  0.00    +0.000 A 
ATOM     31  C   UNL     1       3.498   1.902  17.819  0.00  0.00    +0.000 A 
ATOM     32  C   UNL     1       3.800   2.041  19.173  0.00  0.00    +0.000 A 
ATOM     33  C   UNL     1       3.125   3.004  19.920  0.00  0.00    +0.000 A 
BRANCH  32  34
ATOM     34  O   UNL     1       4.747   1.177  19.648  0.00  0.00    +0.000 OA
ATOM     35  C   UNL     1       5.138   1.349  21.004  0.00  0.00    +0.000 C 
ENDBRANCH  32  34
ENDBRANCH  27  28
ENDBRANCH  26  27
ENDBRANCH   9  26
TORSDOF 9
ENDMDL
MODEL 7
REMARK VINA RESULT:      -6.9      3.151     10.005
REMARK  Name = 
REMARK  10 active torsions:
REMARK  status: ('A' for Active; 'I' for Inactive)
REMARK    1  A    between atoms: C_2  and  C_3
REMARK    2  A    between atoms: C_3  and  N_4
REMARK    3  A    between atoms: C_5  and  C_7
REMARK    4  A    between atoms: C_14  and  C_15
REMARK    5  A    between atoms: C_16  and  C_17
REMARK    6  A    between atoms: N_23  and  C_24
REMARK    7  A    between atoms: C_24  and  C_25
REMARK    8  A    between atoms: C_25  and  C_26
REMARK    9  A    between atoms: C_30  and  O_31
REMARK   10  A    between atoms: O_31  and  C_32
REMARK                            x       y       z     vdW  Elec       q    Type
REMARK                         _______ _______ _______ _____ _____    ______ ____
ROOT
ATOM      1  C   UNL     1       2.288   6.148  19.930  0.00  0.00    +0.000 A 
ATOM      2  C   UNL     1       2.805   6.503  18.681  0.00  0.00    +0.000 A 
ATOM      3  C   UNL     1       2.575   7.789  18.184  0.00  0.00    +0.000 A 
ATOM      4  C   UNL     1       1.796   8.701  18.919  0.00  0.00    +0.000 A 
ATOM      5  C   UNL     1       1.331   8.356  20.179  0.00  0.00    +0.000 A 
ATOM      6  C   UNL     1       1.652   7.115  20.707  0.00  0.00    +0.000 A 
ATOM      7  N   UNL     1       0.474   9.162  20.924  0.00  0.00    +0.000 NA
ATOM      8  C   UNL     1       0.151  10.343  20.478  0.00  0.00    +0.000 C 
ATOM      9  N   UNL     1       0.636  10.862  19.279  0.00  0.00    +0.000 N 
ATOM     10  C   UNL     1       1.423  10.034  18.359  0.00  0.00    +0.000 C 
ENDROOT
BRANCH   1  12
ATOM     11  N   UNL     1       2.442   3.714  19.457  0.00  0.00    +0.000 N 
ATOM     12  C   UNL     1       2.350   4.734  20.391  0.00  0.00    +0.000 C 
ATOM     13  O   UNL     1       2.367   4.484  21.592  0.00  0.00    +0.000 OA
ATOM     14  H   UNL     1       2.357   2.789  19.854  0.00  0.00    +0.000 HD
BRANCH  11  15
ATOM     15  C   UNL     1       2.433   3.855  18.016  0.00  0.00    +0.000 C 
BRANCH  15  17
ATOM     16  C   UNL     1       4.449   3.978  16.586  0.00  0.00    +0.000 C 
ATOM     17  C   UNL     1       3.637   3.261  17.375  0.00  0.00    +0.000 C 
ENDBRANCH  15  17
ENDBRANCH  11  15
ENDBRANCH   1  12
BRANCH   8  18
ATOM     18  C   UNL     1      -0.857  11.087  21.316  0.00  0.00    +0.000 C 
ATOM     19  C   UNL     1      -0.529  12.069  22.174  0.00  0.00    +0.000 C 
BRANCH  19  20
ATOM     20  C   UNL     1      -1.568  12.696  22.989  0.00  0.00    +0.000 A 
ATOM     21  C   UNL     1      -1.352  13.954  23.564  0.00  0.00    +0.000 A 
ATOM     22  C   UNL     1      -2.305  14.510  24.421  0.00  0.00    +0.000 A 
ATOM     23  C   UNL     1      -3.481  13.816  24.703  0.00  0.00    +0.000 A 
ATOM     24  C   UNL     1      -3.714  12.574  24.112  0.00  0.00    +0.000 A 
ATOM     25  C   UNL     1      -2.763  12.017  23.255  0.00  0.00    +0.000 A 
ENDBRANCH  19  20
ENDBRANCH   8  18
BRANCH   9  26
ATOM     26  C   UNL     1       0.554  12.282  18.931  0.00  0.00    +0.000 C 
BRANCH  26  27
ATOM     27  C   UNL     1      -0.560  12.621  17.929  0.00  0.00    +0.000 C 
BRANCH  27  28
ATOM     28  C   UNL     1      -1.833  11.799  17.890  0.00  0.00    +0.000 A 
ATOM     29  C   UNL     1      -2.066  10.725  17.021  0.00  0.00    +0.000 A 
ATOM     30  C   UNL     1      -3.308  10.093  16.987  0.00  0.00    +0.000 A 
ATOM     31  C   UNL     1      -4.341  10.527  17.817  0.00  0.00    +0.000 A 
ATOM     32  C   UNL     1      -4.137  11.595  18.690  0.00  0.00    +0.000 A 
ATOM     33  C   UNL     1      -2.892  12.218  18.718  0.00  0.00    +0.000 A 
BRANCH  32  34
ATOM     34  O   UNL     1      -5.224  11.945  19.442  0.00  0.00    +0.000 OA
ATOM     35  C   UNL     1      -5.008  12.923  20.451  0.00  0.00    +0.000 C 
ENDBRANCH  32  34
ENDBRANCH  27  28
ENDBRANCH  26  27
ENDBRANCH   9  26
TORSDOF 9
ENDMDL
MODEL 8
REMARK VINA RESULT:      -6.9      2.858     10.300
REMARK  Name = 
REMARK  10 active torsions:
REMARK  status: ('A' for Active; 'I' for Inactive)
REMARK    1  A    between atoms: C_2  and  C_3
REMARK    2  A    between atoms: C_3  and  N_4
REMARK    3  A    between atoms: C_5  and  C_7
REMARK    4  A    between atoms: C_14  and  C_15
REMARK    5  A    between atoms: C_16  and  C_17
REMARK    6  A    between atoms: N_23  and  C_24
REMARK    7  A    between atoms: C_24  and  C_25
REMARK    8  A    between atoms: C_25  and  C_26
REMARK    9  A    between atoms: C_30  and  O_31
REMARK   10  A    between atoms: O_31  and  C_32
REMARK                            x       y       z     vdW  Elec       q    Type
REMARK                         _______ _______ _______ _____ _____    ______ ____
ROOT
ATOM      1  C   UNL     1       2.134   5.192  20.478  0.00  0.00    +0.000 A 
ATOM      2  C   UNL     1       2.788   5.451  19.271  0.00  0.00    +0.000 A 
ATOM      3  C   UNL     1       2.731   6.735  18.721  0.00  0.00    +0.000 A 
ATOM      4  C   UNL     1       1.989   7.744  19.360  0.00  0.00    +0.000 A 
ATOM      5  C   UNL     1       1.386   7.491  20.584  0.00  0.00    +0.000 A 
ATOM      6  C   UNL     1       1.535   6.244  21.170  0.00  0.00    +0.000 A 
ATOM      7  N   UNL     1       0.555   8.403  21.229  0.00  0.00    +0.000 NA
ATOM      8  C   UNL     1       0.391   9.593  20.725  0.00  0.00    +0.000 C 
ATOM      9  N   UNL     1       1.025  10.019  19.559  0.00  0.00    +0.000 N 
ATOM     10  C   UNL     1       1.800   9.086  18.734  0.00  0.00    +0.000 C 
ENDROOT
BRANCH   1  12
ATOM     11  N   UNL     1       1.636   2.787  20.109  0.00  0.00    +0.000 N 
ATOM     12  C   UNL     1       2.013   3.796  20.981  0.00  0.00    +0.000 C 
ATOM     13  O   UNL     1       2.295   3.541  22.148  0.00  0.00    +0.000 OA
ATOM     14  H   UNL     1       1.464   1.900  20.562  0.00  0.00    +0.000 HD
BRANCH  11  15
ATOM     15  C   UNL     1       1.275   2.936  18.715  0.00  0.00    +0.000 C 
BRANCH  15  17
ATOM     16  C   UNL     1       3.469   1.937  18.151  0.00  0.00    +0.000 C 
ATOM     17  C   UNL     1       2.203   2.213  17.804  0.00  0.00    +0.000 C 
ENDBRANCH  15  17
ENDBRANCH  11  15
ENDBRANCH   1  12
BRANCH   8  18
ATOM     18  C   UNL     1      -0.605  10.462  21.451  0.00  0.00    +0.000 C 
ATOM     19  C   UNL     1      -0.255  11.405  22.342  0.00  0.00    +0.000 C 
BRANCH  19  20
ATOM     20  C   UNL     1      -1.293  12.161  23.042  0.00  0.00    +0.000 A 
ATOM     21  C   UNL     1      -2.533  11.572  23.314  0.00  0.00    +0.000 A 
ATOM     22  C   UNL     1      -3.558  12.324  23.895  0.00  0.00    +0.000 A 
ATOM     23  C   UNL     1      -3.346  13.665  24.213  0.00  0.00    +0.000 A 
ATOM     24  C   UNL     1      -2.104  14.250  23.969  0.00  0.00    +0.000 A 
ATOM     25  C   UNL     1      -1.079  13.500  23.389  0.00  0.00    +0.000 A 
ENDBRANCH  19  20
ENDBRANCH   8  18
BRANCH   9  26
ATOM     26  C   UNL     1       1.117  11.428  19.167  0.00  0.00    +0.000 C 
BRANCH  26  27
ATOM     27  C   UNL     1      -0.005  11.894  18.228  0.00  0.00    +0.000 C 
BRANCH  27  28
ATOM     28  C   UNL     1      -1.324  12.384  18.794  0.00  0.00    +0.000 A 
ATOM     29  C   UNL     1      -1.464  13.453  19.689  0.00  0.00    +0.000 A 
ATOM     30  C   UNL     1      -2.707  13.765  20.237  0.00  0.00    +0.000 A 
ATOM     31  C   UNL     1      -3.832  13.011  19.904  0.00  0.00    +0.000 A 
ATOM     32  C   UNL     1      -3.721  11.940  19.018  0.00  0.00    +0.000 A 
ATOM     33  C   UNL     1      -2.474  11.637  18.475  0.00  0.00    +0.000 A 
BRANCH  32  34
ATOM     34  O   UNL     1      -4.884  11.262  18.780  0.00  0.00    +0.000 OA
ATOM     35  C   UNL     1      -5.512  11.501  17.526  0.00  0.00    +0.000 C 
ENDBRANCH  32  34
ENDBRANCH  27  28
ENDBRANCH  26  27
ENDBRANCH   9  26
TORSDOF 9
ENDMDL
MODEL 9
REMARK VINA RESULT:      -6.8      2.747      9.454
REMARK  Name = 
REMARK  10 active torsions:
REMARK  status: ('A' for Active; 'I' for Inactive)
REMARK    1  A    between atoms: C_2  and  C_3
REMARK    2  A    between atoms: C_3  and  N_4
REMARK    3  A    between atoms: C_5  and  C_7
REMARK    4  A    between atoms: C_14  and  C_15
REMARK    5  A    between atoms: C_16  and  C_17
REMARK    6  A    between atoms: N_23  and  C_24
REMARK    7  A    between atoms: C_24  and  C_25
REMARK    8  A    between atoms: C_25  and  C_26
REMARK    9  A    between atoms: C_30  and  O_31
REMARK   10  A    between atoms: O_31  and  C_32
REMARK                            x       y       z     vdW  Elec       q    Type
REMARK                         _______ _______ _______ _____ _____    ______ ____
ROOT
ATOM      1  C   UNL     1       4.138   6.550  17.383  0.00  0.00    +0.000 A 
ATOM      2  C   UNL     1       3.862   5.711  18.465  0.00  0.00    +0.000 A 
ATOM      3  C   UNL     1       2.948   6.124  19.439  0.00  0.00    +0.000 A 
ATOM      4  C   UNL     1       2.343   7.390  19.346  0.00  0.00    +0.000 A 
ATOM      5  C   UNL     1       2.585   8.194  18.242  0.00  0.00    +0.000 A 
ATOM      6  C   UNL     1       3.413   7.731  17.232  0.00  0.00    +0.000 A 
ATOM      7  N   UNL     1       2.104   9.496  18.126  0.00  0.00    +0.000 NA
ATOM      8  C   UNL     1       1.312   9.974  19.043  0.00  0.00    +0.000 C 
ATOM      9  N   UNL     1       0.897   9.236  20.150  0.00  0.00    +0.000 N 
ATOM     10  C   UNL     1       1.464   7.914  20.434  0.00  0.00    +0.000 C 
ENDROOT
BRANCH   1  12
ATOM     11  N   UNL     1       6.375   5.572  16.921  0.00  0.00    +0.000 N 
ATOM     12  C   UNL     1       5.247   6.223  16.445  0.00  0.00    +0.000 C 
ATOM     13  O   UNL     1       5.135   6.488  15.252  0.00  0.00    +0.000 OA
ATOM     14  H   UNL     1       7.120   5.500  16.242  0.00  0.00    +0.000 HD
BRANCH  11  15
ATOM     15  C   UNL     1       6.645   5.199  18.293  0.00  0.00    +0.000 C 
BRANCH  15  17
ATOM     16  C   UNL     1       8.089   7.209  18.353  0.00  0.00    +0.000 C 
ATOM     17  C   UNL     1       7.656   6.081  18.936  0.00  0.00    +0.000 C 
ENDBRANCH  15  17
ENDBRANCH  11  15
ENDBRANCH   1  12
BRANCH   8  18
ATOM     18  C   UNL     1       0.933  11.422  18.866  0.00  0.00    +0.000 C 
ATOM     19  C   UNL     1       1.831  12.419  18.778  0.00  0.00    +0.000 C 
BRANCH  19  20
ATOM     20  C   UNL     1       1.370  13.802  18.665  0.00  0.00    +0.000 A 
ATOM     21  C   UNL     1       2.293  14.846  18.538  0.00  0.00    +0.000 A 
ATOM     22  C   UNL     1       1.858  16.174  18.527  0.00  0.00    +0.000 A 
ATOM     23  C   UNL     1       0.499  16.465  18.637  0.00  0.00    +0.000 A 
ATOM     24  C   UNL     1      -0.428  15.428  18.738  0.00  0.00    +0.000 A 
ATOM     25  C   UNL     1       0.005  14.100  18.748  0.00  0.00    +0.000 A 
ENDBRANCH  19  20
ENDBRANCH   8  18
BRANCH   9  26
ATOM     26  C   UNL     1      -0.232   9.630  20.996  0.00  0.00    +0.000 C 
BRANCH  26  27
ATOM     27  C   UNL     1       0.107  10.708  22.036  0.00  0.00    +0.000 C 
BRANCH  27  28
ATOM     28  C   UNL     1      -0.781  11.927  22.193  0.00  0.00    +0.000 A 
ATOM     29  C   UNL     1      -0.324  13.251  22.229  0.00  0.00    +0.000 A 
ATOM     30  C   UNL     1      -1.205  14.302  22.480  0.00  0.00    +0.000 A 
ATOM     31  C   UNL     1      -2.557  14.047  22.706  0.00  0.00    +0.000 A 
ATOM     32  C   UNL     1      -3.038  12.739  22.679  0.00  0.00    +0.000 A 
ATOM     33  C   UNL     1      -2.150  11.697  22.425  0.00  0.00    +0.000 A 
BRANCH  32  34
ATOM     34  O   UNL     1      -4.375  12.608  22.933  0.00  0.00    +0.000 OA
ATOM     35  C   UNL     1      -5.248  12.744  21.818  0.00  0.00    +0.000 C 
ENDBRANCH  32  34
ENDBRANCH  27  28
ENDBRANCH  26  27
ENDBRANCH   9  26
TORSDOF 9
ENDMDL
