MODEL 1
REMARK VINA RESULT:      -8.2      0.000      0.000
REMARK  Name = 
REMARK  7 active torsions:
REMARK  status: ('A' for Active; 'I' for Inactive)
REMARK    1  A    between atoms: C_1  and  O_2
REMARK    2  A    between atoms: O_2  and  C_3
REMARK    3  A    between atoms: C_7  and  C_8
REMARK    4  A    between atoms: C_8  and  C_9
REMARK    5  A    between atoms: C_14  and  C_15
REMARK    6  A    between atoms: C_14  and  C_16
REMARK    7  A    between atoms: C_16  and  O_18
REMARK                            x       y       z     vdW  Elec       q    Type
REMARK                         _______ _______ _______ _____ _____    ______ ____
ROOT
ATOM      1  C   UNL     1       2.207   4.660  19.295  0.00  0.00    +0.000 C 
ATOM      2  C   UNL     1       3.112   4.234  20.499  0.00  0.00    +0.000 C 
ATOM      3  C   UNL     1       2.833   2.751  20.694  0.00  0.00    +0.000 C 
ATOM      4  C   UNL     1       1.351   2.605  20.417  0.00  0.00    +0.000 C 
ATOM      5  C   UNL     1       0.927   3.865  19.662  0.00  0.00    +0.000 C 
ENDROOT
BRANCH   1   6
ATOM      6  C   UNL     1       2.918   4.150  17.990  0.00  0.00    +0.000 C 
ATOM      7  O   UNL     1       2.366   3.304  17.275  0.00  0.00    +0.000 OA
ATOM      8  N   UNL     1       4.147   4.662  17.594  0.00  0.00    +0.000 N 
ATOM      9  C   UNL     1       4.647   4.377  16.257  0.00  0.00    +0.000 C 
ATOM     10  C   UNL     1       6.166   4.356  16.382  0.00  0.00    +0.000 C 
ATOM     11  C   UNL     1       6.464   5.270  17.574  0.00  0.00    +0.000 C 
ATOM     12  C   UNL     1       6.566   6.744  17.169  0.00  0.00    +0.000 C 
ATOM     13  C   UNL     1       5.249   5.009  18.477  0.00  0.00    +0.000 C 
BRANCH  11  14
ATOM     14  C   UNL     1       7.727   4.873  18.332  0.00  0.00    +0.000 C 
ATOM     15  O   UNL     1       8.079   5.394  19.385  0.00  0.00    +0.000 OA
BRANCH  14  16
ATOM     16  O   UNL     1       8.475   3.949  17.717  0.00  0.00    +0.000 OA
ATOM     17  H   UNL     1       9.425   4.161  17.631  0.00  0.00    +0.000 HD
ENDBRANCH  14  16
ENDBRANCH  11  14
ENDBRANCH   1   6
BRANCH   1  22
ATOM     18  C   UNL     1       1.532   8.285  20.476  0.00  0.00    +0.000 A 
ATOM     19  C   UNL     1       1.691   8.999  19.292  0.00  0.00    +0.000 A 
ATOM     20  C   UNL     1       1.984   8.331  18.107  0.00  0.00    +0.000 A 
ATOM     21  C   UNL     1       2.107   6.939  18.099  0.00  0.00    +0.000 A 
ATOM     22  C   UNL     1       1.989   6.186  19.282  0.00  0.00    +0.000 A 
ATOM     23  C   UNL     1       1.707   6.897  20.468  0.00  0.00    +0.000 A 
BRANCH  18  25
ATOM     24  C   UNL     1       0.551  10.280  21.324  0.00  0.00    +0.000 C 
ATOM     25  O   UNL     1       1.225   9.050  21.567  0.00  0.00    +0.000 OA
ENDBRANCH  18  25
ENDBRANCH   1  22
TORSDOF 5
ENDMDL
MODEL 2
REMARK VINA RESULT:      -8.2      0.999      1.527
REMARK  Name = 
REMARK  7 active torsions:
REMARK  status: ('A' for Active; 'I' for Inactive)
REMARK    1  A    between atoms: C_1  and  O_2
REMARK    2  A    between atoms: O_2  and  C_3
REMARK    3  A    between atoms: C_7  and  C_8
REMARK    4  A    between atoms: C_8  and  C_9
REMARK    5  A    between atoms: C_14  and  C_15
REMARK    6  A    between atoms: C_14  and  C_16
REMARK    7  A    between atoms: C_16  and  O_18
REMARK                            x       y       z     vdW  Elec       q    Type
REMARK                         _______ _______ _______ _____ _____    ______ ____
ROOT
ATOM      1  C   UNL     1       2.224   4.668  19.332  0.00  0.00    +0.000 C 
ATOM      2  C   UNL     1       3.139   4.112  20.472  0.00  0.00    +0.000 C 
ATOM      3  C   UNL     1       2.852   2.617  20.513  0.00  0.00    +0.000 C 
ATOM      4  C   UNL     1       1.365   2.511  20.241  0.00  0.00    +0.000 C 
ATOM      5  C   UNL     1       0.942   3.846  19.630  0.00  0.00    +0.000 C 
ENDROOT
BRANCH   1   6
ATOM      6  C   UNL     1       2.914   4.295  17.971  0.00  0.00    +0.000 C 
ATOM      7  O   UNL     1       2.341   3.545  17.171  0.00  0.00    +0.000 OA
ATOM      8  N   UNL     1       4.151   4.826  17.624  0.00  0.00    +0.000 N 
ATOM      9  C   UNL     1       4.636   4.683  16.259  0.00  0.00    +0.000 C 
ATOM     10  C   UNL     1       6.154   4.621  16.366  0.00  0.00    +0.000 C 
ATOM     11  C   UNL     1       6.478   5.389  17.650  0.00  0.00    +0.000 C 
ATOM     12  C   UNL     1       6.606   6.897  17.412  0.00  0.00    +0.000 C 
ATOM     13  C   UNL     1       5.265   5.050  18.530  0.00  0.00    +0.000 C 
BRANCH  11  14
ATOM     14  C   UNL     1       7.739   4.886  18.347  0.00  0.00    +0.000 C 
ATOM     15  O   UNL     1       8.143   5.324  19.419  0.00  0.00    +0.000 OA
BRANCH  14  16
ATOM     16  O   UNL     1       8.424   3.966  17.656  0.00  0.00    +0.000 OA
ATOM     17  H   UNL     1       7.935   3.151  17.434  0.00  0.00    +0.000 HD
ENDBRANCH  14  16
ENDBRANCH  11  14
ENDBRANCH   1   6
BRANCH   1  22
ATOM     18  C   UNL     1       1.968   8.442  18.504  0.00  0.00    +0.000 A 
ATOM     19  C   UNL     1       1.539   8.966  19.720  0.00  0.00    +0.000 A 
ATOM     20  C   UNL     1       1.357   8.130  20.816  0.00  0.00    +0.000 A 
ATOM     21  C   UNL     1       1.617   6.761  20.705  0.00  0.00    +0.000 A 
ATOM     22  C   UNL     1       2.017   6.188  19.484  0.00  0.00    +0.000 A 
ATOM     23  C   UNL     1       2.177   7.063  18.388  0.00  0.00    +0.000 A 
BRANCH  18  25
ATOM     24  C   UNL     1       2.043  10.737  17.880  0.00  0.00    +0.000 C 
ATOM     25  O   UNL     1       2.131   9.365  17.508  0.00  0.00    +0.000 OA
ENDBRANCH  18  25
ENDBRANCH   1  22
TORSDOF 5
ENDMDL
MODEL 3
REMARK VINA RESULT:      -8.2      0.913      1.005
REMARK  Name = 
REMARK  7 active torsions:
REMARK  status: ('A' for Active; 'I' for Inactive)
REMARK    1  A    between atoms: C_1  and  O_2
REMARK    2  A    between atoms: O_2  and  C_3
REMARK    3  A    between atoms: C_7  and  C_8
REMARK    4  A    between atoms: C_8  and  C_9
REMARK    5  A    between atoms: C_14  and  C_15
REMARK    6  A    between atoms: C_14  and  C_16
REMARK    7  A    between atoms: C_16  and  O_18
REMARK                            x       y       z     vdW  Elec       q    Type
REMARK                         _______ _______ _______ _____ _____    ______ ____
ROOT
ATOM      1  C   UNL     1       2.419   4.434  19.386  0.00  0.00    +0.000 C 
ATOM      2  C   UNL     1       2.909   4.143  20.843  0.00  0.00    +0.000 C 
ATOM      3  C   UNL     1       2.601   2.670  21.075  0.00  0.00    +0.000 C 
ATOM      4  C   UNL     1       1.280   2.445  20.368  0.00  0.00    +0.000 C 
ATOM      5  C   UNL     1       1.097   3.623  19.410  0.00  0.00    +0.000 C 
ENDROOT
BRANCH   1   6
ATOM      6  C   UNL     1       3.505   3.849  18.415  0.00  0.00    +0.000 C 
ATOM      7  O   UNL     1       3.336   2.739  17.894  0.00  0.00    +0.000 OA
ATOM      8  N   UNL     1       4.646   4.573  18.091  0.00  0.00    +0.000 N 
ATOM      9  C   UNL     1       5.491   4.131  16.992  0.00  0.00    +0.000 C 
ATOM     10  C   UNL     1       6.905   4.563  17.359  0.00  0.00    +0.000 C 
ATOM     11  C   UNL     1       6.708   5.777  18.270  0.00  0.00    +0.000 C 
ATOM     12  C   UNL     1       6.568   7.083  17.481  0.00  0.00    +0.000 C 
ATOM     13  C   UNL     1       5.409   5.410  19.003  0.00  0.00    +0.000 C 
BRANCH  11  14
ATOM     14  C   UNL     1       7.820   5.937  19.303  0.00  0.00    +0.000 C 
ATOM     15  O   UNL     1       7.968   5.188  20.264  0.00  0.00    +0.000 OA
BRANCH  14  16
ATOM     16  O   UNL     1       8.591   7.017  19.124  0.00  0.00    +0.000 OA
ATOM     17  H   UNL     1       8.443   7.752  19.750  0.00  0.00    +0.000 HD
ENDBRANCH  14  16
ENDBRANCH  11  14
ENDBRANCH   1   6
BRANCH   1  22
ATOM     18  C   UNL     1       1.688   8.175  20.070  0.00  0.00    +0.000 A 
ATOM     19  C   UNL     1       1.892   8.734  18.813  0.00  0.00    +0.000 A 
ATOM     20  C   UNL     1       2.234   7.924  17.735  0.00  0.00    +0.000 A 
ATOM     21  C   UNL     1       2.361   6.542  17.908  0.00  0.00    +0.000 A 
ATOM     22  C   UNL     1       2.198   5.945  19.171  0.00  0.00    +0.000 A 
ATOM     23  C   UNL     1       1.867   6.798  20.246  0.00  0.00    +0.000 A 
BRANCH  18  25
ATOM     24  C   UNL     1       0.324  10.015  20.714  0.00  0.00    +0.000 C 
ATOM     25  O   UNL     1       1.336   9.069  21.044  0.00  0.00    +0.000 OA
ENDBRANCH  18  25
ENDBRANCH   1  22
TORSDOF 5
ENDMDL
MODEL 4
REMARK VINA RESULT:      -7.7      3.142      6.690
REMARK  Name = 
REMARK  7 active torsions:
REMARK  status: ('A' for Active; 'I' for Inactive)
REMARK    1  A    between atoms: C_1  and  O_2
REMARK    2  A    between atoms: O_2  and  C_3
REMARK    3  A    between atoms: C_7  and  C_8
REMARK    4  A    between atoms: C_8  and  C_9
REMARK    5  A    between atoms: C_14  and  C_15
REMARK    6  A    between atoms: C_14  and  C_16
REMARK    7  A    between atoms: C_16  and  O_18
REMARK                            x       y       z     vdW  Elec       q    Type
REMARK                         _______ _______ _______ _____ _____    ______ ____
ROOT
ATOM      1  C   UNL     1       6.562   5.759  16.736  0.00  0.00    +0.000 C 
ATOM      2  C   UNL     1       7.312   4.823  17.741  0.00  0.00    +0.000 C 
ATOM      3  C   UNL     1       7.624   5.706  18.942  0.00  0.00    +0.000 C 
ATOM      4  C   UNL     1       7.963   7.055  18.340  0.00  0.00    +0.000 C 
ATOM      5  C   UNL     1       7.421   7.039  16.911  0.00  0.00    +0.000 C 
ENDROOT
BRANCH   1   6
ATOM      6  C   UNL     1       5.090   5.906  17.263  0.00  0.00    +0.000 C 
ATOM      7  O   UNL     1       4.530   7.009  17.237  0.00  0.00    +0.000 OA
ATOM      8  N   UNL     1       4.379   4.806  17.726  0.00  0.00    +0.000 N 
ATOM      9  C   UNL     1       2.945   4.918  17.949  0.00  0.00    +0.000 C 
ATOM     10  C   UNL     1       2.629   3.961  19.092  0.00  0.00    +0.000 C 
ATOM     11  C   UNL     1       3.721   2.892  19.007  0.00  0.00    +0.000 C 
ATOM     12  C   UNL     1       3.361   1.766  18.031  0.00  0.00    +0.000 C 
ATOM     13  C   UNL     1       4.923   3.711  18.514  0.00  0.00    +0.000 C 
BRANCH  11  14
ATOM     14  C   UNL     1       4.070   2.282  20.361  0.00  0.00    +0.000 C 
ATOM     15  O   UNL     1       3.375   2.411  21.363  0.00  0.00    +0.000 OA
BRANCH  14  16
ATOM     16  O   UNL     1       5.249   1.648  20.395  0.00  0.00    +0.000 OA
ATOM     17  H   UNL     1       5.973   2.072  19.896  0.00  0.00    +0.000 HD
ENDBRANCH  14  16
ENDBRANCH  11  14
ENDBRANCH   1   6
BRANCH   1  22
ATOM     18  C   UNL     1       5.529   4.019  13.435  0.00  0.00    +0.000 A 
ATOM     19  C   UNL     1       6.658   4.221  12.647  0.00  0.00    +0.000 A 
ATOM     20  C   UNL     1       7.764   4.885  13.168  0.00  0.00    +0.000 A 
ATOM     21  C   UNL     1       7.750   5.339  14.490  0.00  0.00    +0.000 A 
ATOM     22  C   UNL     1       6.614   5.186  15.306  0.00  0.00    +0.000 A 
ATOM     23  C   UNL     1       5.504   4.522  14.740  0.00  0.00    +0.000 A 
BRANCH  18  25
ATOM     24  C   UNL     1       4.718   2.973  11.457  0.00  0.00    +0.000 C 
ATOM     25  O   UNL     1       4.516   3.336  12.819  0.00  0.00    +0.000 OA
ENDBRANCH  18  25
ENDBRANCH   1  22
TORSDOF 5
ENDMDL
MODEL 5
REMARK VINA RESULT:      -7.6      1.890      4.472
REMARK  Name = 
REMARK  7 active torsions:
REMARK  status: ('A' for Active; 'I' for Inactive)
REMARK    1  A    between atoms: C_1  and  O_2
REMARK    2  A    between atoms: O_2  and  C_3
REMARK    3  A    between atoms: C_7  and  C_8
REMARK    4  A    between atoms: C_8  and  C_9
REMARK    5  A    between atoms: C_14  and  C_15
REMARK    6  A    between atoms: C_14  and  C_16
REMARK    7  A    between atoms: C_16  and  O_18
REMARK                            x       y       z     vdW  Elec       q    Type
REMARK                         _______ _______ _______ _____ _____    ______ ____
ROOT
ATOM      1  C   UNL     1       4.665   5.970  17.753  0.00  0.00    +0.000 C 
ATOM      2  C   UNL     1       5.442   6.516  16.510  0.00  0.00    +0.000 C 
ATOM      3  C   UNL     1       6.769   5.769  16.517  0.00  0.00    +0.000 C 
ATOM      4  C   UNL     1       7.127   5.648  17.984  0.00  0.00    +0.000 C 
ATOM      5  C   UNL     1       5.839   5.912  18.765  0.00  0.00    +0.000 C 
ENDROOT
BRANCH   1   6
ATOM      6  C   UNL     1       4.101   4.559  17.354  0.00  0.00    +0.000 C 
ATOM      7  O   UNL     1       3.967   4.261  16.160  0.00  0.00    +0.000 OA
ATOM      8  N   UNL     1       3.783   3.613  18.320  0.00  0.00    +0.000 N 
ATOM      9  C   UNL     1       3.526   2.237  17.921  0.00  0.00    +0.000 C 
ATOM     10  C   UNL     1       2.521   1.696  18.931  0.00  0.00    +0.000 C 
ATOM     11  C   UNL     1       2.769   2.522  20.196  0.00  0.00    +0.000 C 
ATOM     12  C   UNL     1       3.885   1.936  21.067  0.00  0.00    +0.000 C 
ATOM     13  C   UNL     1       3.161   3.885  19.606  0.00  0.00    +0.000 C 
BRANCH  11  14
ATOM     14  C   UNL     1       1.516   2.704  21.048  0.00  0.00    +0.000 C 
ATOM     15  O   UNL     1       1.465   2.442  22.245  0.00  0.00    +0.000 OA
BRANCH  14  16
ATOM     16  O   UNL     1       0.437   3.108  20.366  0.00  0.00    +0.000 OA
ATOM     17  H   UNL     1       0.284   4.072  20.347  0.00  0.00    +0.000 HD
ENDBRANCH  14  16
ENDBRANCH  11  14
ENDBRANCH   1   6
BRANCH   1  22
ATOM     18  C   UNL     1       1.939   7.746  19.853  0.00  0.00    +0.000 A 
ATOM     19  C   UNL     1       1.573   8.791  19.009  0.00  0.00    +0.000 A 
ATOM     20  C   UNL     1       2.168   8.921  17.759  0.00  0.00    +0.000 A 
ATOM     21  C   UNL     1       3.126   7.994  17.338  0.00  0.00    +0.000 A 
ATOM     22  C   UNL     1       3.549   6.945  18.177  0.00  0.00    +0.000 A 
ATOM     23  C   UNL     1       2.936   6.853  19.445  0.00  0.00    +0.000 A 
BRANCH  18  25
ATOM     24  C   UNL     1       1.198   8.930  21.779  0.00  0.00    +0.000 C 
ATOM     25  O   UNL     1       1.270   7.712  21.045  0.00  0.00    +0.000 OA
ENDBRANCH  18  25
ENDBRANCH   1  22
TORSDOF 5
ENDMDL
MODEL 6
REMARK VINA RESULT:      -7.5      1.854      2.434
REMARK  Name = 
REMARK  7 active torsions:
REMARK  status: ('A' for Active; 'I' for Inactive)
REMARK    1  A    between atoms: C_1  and  O_2
REMARK    2  A    between atoms: O_2  and  C_3
REMARK    3  A    between atoms: C_7  and  C_8
REMARK    4  A    between atoms: C_8  and  C_9
REMARK    5  A    between atoms: C_14  and  C_15
REMARK    6  A    between atoms: C_14  and  C_16
REMARK    7  A    between atoms: C_16  and  O_18
REMARK                            x       y       z     vdW  Elec       q    Type
REMARK                         _______ _______ _______ _____ _____    ______ ____
ROOT
ATOM      1  C   UNL     1       2.360   5.457  19.025  0.00  0.00    +0.000 C 
ATOM      2  C   UNL     1       1.633   4.766  20.226  0.00  0.00    +0.000 C 
ATOM      3  C   UNL     1       1.621   3.284  19.879  0.00  0.00    +0.000 C 
ATOM      4  C   UNL     1       1.397   3.249  18.380  0.00  0.00    +0.000 C 
ATOM      5  C   UNL     1       1.725   4.650  17.862  0.00  0.00    +0.000 C 
ENDROOT
BRANCH   1   6
ATOM      6  C   UNL     1       3.897   5.196  19.213  0.00  0.00    +0.000 C 
ATOM      7  O   UNL     1       4.419   5.342  20.325  0.00  0.00    +0.000 OA
ATOM      8  N   UNL     1       4.687   4.762  18.155  0.00  0.00    +0.000 N 
ATOM      9  C   UNL     1       6.032   4.271  18.416  0.00  0.00    +0.000 C 
ATOM     10  C   UNL     1       6.844   4.614  17.173  0.00  0.00    +0.000 C 
ATOM     11  C   UNL     1       5.812   4.658  16.043  0.00  0.00    +0.000 C 
ATOM     12  C   UNL     1       5.555   3.276  15.433  0.00  0.00    +0.000 C 
ATOM     13  C   UNL     1       4.574   5.200  16.773  0.00  0.00    +0.000 C 
BRANCH  11  14
ATOM     14  C   UNL     1       6.185   5.632  14.930  0.00  0.00    +0.000 C 
ATOM     15  O   UNL     1       7.161   5.490  14.201  0.00  0.00    +0.000 OA
BRANCH  14  16
ATOM     16  O   UNL     1       5.397   6.711  14.851  0.00  0.00    +0.000 OA
ATOM     17  H   UNL     1       5.770   7.475  14.370  0.00  0.00    +0.000 HD
ENDBRANCH  14  16
ENDBRANCH  11  14
ENDBRANCH   1   6
BRANCH   1  22
ATOM     18  C   UNL     1       1.281   9.021  20.085  0.00  0.00    +0.000 A 
ATOM     19  C   UNL     1       1.510   9.742  18.916  0.00  0.00    +0.000 A 
ATOM     20  C   UNL     1       1.980   9.095  17.778  0.00  0.00    +0.000 A 
ATOM     21  C   UNL     1       2.212   7.717  17.799  0.00  0.00    +0.000 A 
ATOM     22  C   UNL     1       2.026   6.961  18.971  0.00  0.00    +0.000 A 
ATOM     23  C   UNL     1       1.564   7.651  20.112  0.00  0.00    +0.000 A 
BRANCH  18  25
ATOM     24  C   UNL     1       0.964   9.220  22.434  0.00  0.00    +0.000 C 
ATOM     25  O   UNL     1       0.799   9.763  21.128  0.00  0.00    +0.000 OA
ENDBRANCH  18  25
ENDBRANCH   1  22
TORSDOF 5
ENDMDL
MODEL 7
REMARK VINA RESULT:      -7.4      3.164      5.791
REMARK  Name = 
REMARK  7 active torsions:
REMARK  status: ('A' for Active; 'I' for Inactive)
REMARK    1  A    between atoms: C_1  and  O_2
REMARK    2  A    between atoms: O_2  and  C_3
REMARK    3  A    between atoms: C_7  and  C_8
REMARK    4  A    between atoms: C_8  and  C_9
REMARK    5  A    between atoms: C_14  and  C_15
REMARK    6  A    between atoms: C_14  and  C_16
REMARK    7  A    between atoms: C_16  and  O_18
REMARK                            x       y       z     vdW  Elec       q    Type
REMARK                         _______ _______ _______ _____ _____    ______ ____
ROOT
ATOM      1  C   UNL     1       5.860   5.485  16.629  0.00  0.00    +0.000 C 
ATOM      2  C   UNL     1       5.787   5.996  15.152  0.00  0.00    +0.000 C 
ATOM      3  C   UNL     1       5.206   4.832  14.361  0.00  0.00    +0.000 C 
ATOM      4  C   UNL     1       5.820   3.601  14.996  0.00  0.00    +0.000 C 
ATOM      5  C   UNL     1       6.355   4.039  16.359  0.00  0.00    +0.000 C 
ENDROOT
BRANCH   1   6
ATOM      6  C   UNL     1       4.402   5.558  17.208  0.00  0.00    +0.000 C 
ATOM      7  O   UNL     1       3.728   6.585  17.062  0.00  0.00    +0.000 OA
ATOM      8  N   UNL     1       3.829   4.469  17.854  0.00  0.00    +0.000 N 
ATOM      9  C   UNL     1       2.401   4.469  18.136  0.00  0.00    +0.000 C 
ATOM     10  C   UNL     1       2.233   3.656  19.414  0.00  0.00    +0.000 C 
ATOM     11  C   UNL     1       3.427   2.699  19.417  0.00  0.00    +0.000 C 
ATOM     12  C   UNL     1       3.151   1.417  18.624  0.00  0.00    +0.000 C 
ATOM     13  C   UNL     1       4.516   3.556  18.754  0.00  0.00    +0.000 C 
BRANCH  11  14
ATOM     14  C   UNL     1       3.892   2.324  20.821  0.00  0.00    +0.000 C 
ATOM     15  O   UNL     1       4.984   1.821  21.064  0.00  0.00    +0.000 OA
BRANCH  14  16
ATOM     16  O   UNL     1       2.976   2.520  21.778  0.00  0.00    +0.000 OA
ATOM     17  H   UNL     1       2.646   3.435  21.867  0.00  0.00    +0.000 HD
ENDBRANCH  14  16
ENDBRANCH  11  14
ENDBRANCH   1   6
BRANCH   1  22
ATOM     18  C   UNL     1       7.970   8.463  17.919  0.00  0.00    +0.000 A 
ATOM     19  C   UNL     1       8.605   7.900  19.022  0.00  0.00    +0.000 A 
ATOM     20  C   UNL     1       8.389   6.564  19.345  0.00  0.00    +0.000 A 
ATOM     21  C   UNL     1       7.545   5.779  18.555  0.00  0.00    +0.000 A 
ATOM     22  C   UNL     1       6.857   6.322  17.453  0.00  0.00    +0.000 A 
ATOM     23  C   UNL     1       7.087   7.684  17.164  0.00  0.00    +0.000 A 
BRANCH  18  25
ATOM     24  C   UNL     1       9.113  10.418  18.649  0.00  0.00    +0.000 C 
ATOM     25  O   UNL     1       8.278   9.777  17.691  0.00  0.00    +0.000 OA
ENDBRANCH  18  25
ENDBRANCH   1  22
TORSDOF 5
ENDMDL
MODEL 8
REMARK VINA RESULT:      -7.3      2.024      2.699
REMARK  Name = 
REMARK  7 active torsions:
REMARK  status: ('A' for Active; 'I' for Inactive)
REMARK    1  A    between atoms: C_1  and  O_2
REMARK    2  A    between atoms: O_2  and  C_3
REMARK    3  A    between atoms: C_7  and  C_8
REMARK    4  A    between atoms: C_8  and  C_9
REMARK    5  A    between atoms: C_14  and  C_15
REMARK    6  A    between atoms: C_14  and  C_16
REMARK    7  A    between atoms: C_16  and  O_18
REMARK                            x       y       z     vdW  Elec       q    Type
REMARK                         _______ _______ _______ _____ _____    ______ ____
ROOT
ATOM      1  C   UNL     1       2.266   5.118  19.273  0.00  0.00    +0.000 C 
ATOM      2  C   UNL     1       1.510   4.275  20.352  0.00  0.00    +0.000 C 
ATOM      3  C   UNL     1       1.469   2.861  19.791  0.00  0.00    +0.000 C 
ATOM      4  C   UNL     1       1.263   3.052  18.301  0.00  0.00    +0.000 C 
ATOM      5  C   UNL     1       1.628   4.505  17.998  0.00  0.00    +0.000 C 
ENDROOT
BRANCH   1   6
ATOM      6  C   UNL     1       3.795   4.796  19.434  0.00  0.00    +0.000 C 
ATOM      7  O   UNL     1       4.306   4.764  20.561  0.00  0.00    +0.000 OA
ATOM      8  N   UNL     1       4.589   4.504  18.331  0.00  0.00    +0.000 N 
ATOM      9  C   UNL     1       5.919   3.948  18.530  0.00  0.00    +0.000 C 
ATOM     10  C   UNL     1       6.755   4.452  17.359  0.00  0.00    +0.000 C 
ATOM     11  C   UNL     1       5.739   4.686  16.238  0.00  0.00    +0.000 C 
ATOM     12  C   UNL     1       5.458   3.416  15.429  0.00  0.00    +0.000 C 
ATOM     13  C   UNL     1       4.503   5.143  17.028  0.00  0.00    +0.000 C 
BRANCH  11  14
ATOM     14  C   UNL     1       6.146   5.804  15.284  0.00  0.00    +0.000 C 
ATOM     15  O   UNL     1       5.412   6.739  14.980  0.00  0.00    +0.000 OA
BRANCH  14  16
ATOM     16  O   UNL     1       7.358   5.650  14.736  0.00  0.00    +0.000 OA
ATOM     17  H   UNL     1       8.104   5.599  15.364  0.00  0.00    +0.000 HD
ENDBRANCH  14  16
ENDBRANCH  11  14
ENDBRANCH   1   6
BRANCH   1  22
ATOM     18  C   UNL     1       1.845   8.887  18.493  0.00  0.00    +0.000 A 
ATOM     19  C   UNL     1       1.322   9.363  19.691  0.00  0.00    +0.000 A 
ATOM     20  C   UNL     1       1.127   8.498  20.762  0.00  0.00    +0.000 A 
ATOM     21  C   UNL     1       1.469   7.147  20.643  0.00  0.00    +0.000 A 
ATOM     22  C   UNL     1       1.967   6.621  19.437  0.00  0.00    +0.000 A 
ATOM     23  C   UNL     1       2.137   7.524  18.366  0.00  0.00    +0.000 A 
BRANCH  18  25
ATOM     24  C   UNL     1       2.230  11.173  17.960  0.00  0.00    +0.000 C 
ATOM     25  O   UNL     1       2.010   9.837  17.523  0.00  0.00    +0.000 OA
ENDBRANCH  18  25
ENDBRANCH   1  22
TORSDOF 5
ENDMDL
MODEL 9
REMARK VINA RESULT:      -7.2      2.913      6.719
REMARK  Name = 
REMARK  7 active torsions:
REMARK  status: ('A' for Active; 'I' for Inactive)
REMARK    1  A    between atoms: C_1  and  O_2
REMARK    2  A    between atoms: O_2  and  C_3
REMARK    3  A    between atoms: C_7  and  C_8
REMARK    4  A    between atoms: C_8  and  C_9
REMARK    5  A    between atoms: C_14  and  C_15
REMARK    6  A    between atoms: C_14  and  C_16
REMARK    7  A    between atoms: C_16  and  O_18
REMARK                            x       y       z     vdW  Elec       q    Type
REMARK                         _______ _______ _______ _____ _____    ______ ____
ROOT
ATOM      1  C   UNL     1       6.397   5.735  17.152  0.00  0.00    +0.000 C 
ATOM      2  C   UNL     1       7.215   4.836  18.138  0.00  0.00    +0.000 C 
ATOM      3  C   UNL     1       7.682   5.782  19.236  0.00  0.00    +0.000 C 
ATOM      4  C   UNL     1       8.003   7.073  18.511  0.00  0.00    +0.000 C 
ATOM      5  C   UNL     1       7.314   6.986  17.149  0.00  0.00    +0.000 C 
ENDROOT
BRANCH   1   6
ATOM      6  C   UNL     1       4.994   5.978  17.816  0.00  0.00    +0.000 C 
ATOM      7  O   UNL     1       4.529   7.123  17.877  0.00  0.00    +0.000 OA
ATOM      8  N   UNL     1       4.237   4.920  18.304  0.00  0.00    +0.000 N 
ATOM      9  C   UNL     1       2.842   5.139  18.660  0.00  0.00    +0.000 C 
ATOM     10  C   UNL     1       2.549   4.164  19.794  0.00  0.00    +0.000 C 
ATOM     11  C   UNL     1       3.536   3.014  19.574  0.00  0.00    +0.000 C 
ATOM     12  C   UNL     1       2.999   1.963  18.597  0.00  0.00    +0.000 C 
ATOM     13  C   UNL     1       4.754   3.755  19.002  0.00  0.00    +0.000 C 
BRANCH  11  14
ATOM     14  C   UNL     1       3.950   2.324  20.870  0.00  0.00    +0.000 C 
ATOM     15  O   UNL     1       5.016   1.733  21.014  0.00  0.00    +0.000 OA
BRANCH  14  16
ATOM     16  O   UNL     1       3.020   2.347  21.832  0.00  0.00    +0.000 OA
ATOM     17  H   UNL     1       3.354   2.469  22.742  0.00  0.00    +0.000 HD
ENDBRANCH  14  16
ENDBRANCH  11  14
ENDBRANCH   1   6
BRANCH   1  22
ATOM     18  C   UNL     1       7.073   4.794  13.458  0.00  0.00    +0.000 A 
ATOM     19  C   UNL     1       6.144   3.778  13.254  0.00  0.00    +0.000 A 
ATOM     20  C   UNL     1       5.279   3.406  14.277  0.00  0.00    +0.000 A 
ATOM     21  C   UNL     1       5.330   4.060  15.511  0.00  0.00    +0.000 A 
ATOM     22  C   UNL     1       6.279   5.068  15.768  0.00  0.00    +0.000 A 
ATOM     23  C   UNL     1       7.152   5.409  14.712  0.00  0.00    +0.000 A 
BRANCH  18  25
ATOM     24  C   UNL     1       8.890   6.040  12.559  0.00  0.00    +0.000 C 
ATOM     25  O   UNL     1       7.852   5.084  12.371  0.00  0.00    +0.000 OA
ENDBRANCH  18  25
ENDBRANCH   1  22
TORSDOF 5
ENDMDL
