MODEL 1
REMARK VINA RESULT:      -8.1      0.000      0.000
REMARK  Name = 
REMARK  10 active torsions:
REMARK  status: ('A' for Active; 'I' for Inactive)
REMARK    1  A    between atoms: C_1  and  C_2
REMARK    2  A    between atoms: C_2  and  N_3
REMARK    3  A    between atoms: C_2  and  C_25
REMARK    4  A    between atoms: N_3  and  S_4
REMARK    5  A    between atoms: S_4  and  C_7
REMARK    6  A    between atoms: C_10  and  O_11
REMARK    7  A    between atoms: O_11  and  C_12
REMARK    8  A    between atoms: C_12  and  C_13
REMARK    9  A    between atoms: N_15  and  C_16
REMARK   10  A    between atoms: C_16  and  C_17
REMARK                            x       y       z     vdW  Elec       q    Type
REMARK                         _______ _______ _______ _____ _____    ______ ____
ROOT
ATOM      1  C   UNL     1       2.564   4.538  18.699  0.00  0.00    +0.000 A 
ATOM      2  C   UNL     1       2.477   5.770  18.032  0.00  0.00    +0.000 A 
ATOM      3  C   UNL     1       2.263   6.930  18.775  0.00  0.00    +0.000 A 
ATOM      4  C   UNL     1       2.106   6.864  20.161  0.00  0.00    +0.000 A 
ATOM      5  C   UNL     1       2.167   5.627  20.809  0.00  0.00    +0.000 A 
ATOM      6  C   UNL     1       2.383   4.463  20.076  0.00  0.00    +0.000 A 
ENDROOT
BRANCH   1   7
ATOM      7  S   UNL     1       3.007   3.067  17.804  0.00  0.00    +0.000 S 
ATOM      8  O   UNL     1       2.300   3.093  16.556  0.00  0.00    +0.000 OA
ATOM      9  O   UNL     1       2.870   1.972  18.746  0.00  0.00    +0.000 OA
BRANCH   7  10
ATOM     10  N   UNL     1       4.679   3.298  17.540  0.00  0.00    +0.000 NA
ATOM     11  H   UNL     1       5.209   3.242  18.412  0.00  0.00    +0.000 HD
BRANCH  10  13
ATOM     12  C   UNL     1       5.606   3.977  15.366  0.00  0.00    +0.000 C 
ATOM     13  C   UNL     1       5.111   4.479  16.727  0.00  0.00    +0.000 C 
BRANCH  13  14
ATOM     14  C   UNL     1       6.091   5.413  17.435  0.00  0.00    +0.000 A 
ATOM     15  C   UNL     1       6.290   6.721  16.965  0.00  0.00    +0.000 A 
ATOM     16  C   UNL     1       7.286   7.544  17.491  0.00  0.00    +0.000 A 
ATOM     17  C   UNL     1       8.074   7.092  18.539  0.00  0.00    +0.000 A 
ATOM     18  C   UNL     1       7.846   5.827  19.077  0.00  0.00    +0.000 A 
ATOM     19  C   UNL     1       6.854   4.996  18.541  0.00  0.00    +0.000 A 
ENDBRANCH  13  14
ENDBRANCH  10  13
ENDBRANCH   7  10
ENDBRANCH   1   7
BRANCH   4  20
ATOM     20  O   UNL     1       1.963   8.077  20.779  0.00  0.00    +0.000 OA
BRANCH  20  21
ATOM     21  C   UNL     1       0.674   8.375  21.301  0.00  0.00    +0.000 C 
BRANCH  21  22
ATOM     22  C   UNL     1       0.084   9.704  20.828  0.00  0.00    +0.000 C 
ATOM     23  O   UNL     1      -0.304  10.560  21.621  0.00  0.00    +0.000 OA
ATOM     24  N   UNL     1       0.080   9.885  19.469  0.00  0.00    +0.000 N 
ATOM     25  H   UNL     1       0.209   9.072  18.873  0.00  0.00    +0.000 HD
BRANCH  24  26
ATOM     26  C   UNL     1      -0.359  11.121  18.869  0.00  0.00    +0.000 C 
BRANCH  26  27
ATOM     27  C   UNL     1      -1.694  10.981  18.181  0.00  0.00    +0.000 A 
ATOM     28  C   UNL     1      -2.804  11.684  18.645  0.00  0.00    +0.000 A 
ATOM     29  C   UNL     1      -4.017  11.539  17.979  0.00  0.00    +0.000 A 
ATOM     30  C   UNL     1      -4.096  10.683  16.887  0.00  0.00    +0.000 A 
ATOM     31  C   UNL     1      -2.951  10.003  16.508  0.00  0.00    +0.000 A 
ATOM     32  N   UNL     1      -1.756  10.130  17.125  0.00  0.00    +0.000 NA
ENDBRANCH  26  27
ENDBRANCH  24  26
ENDBRANCH  21  22
ENDBRANCH  20  21
ENDBRANCH   4  20
TORSDOF 9
ENDMDL
MODEL 2
REMARK VINA RESULT:      -7.9      4.490      7.746
REMARK  Name = 
REMARK  10 active torsions:
REMARK  status: ('A' for Active; 'I' for Inactive)
REMARK    1  A    between atoms: C_1  and  C_2
REMARK    2  A    between atoms: C_2  and  N_3
REMARK    3  A    between atoms: C_2  and  C_25
REMARK    4  A    between atoms: N_3  and  S_4
REMARK    5  A    between atoms: S_4  and  C_7
REMARK    6  A    between atoms: C_10  and  O_11
REMARK    7  A    between atoms: O_11  and  C_12
REMARK    8  A    between atoms: C_12  and  C_13
REMARK    9  A    between atoms: N_15  and  C_16
REMARK   10  A    between atoms: C_16  and  C_17
REMARK                            x       y       z     vdW  Elec       q    Type
REMARK                         _______ _______ _______ _____ _____    ______ ____
ROOT
ATOM      1  C   UNL     1       5.602   5.107  17.980  0.00  0.00    +0.000 A 
ATOM      2  C   UNL     1       6.755   5.331  18.749  0.00  0.00    +0.000 A 
ATOM      3  C   UNL     1       7.520   6.471  18.508  0.00  0.00    +0.000 A 
ATOM      4  C   UNL     1       7.162   7.362  17.494  0.00  0.00    +0.000 A 
ATOM      5  C   UNL     1       6.026   7.112  16.718  0.00  0.00    +0.000 A 
ATOM      6  C   UNL     1       5.255   5.978  16.953  0.00  0.00    +0.000 A 
ENDROOT
BRANCH   1   7
ATOM      7  S   UNL     1       4.512   3.759  18.377  0.00  0.00    +0.000 S 
ATOM      8  O   UNL     1       4.980   3.173  19.600  0.00  0.00    +0.000 OA
ATOM      9  O   UNL     1       4.375   2.988  17.155  0.00  0.00    +0.000 OA
BRANCH   7  10
ATOM     10  N   UNL     1       3.027   4.562  18.636  0.00  0.00    +0.000 NA
ATOM     11  H   UNL     1       2.684   5.003  17.781  0.00  0.00    +0.000 HD
BRANCH  10  13
ATOM     12  C   UNL     1       2.232   4.764  20.954  0.00  0.00    +0.000 C 
ATOM     13  C   UNL     1       2.923   5.499  19.799  0.00  0.00    +0.000 C 
BRANCH  13  14
ATOM     14  C   UNL     1       2.301   6.854  19.469  0.00  0.00    +0.000 A 
ATOM     15  C   UNL     1       2.373   7.371  18.165  0.00  0.00    +0.000 A 
ATOM     16  C   UNL     1       1.953   8.666  17.866  0.00  0.00    +0.000 A 
ATOM     17  C   UNL     1       1.401   9.460  18.861  0.00  0.00    +0.000 A 
ATOM     18  C   UNL     1       1.245   8.946  20.146  0.00  0.00    +0.000 A 
ATOM     19  C   UNL     1       1.677   7.649  20.449  0.00  0.00    +0.000 A 
ENDBRANCH  13  14
ENDBRANCH  10  13
ENDBRANCH   7  10
ENDBRANCH   1   7
BRANCH   4  20
ATOM     20  O   UNL     1       7.960   8.471  17.399  0.00  0.00    +0.000 OA
BRANCH  20  21
ATOM     21  C   UNL     1       8.751   8.783  18.539  0.00  0.00    +0.000 C 
BRANCH  21  22
ATOM     22  C   UNL     1       9.003  10.276  18.752  0.00  0.00    +0.000 C 
ATOM     23  O   UNL     1       8.694  11.114  17.905  0.00  0.00    +0.000 OA
ATOM     24  N   UNL     1       9.539  10.606  19.970  0.00  0.00    +0.000 N 
ATOM     25  H   UNL     1       9.964   9.869  20.526  0.00  0.00    +0.000 HD
BRANCH  24  26
ATOM     26  C   UNL     1       9.753  11.978  20.360  0.00  0.00    +0.000 C 
BRANCH  26  27
ATOM     27  C   UNL     1       8.718  12.462  21.345  0.00  0.00    +0.000 A 
ATOM     28  C   UNL     1       8.369  11.680  22.443  0.00  0.00    +0.000 A 
ATOM     29  C   UNL     1       7.419  12.163  23.337  0.00  0.00    +0.000 A 
ATOM     30  C   UNL     1       6.829  13.399  23.101  0.00  0.00    +0.000 A 
ATOM     31  C   UNL     1       7.216  14.101  21.971  0.00  0.00    +0.000 A 
ATOM     32  N   UNL     1       8.143  13.665  21.091  0.00  0.00    +0.000 NA
ENDBRANCH  26  27
ENDBRANCH  24  26
ENDBRANCH  21  22
ENDBRANCH  20  21
ENDBRANCH   4  20
TORSDOF 9
ENDMDL
MODEL 3
REMARK VINA RESULT:      -7.9      1.704      2.864
REMARK  Name = 
REMARK  10 active torsions:
REMARK  status: ('A' for Active; 'I' for Inactive)
REMARK    1  A    between atoms: C_1  and  C_2
REMARK    2  A    between atoms: C_2  and  N_3
REMARK    3  A    between atoms: C_2  and  C_25
REMARK    4  A    between atoms: N_3  and  S_4
REMARK    5  A    between atoms: S_4  and  C_7
REMARK    6  A    between atoms: C_10  and  O_11
REMARK    7  A    between atoms: O_11  and  C_12
REMARK    8  A    between atoms: C_12  and  C_13
REMARK    9  A    between atoms: N_15  and  C_16
REMARK   10  A    between atoms: C_16  and  C_17
REMARK                            x       y       z     vdW  Elec       q    Type
REMARK                         _______ _______ _______ _____ _____    ______ ____
ROOT
ATOM      1  C   UNL     1       3.409   4.926  18.907  0.00  0.00    +0.000 A 
ATOM      2  C   UNL     1       3.117   6.227  18.468  0.00  0.00    +0.000 A 
ATOM      3  C   UNL     1       2.269   7.026  19.233  0.00  0.00    +0.000 A 
ATOM      4  C   UNL     1       1.693   6.530  20.404  0.00  0.00    +0.000 A 
ATOM      5  C   UNL     1       1.971   5.222  20.814  0.00  0.00    +0.000 A 
ATOM      6  C   UNL     1       2.818   4.417  20.058  0.00  0.00    +0.000 A 
ENDROOT
BRANCH   1   7
ATOM      7  S   UNL     1       4.619   3.945  18.049  0.00  0.00    +0.000 S 
ATOM      8  O   UNL     1       3.948   2.784  17.537  0.00  0.00    +0.000 OA
ATOM      9  O   UNL     1       5.756   3.846  18.944  0.00  0.00    +0.000 OA
BRANCH   7  10
ATOM     10  N   UNL     1       5.075   4.978  16.766  0.00  0.00    +0.000 NA
ATOM     11  H   UNL     1       4.421   4.916  15.984  0.00  0.00    +0.000 HD
BRANCH  10  13
ATOM     12  C   UNL     1       7.235   6.150  16.833  0.00  0.00    +0.000 C 
ATOM     13  C   UNL     1       6.491   4.926  16.286  0.00  0.00    +0.000 C 
BRANCH  13  14
ATOM     14  C   UNL     1       6.644   4.734  14.778  0.00  0.00    +0.000 A 
ATOM     15  C   UNL     1       5.879   3.768  14.104  0.00  0.00    +0.000 A 
ATOM     16  C   UNL     1       6.103   3.463  12.762  0.00  0.00    +0.000 A 
ATOM     17  C   UNL     1       7.067   4.158  12.047  0.00  0.00    +0.000 A 
ATOM     18  C   UNL     1       7.787   5.175  12.669  0.00  0.00    +0.000 A 
ATOM     19  C   UNL     1       7.570   5.474  14.020  0.00  0.00    +0.000 A 
ENDBRANCH  13  14
ENDBRANCH  10  13
ENDBRANCH   7  10
ENDBRANCH   1   7
BRANCH   4  20
ATOM     20  O   UNL     1       0.930   7.432  21.094  0.00  0.00    +0.000 OA
BRANCH  20  21
ATOM     21  C   UNL     1       1.515   8.706  21.334  0.00  0.00    +0.000 C 
BRANCH  21  22
ATOM     22  C   UNL     1       0.626   9.896  20.972  0.00  0.00    +0.000 C 
ATOM     23  O   UNL     1      -0.072  10.463  21.812  0.00  0.00    +0.000 OA
ATOM     24  N   UNL     1       0.715  10.311  19.668  0.00  0.00    +0.000 N 
ATOM     25  H   UNL     1       1.132   9.681  18.989  0.00  0.00    +0.000 HD
BRANCH  24  26
ATOM     26  C   UNL     1       0.009  11.475  19.192  0.00  0.00    +0.000 C 
BRANCH  26  27
ATOM     27  C   UNL     1      -1.336  11.128  18.602  0.00  0.00    +0.000 A 
ATOM     28  C   UNL     1      -1.453  10.098  17.671  0.00  0.00    +0.000 A 
ATOM     29  C   UNL     1      -2.710   9.799  17.156  0.00  0.00    +0.000 A 
ATOM     30  C   UNL     1      -3.808  10.547  17.564  0.00  0.00    +0.000 A 
ATOM     31  C   UNL     1      -3.599  11.570  18.474  0.00  0.00    +0.000 A 
ATOM     32  N   UNL     1      -2.394  11.878  19.001  0.00  0.00    +0.000 NA
ENDBRANCH  26  27
ENDBRANCH  24  26
ENDBRANCH  21  22
ENDBRANCH  20  21
ENDBRANCH   4  20
TORSDOF 9
ENDMDL
MODEL 4
REMARK VINA RESULT:      -7.8      1.902      2.570
REMARK  Name = 
REMARK  10 active torsions:
REMARK  status: ('A' for Active; 'I' for Inactive)
REMARK    1  A    between atoms: C_1  and  C_2
REMARK    2  A    between atoms: C_2  and  N_3
REMARK    3  A    between atoms: C_2  and  C_25
REMARK    4  A    between atoms: N_3  and  S_4
REMARK    5  A    between atoms: S_4  and  C_7
REMARK    6  A    between atoms: C_10  and  O_11
REMARK    7  A    between atoms: O_11  and  C_12
REMARK    8  A    between atoms: C_12  and  C_13
REMARK    9  A    between atoms: N_15  and  C_16
REMARK   10  A    between atoms: C_16  and  C_17
REMARK                            x       y       z     vdW  Elec       q    Type
REMARK                         _______ _______ _______ _____ _____    ______ ____
ROOT
ATOM      1  C   UNL     1       2.838   4.290  18.753  0.00  0.00    +0.000 A 
ATOM      2  C   UNL     1       2.531   4.097  20.110  0.00  0.00    +0.000 A 
ATOM      3  C   UNL     1       2.061   5.175  20.858  0.00  0.00    +0.000 A 
ATOM      4  C   UNL     1       1.926   6.436  20.276  0.00  0.00    +0.000 A 
ATOM      5  C   UNL     1       2.262   6.620  18.931  0.00  0.00    +0.000 A 
ATOM      6  C   UNL     1       2.730   5.550  18.174  0.00  0.00    +0.000 A 
ENDROOT
BRANCH   1   7
ATOM      7  S   UNL     1       3.272   2.901  17.730  0.00  0.00    +0.000 S 
ATOM      8  O   UNL     1       2.530   3.020  16.507  0.00  0.00    +0.000 OA
ATOM      9  O   UNL     1       3.170   1.733  18.584  0.00  0.00    +0.000 OA
BRANCH   7  10
ATOM     10  N   UNL     1       4.933   3.173  17.442  0.00  0.00    +0.000 NA
ATOM     11  H   UNL     1       5.474   3.145  18.308  0.00  0.00    +0.000 HD
BRANCH  10  13
ATOM     12  C   UNL     1       5.732   3.849  15.217  0.00  0.00    +0.000 C 
ATOM     13  C   UNL     1       5.323   4.353  16.606  0.00  0.00    +0.000 C 
BRANCH  13  14
ATOM     14  C   UNL     1       6.350   5.279  17.254  0.00  0.00    +0.000 A 
ATOM     15  C   UNL     1       7.012   4.892  18.431  0.00  0.00    +0.000 A 
ATOM     16  C   UNL     1       7.838   5.773  19.130  0.00  0.00    +0.000 A 
ATOM     17  C   UNL     1       8.061   7.050  18.636  0.00  0.00    +0.000 A 
ATOM     18  C   UNL     1       7.479   7.434  17.429  0.00  0.00    +0.000 A 
ATOM     19  C   UNL     1       6.641   6.553  16.734  0.00  0.00    +0.000 A 
ENDBRANCH  13  14
ENDBRANCH  10  13
ENDBRANCH   7  10
ENDBRANCH   1   7
BRANCH   4  20
ATOM     20  O   UNL     1       1.399   7.394  21.100  0.00  0.00    +0.000 OA
BRANCH  20  21
ATOM     21  C   UNL     1       1.230   8.690  20.538  0.00  0.00    +0.000 C 
BRANCH  21  22
ATOM     22  C   UNL     1       0.904   9.787  21.552  0.00  0.00    +0.000 C 
ATOM     23  O   UNL     1       1.437   9.825  22.661  0.00  0.00    +0.000 OA
ATOM     24  N   UNL     1       0.029  10.745  21.109  0.00  0.00    +0.000 N 
ATOM     25  H   UNL     1      -0.531  10.544  20.284  0.00  0.00    +0.000 HD
BRANCH  24  26
ATOM     26  C   UNL     1      -0.310  11.894  21.911  0.00  0.00    +0.000 C 
BRANCH  26  27
ATOM     27  C   UNL     1      -1.778  12.235  21.835  0.00  0.00    +0.000 A 
ATOM     28  C   UNL     1      -2.551  12.289  22.993  0.00  0.00    +0.000 A 
ATOM     29  C   UNL     1      -3.898  12.617  22.885  0.00  0.00    +0.000 A 
ATOM     30  C   UNL     1      -4.442  12.857  21.629  0.00  0.00    +0.000 A 
ATOM     31  C   UNL     1      -3.609  12.757  20.528  0.00  0.00    +0.000 A 
ATOM     32  N   UNL     1      -2.295  12.453  20.599  0.00  0.00    +0.000 NA
ENDBRANCH  26  27
ENDBRANCH  24  26
ENDBRANCH  21  22
ENDBRANCH  20  21
ENDBRANCH   4  20
TORSDOF 9
ENDMDL
MODEL 5
REMARK VINA RESULT:      -7.8      1.029      1.045
REMARK  Name = 
REMARK  10 active torsions:
REMARK  status: ('A' for Active; 'I' for Inactive)
REMARK    1  A    between atoms: C_1  and  C_2
REMARK    2  A    between atoms: C_2  and  N_3
REMARK    3  A    between atoms: C_2  and  C_25
REMARK    4  A    between atoms: N_3  and  S_4
REMARK    5  A    between atoms: S_4  and  C_7
REMARK    6  A    between atoms: C_10  and  O_11
REMARK    7  A    between atoms: O_11  and  C_12
REMARK    8  A    between atoms: C_12  and  C_13
REMARK    9  A    between atoms: N_15  and  C_16
REMARK   10  A    between atoms: C_16  and  C_17
REMARK                            x       y       z     vdW  Elec       q    Type
REMARK                         _______ _______ _______ _____ _____    ______ ____
ROOT
ATOM      1  C   UNL     1       2.931   4.373  18.544  0.00  0.00    +0.000 A 
ATOM      2  C   UNL     1       2.101   5.195  17.764  0.00  0.00    +0.000 A 
ATOM      3  C   UNL     1       1.848   6.499  18.187  0.00  0.00    +0.000 A 
ATOM      4  C   UNL     1       2.386   6.972  19.385  0.00  0.00    +0.000 A 
ATOM      5  C   UNL     1       3.189   6.133  20.166  0.00  0.00    +0.000 A 
ATOM      6  C   UNL     1       3.450   4.830  19.750  0.00  0.00    +0.000 A 
ENDROOT
BRANCH   1   7
ATOM      7  S   UNL     1       3.413   2.769  17.947  0.00  0.00    +0.000 S 
ATOM      8  O   UNL     1       2.504   2.409  16.897  0.00  0.00    +0.000 OA
ATOM      9  O   UNL     1       3.594   1.945  19.127  0.00  0.00    +0.000 OA
BRANCH   7  10
ATOM     10  N   UNL     1       4.966   3.077  17.304  0.00  0.00    +0.000 NA
ATOM     11  H   UNL     1       5.698   2.918  17.998  0.00  0.00    +0.000 HD
BRANCH  10  13
ATOM     12  C   UNL     1       5.617   4.050  15.141  0.00  0.00    +0.000 C 
ATOM     13  C   UNL     1       5.187   4.368  16.578  0.00  0.00    +0.000 C 
BRANCH  13  14
ATOM     14  C   UNL     1       6.112   5.349  17.296  0.00  0.00    +0.000 A 
ATOM     15  C   UNL     1       6.200   6.684  16.870  0.00  0.00    +0.000 A 
ATOM     16  C   UNL     1       7.144   7.563  17.402  0.00  0.00    +0.000 A 
ATOM     17  C   UNL     1       7.991   7.136  18.414  0.00  0.00    +0.000 A 
ATOM     18  C   UNL     1       7.873   5.840  18.911  0.00  0.00    +0.000 A 
ATOM     19  C   UNL     1       6.933   4.954  18.369  0.00  0.00    +0.000 A 
ENDBRANCH  13  14
ENDBRANCH  10  13
ENDBRANCH   7  10
ENDBRANCH   1   7
BRANCH   4  20
ATOM     20  O   UNL     1       2.113   8.285  19.657  0.00  0.00    +0.000 OA
BRANCH  20  21
ATOM     21  C   UNL     1       1.529   9.042  18.604  0.00  0.00    +0.000 C 
BRANCH  21  22
ATOM     22  C   UNL     1       0.426  10.006  19.046  0.00  0.00    +0.000 C 
ATOM     23  O   UNL     1      -0.162   9.871  20.118  0.00  0.00    +0.000 OA
ATOM     24  N   UNL     1       0.193  11.051  18.190  0.00  0.00    +0.000 N 
ATOM     25  H   UNL     1       0.550  10.987  17.240  0.00  0.00    +0.000 HD
BRANCH  24  26
ATOM     26  C   UNL     1      -0.751  12.095  18.505  0.00  0.00    +0.000 C 
BRANCH  26  27
ATOM     27  C   UNL     1      -2.148  11.765  18.039  0.00  0.00    +0.000 A 
ATOM     28  C   UNL     1      -3.231  11.904  18.903  0.00  0.00    +0.000 A 
ATOM     29  C   UNL     1      -4.506  11.601  18.436  0.00  0.00    +0.000 A 
ATOM     30  C   UNL     1      -4.662  11.147  17.132  0.00  0.00    +0.000 A 
ATOM     31  C   UNL     1      -3.529  11.013  16.347  0.00  0.00    +0.000 A 
ATOM     32  N   UNL     1      -2.279  11.310  16.767  0.00  0.00    +0.000 NA
ENDBRANCH  26  27
ENDBRANCH  24  26
ENDBRANCH  21  22
ENDBRANCH  20  21
ENDBRANCH   4  20
TORSDOF 9
ENDMDL
MODEL 6
REMARK VINA RESULT:      -7.8      0.907      1.555
REMARK  Name = 
REMARK  10 active torsions:
REMARK  status: ('A' for Active; 'I' for Inactive)
REMARK    1  A    between atoms: C_1  and  C_2
REMARK    2  A    between atoms: C_2  and  N_3
REMARK    3  A    between atoms: C_2  and  C_25
REMARK    4  A    between atoms: N_3  and  S_4
REMARK    5  A    between atoms: S_4  and  C_7
REMARK    6  A    between atoms: C_10  and  O_11
REMARK    7  A    between atoms: O_11  and  C_12
REMARK    8  A    between atoms: C_12  and  C_13
REMARK    9  A    between atoms: N_15  and  C_16
REMARK   10  A    between atoms: C_16  and  C_17
REMARK                            x       y       z     vdW  Elec       q    Type
REMARK                         _______ _______ _______ _____ _____    ______ ____
ROOT
ATOM      1  C   UNL     1       2.850   4.796  18.706  0.00  0.00    +0.000 A 
ATOM      2  C   UNL     1       2.574   4.846  20.082  0.00  0.00    +0.000 A 
ATOM      3  C   UNL     1       2.213   6.063  20.657  0.00  0.00    +0.000 A 
ATOM      4  C   UNL     1       2.157   7.223  19.883  0.00  0.00    +0.000 A 
ATOM      5  C   UNL     1       2.461   7.164  18.519  0.00  0.00    +0.000 A 
ATOM      6  C   UNL     1       2.819   5.953  17.935  0.00  0.00    +0.000 A 
ENDROOT
BRANCH   1   7
ATOM      7  S   UNL     1       3.142   3.233  17.910  0.00  0.00    +0.000 S 
ATOM      8  O   UNL     1       2.345   3.201  16.717  0.00  0.00    +0.000 OA
ATOM      9  O   UNL     1       3.015   2.229  18.950  0.00  0.00    +0.000 OA
BRANCH   7  10
ATOM     10  N   UNL     1       4.800   3.338  17.510  0.00  0.00    +0.000 NA
ATOM     11  H   UNL     1       5.393   3.241  18.337  0.00  0.00    +0.000 HD
BRANCH  10  13
ATOM     12  C   UNL     1       5.635   3.943  15.278  0.00  0.00    +0.000 C 
ATOM     13  C   UNL     1       5.251   4.485  16.660  0.00  0.00    +0.000 C 
BRANCH  13  14
ATOM     14  C   UNL     1       6.324   5.365  17.298  0.00  0.00    +0.000 A 
ATOM     15  C   UNL     1       6.955   4.966  18.488  0.00  0.00    +0.000 A 
ATOM     16  C   UNL     1       7.823   5.812  19.176  0.00  0.00    +0.000 A 
ATOM     17  C   UNL     1       8.121   7.065  18.659  0.00  0.00    +0.000 A 
ATOM     18  C   UNL     1       7.570   7.456  17.441  0.00  0.00    +0.000 A 
ATOM     19  C   UNL     1       6.689   6.611  16.756  0.00  0.00    +0.000 A 
ENDBRANCH  13  14
ENDBRANCH  10  13
ENDBRANCH   7  10
ENDBRANCH   1   7
BRANCH   4  20
ATOM     20  O   UNL     1       1.732   8.339  20.553  0.00  0.00    +0.000 OA
BRANCH  20  21
ATOM     21  C   UNL     1       0.373   8.713  20.363  0.00  0.00    +0.000 C 
BRANCH  21  22
ATOM     22  C   UNL     1       0.168   9.957  19.497  0.00  0.00    +0.000 C 
ATOM     23  O   UNL     1       0.822  10.149  18.473  0.00  0.00    +0.000 OA
ATOM     24  N   UNL     1      -0.830  10.798  19.918  0.00  0.00    +0.000 N 
ATOM     25  H   UNL     1      -1.176  10.700  20.868  0.00  0.00    +0.000 HD
BRANCH  24  26
ATOM     26  C   UNL     1      -1.207  11.967  19.161  0.00  0.00    +0.000 C 
BRANCH  26  27
ATOM     27  C   UNL     1      -2.436  11.732  18.318  0.00  0.00    +0.000 A 
ATOM     28  C   UNL     1      -3.707  11.853  18.875  0.00  0.00    +0.000 A 
ATOM     29  C   UNL     1      -4.817  11.640  18.065  0.00  0.00    +0.000 A 
ATOM     30  C   UNL     1      -4.631  11.291  16.733  0.00  0.00    +0.000 A 
ATOM     31  C   UNL     1      -3.333  11.168  16.266  0.00  0.00    +0.000 A 
ATOM     32  N   UNL     1      -2.234  11.379  17.023  0.00  0.00    +0.000 NA
ENDBRANCH  26  27
ENDBRANCH  24  26
ENDBRANCH  21  22
ENDBRANCH  20  21
ENDBRANCH   4  20
TORSDOF 9
ENDMDL
MODEL 7
REMARK VINA RESULT:      -7.6      3.395      4.666
REMARK  Name = 
REMARK  10 active torsions:
REMARK  status: ('A' for Active; 'I' for Inactive)
REMARK    1  A    between atoms: C_1  and  C_2
REMARK    2  A    between atoms: C_2  and  N_3
REMARK    3  A    between atoms: C_2  and  C_25
REMARK    4  A    between atoms: N_3  and  S_4
REMARK    5  A    between atoms: S_4  and  C_7
REMARK    6  A    between atoms: C_10  and  O_11
REMARK    7  A    between atoms: O_11  and  C_12
REMARK    8  A    between atoms: C_12  and  C_13
REMARK    9  A    between atoms: N_15  and  C_16
REMARK   10  A    between atoms: C_16  and  C_17
REMARK                            x       y       z     vdW  Elec       q    Type
REMARK                         _______ _______ _______ _____ _____    ______ ____
ROOT
ATOM      1  C   UNL     1       3.157   7.055  18.408  0.00  0.00    +0.000 A 
ATOM      2  C   UNL     1       2.705   8.179  17.699  0.00  0.00    +0.000 A 
ATOM      3  C   UNL     1       1.803   9.049  18.311  0.00  0.00    +0.000 A 
ATOM      4  C   UNL     1       1.332   8.789  19.598  0.00  0.00    +0.000 A 
ATOM      5  C   UNL     1       1.769   7.650  20.282  0.00  0.00    +0.000 A 
ATOM      6  C   UNL     1       2.672   6.778  19.682  0.00  0.00    +0.000 A 
ENDROOT
BRANCH   1   7
ATOM      7  S   UNL     1       4.436   6.024  17.726  0.00  0.00    +0.000 S 
ATOM      8  O   UNL     1       5.343   5.703  18.791  0.00  0.00    +0.000 OA
ATOM      9  O   UNL     1       4.875   6.688  16.513  0.00  0.00    +0.000 OA
BRANCH   7  10
ATOM     10  N   UNL     1       3.563   4.634  17.254  0.00  0.00    +0.000 NA
ATOM     11  H   UNL     1       2.561   4.822  17.194  0.00  0.00    +0.000 HD
BRANCH  10  13
ATOM     12  C   UNL     1       3.784   2.201  16.973  0.00  0.00    +0.000 C 
ATOM     13  C   UNL     1       3.824   3.353  17.984  0.00  0.00    +0.000 C 
BRANCH  13  14
ATOM     14  C   UNL     1       2.941   3.130  19.210  0.00  0.00    +0.000 A 
ATOM     15  C   UNL     1       1.556   3.350  19.137  0.00  0.00    +0.000 A 
ATOM     16  C   UNL     1       0.747   3.304  20.272  0.00  0.00    +0.000 A 
ATOM     17  C   UNL     1       1.301   2.984  21.503  0.00  0.00    +0.000 A 
ATOM     18  C   UNL     1       2.658   2.684  21.591  0.00  0.00    +0.000 A 
ATOM     19  C   UNL     1       3.473   2.742  20.454  0.00  0.00    +0.000 A 
ENDBRANCH  13  14
ENDBRANCH  10  13
ENDBRANCH   7  10
ENDBRANCH   1   7
BRANCH   4  20
ATOM     20  O   UNL     1       0.499   9.749  20.108  0.00  0.00    +0.000 OA
BRANCH  20  21
ATOM     21  C   UNL     1      -0.255   9.388  21.258  0.00  0.00    +0.000 C 
BRANCH  21  22
ATOM     22  C   UNL     1      -0.602  10.554  22.185  0.00  0.00    +0.000 C 
ATOM     23  O   UNL     1      -0.258  10.568  23.367  0.00  0.00    +0.000 OA
ATOM     24  N   UNL     1      -1.266  11.594  21.586  0.00  0.00    +0.000 N 
ATOM     25  H   UNL     1      -1.703  11.431  20.683  0.00  0.00    +0.000 HD
BRANCH  24  26
ATOM     26  C   UNL     1      -1.584  12.804  22.301  0.00  0.00    +0.000 C 
BRANCH  26  27
ATOM     27  C   UNL     1      -3.005  12.813  22.810  0.00  0.00    +0.000 A 
ATOM     28  C   UNL     1      -3.293  12.388  24.105  0.00  0.00    +0.000 A 
ATOM     29  C   UNL     1      -4.613  12.420  24.543  0.00  0.00    +0.000 A 
ATOM     30  C   UNL     1      -5.608  12.851  23.675  0.00  0.00    +0.000 A 
ATOM     31  C   UNL     1      -5.238  13.231  22.396  0.00  0.00    +0.000 A 
ATOM     32  N   UNL     1      -3.965  13.223  21.943  0.00  0.00    +0.000 NA
ENDBRANCH  26  27
ENDBRANCH  24  26
ENDBRANCH  21  22
ENDBRANCH  20  21
ENDBRANCH   4  20
TORSDOF 9
ENDMDL
MODEL 8
REMARK VINA RESULT:      -7.6      4.506      7.945
REMARK  Name = 
REMARK  10 active torsions:
REMARK  status: ('A' for Active; 'I' for Inactive)
REMARK    1  A    between atoms: C_1  and  C_2
REMARK    2  A    between atoms: C_2  and  N_3
REMARK    3  A    between atoms: C_2  and  C_25
REMARK    4  A    between atoms: N_3  and  S_4
REMARK    5  A    between atoms: S_4  and  C_7
REMARK    6  A    between atoms: C_10  and  O_11
REMARK    7  A    between atoms: O_11  and  C_12
REMARK    8  A    between atoms: C_12  and  C_13
REMARK    9  A    between atoms: N_15  and  C_16
REMARK   10  A    between atoms: C_16  and  C_17
REMARK                            x       y       z     vdW  Elec       q    Type
REMARK                         _______ _______ _______ _____ _____    ______ ____
ROOT
ATOM      1  C   UNL     1       5.325   5.014  17.936  0.00  0.00    +0.000 A 
ATOM      2  C   UNL     1       6.287   5.059  18.958  0.00  0.00    +0.000 A 
ATOM      3  C   UNL     1       7.287   6.028  18.905  0.00  0.00    +0.000 A 
ATOM      4  C   UNL     1       7.352   6.922  17.835  0.00  0.00    +0.000 A 
ATOM      5  C   UNL     1       6.404   6.848  16.810  0.00  0.00    +0.000 A 
ATOM      6  C   UNL     1       5.399   5.886  16.854  0.00  0.00    +0.000 A 
ENDROOT
BRANCH   1   7
ATOM      7  S   UNL     1       3.939   3.908  18.062  0.00  0.00    +0.000 S 
ATOM      8  O   UNL     1       4.165   3.063  19.200  0.00  0.00    +0.000 OA
ATOM      9  O   UNL     1       3.738   3.370  16.729  0.00  0.00    +0.000 OA
BRANCH   7  10
ATOM     10  N   UNL     1       2.648   4.983  18.372  0.00  0.00    +0.000 NA
ATOM     11  H   UNL     1       2.398   5.520  17.540  0.00  0.00    +0.000 HD
BRANCH  10  13
ATOM     12  C   UNL     1       2.029   5.182  20.744  0.00  0.00    +0.000 C 
ATOM     13  C   UNL     1       2.741   5.872  19.574  0.00  0.00    +0.000 C 
BRANCH  13  14
ATOM     14  C   UNL     1       2.286   7.311  19.336  0.00  0.00    +0.000 A 
ATOM     15  C   UNL     1       1.584   8.008  20.333  0.00  0.00    +0.000 A 
ATOM     16  C   UNL     1       1.023   9.261  20.093  0.00  0.00    +0.000 A 
ATOM     17  C   UNL     1       1.197   9.871  18.859  0.00  0.00    +0.000 A 
ATOM     18  C   UNL     1       1.956   9.238  17.878  0.00  0.00    +0.000 A 
ATOM     19  C   UNL     1       2.510   7.973  18.115  0.00  0.00    +0.000 A 
ENDBRANCH  13  14
ENDBRANCH  10  13
ENDBRANCH   7  10
ENDBRANCH   1   7
BRANCH   4  20
ATOM     20  O   UNL     1       8.344   7.860  17.932  0.00  0.00    +0.000 OA
BRANCH  20  21
ATOM     21  C   UNL     1       7.940   9.221  17.840  0.00  0.00    +0.000 C 
BRANCH  21  22
ATOM     22  C   UNL     1       8.930  10.223  18.436  0.00  0.00    +0.000 C 
ATOM     23  O   UNL     1       9.490  11.072  17.744  0.00  0.00    +0.000 OA
ATOM     24  N   UNL     1       9.094  10.136  19.795  0.00  0.00    +0.000 N 
ATOM     25  H   UNL     1       8.779   9.293  20.267  0.00  0.00    +0.000 HD
BRANCH  24  26
ATOM     26  C   UNL     1       9.923  11.067  20.520  0.00  0.00    +0.000 C 
BRANCH  26  27
ATOM     27  C   UNL     1       9.111  12.062  21.312  0.00  0.00    +0.000 A 
ATOM     28  C   UNL     1       8.757  13.288  20.752  0.00  0.00    +0.000 A 
ATOM     29  C   UNL     1       7.999  14.176  21.508  0.00  0.00    +0.000 A 
ATOM     30  C   UNL     1       7.635  13.830  22.803  0.00  0.00    +0.000 A 
ATOM     31  C   UNL     1       8.051  12.602  23.291  0.00  0.00    +0.000 A 
ATOM     32  N   UNL     1       8.777  11.713  22.580  0.00  0.00    +0.000 NA
ENDBRANCH  26  27
ENDBRANCH  24  26
ENDBRANCH  21  22
ENDBRANCH  20  21
ENDBRANCH   4  20
TORSDOF 9
ENDMDL
MODEL 9
REMARK VINA RESULT:      -7.6      2.636      9.626
REMARK  Name = 
REMARK  10 active torsions:
REMARK  status: ('A' for Active; 'I' for Inactive)
REMARK    1  A    between atoms: C_1  and  C_2
REMARK    2  A    between atoms: C_2  and  N_3
REMARK    3  A    between atoms: C_2  and  C_25
REMARK    4  A    between atoms: N_3  and  S_4
REMARK    5  A    between atoms: S_4  and  C_7
REMARK    6  A    between atoms: C_10  and  O_11
REMARK    7  A    between atoms: O_11  and  C_12
REMARK    8  A    between atoms: C_12  and  C_13
REMARK    9  A    between atoms: N_15  and  C_16
REMARK   10  A    between atoms: C_16  and  C_17
REMARK                            x       y       z     vdW  Elec       q    Type
REMARK                         _______ _______ _______ _____ _____    ______ ____
ROOT
ATOM      1  C   UNL     1       1.266   9.545  19.644  0.00  0.00    +0.000 A 
ATOM      2  C   UNL     1       1.384   8.544  20.623  0.00  0.00    +0.000 A 
ATOM      3  C   UNL     1       2.010   7.344  20.292  0.00  0.00    +0.000 A 
ATOM      4  C   UNL     1       2.486   7.126  18.997  0.00  0.00    +0.000 A 
ATOM      5  C   UNL     1       2.337   8.121  18.026  0.00  0.00    +0.000 A 
ATOM      6  C   UNL     1       1.715   9.324  18.347  0.00  0.00    +0.000 A 
ENDROOT
BRANCH   1   7
ATOM      7  S   UNL     1       0.631  11.148  20.079  0.00  0.00    +0.000 S 
ATOM      8  O   UNL     1       1.025  12.062  19.046  0.00  0.00    +0.000 OA
ATOM      9  O   UNL     1       0.992  11.353  21.470  0.00  0.00    +0.000 OA
BRANCH   7  10
ATOM     10  N   UNL     1      -1.057  10.891  20.029  0.00  0.00    +0.000 NA
ATOM     11  H   UNL     1      -1.283   9.922  19.799  0.00  0.00    +0.000 HD
BRANCH  10  13
ATOM     12  C   UNL     1      -2.880  12.535  20.172  0.00  0.00    +0.000 C 
ATOM     13  C   UNL     1      -1.893  11.840  19.227  0.00  0.00    +0.000 C 
BRANCH  13  14
ATOM     14  C   UNL     1      -2.550  11.221  17.994  0.00  0.00    +0.000 A 
ATOM     15  C   UNL     1      -1.864  10.263  17.230  0.00  0.00    +0.000 A 
ATOM     16  C   UNL     1      -2.370   9.794  16.018  0.00  0.00    +0.000 A 
ATOM     17  C   UNL     1      -3.605  10.239  15.567  0.00  0.00    +0.000 A 
ATOM     18  C   UNL     1      -4.342  11.130  16.343  0.00  0.00    +0.000 A 
ATOM     19  C   UNL     1      -3.829  11.609  17.555  0.00  0.00    +0.000 A 
ENDBRANCH  13  14
ENDBRANCH  10  13
ENDBRANCH   7  10
ENDBRANCH   1   7
BRANCH   4  20
ATOM     20  O   UNL     1       3.133   5.933  18.818  0.00  0.00    +0.000 OA
BRANCH  20  21
ATOM     21  C   UNL     1       3.250   5.471  17.478  0.00  0.00    +0.000 C 
BRANCH  21  22
ATOM     22  C   UNL     1       4.629   5.678  16.850  0.00  0.00    +0.000 C 
ATOM     23  O   UNL     1       5.027   6.792  16.511  0.00  0.00    +0.000 OA
ATOM     24  N   UNL     1       5.397   4.546  16.752  0.00  0.00    +0.000 N 
ATOM     25  H   UNL     1       4.941   3.643  16.844  0.00  0.00    +0.000 HD
BRANCH  24  26
ATOM     26  C   UNL     1       6.754   4.590  16.265  0.00  0.00    +0.000 C 
BRANCH  26  27
ATOM     27  C   UNL     1       6.829   4.478  14.762  0.00  0.00    +0.000 A 
ATOM     28  C   UNL     1       7.699   5.289  14.037  0.00  0.00    +0.000 A 
ATOM     29  C   UNL     1       7.748   5.152  12.653  0.00  0.00    +0.000 A 
ATOM     30  C   UNL     1       6.916   4.229  12.031  0.00  0.00    +0.000 A 
ATOM     31  C   UNL     1       6.062   3.481  12.825  0.00  0.00    +0.000 A 
ATOM     32  N   UNL     1       5.998   3.582  14.171  0.00  0.00    +0.000 NA
ENDBRANCH  26  27
ENDBRANCH  24  26
ENDBRANCH  21  22
ENDBRANCH  20  21
ENDBRANCH   4  20
TORSDOF 9
ENDMDL
