MODEL 1
REMARK VINA RESULT:      -7.5      0.000      0.000
REMARK  Name = 
REMARK  3 active torsions:
REMARK  status: ('A' for Active; 'I' for Inactive)
REMARK    1  A    between atoms: C_5  and  C_6
REMARK    2  A    between atoms: N_14  and  C_15
REMARK    3  A    between atoms: C_15  and  C_16
REMARK                            x       y       z     vdW  Elec       q    Type
REMARK                         _______ _______ _______ _____ _____    ______ ____
ROOT
ATOM      1  C   UNL     1       4.213   3.818  17.744  0.00  0.00    +0.000 A 
ATOM      2  N   UNL     1       3.671   2.591  17.548  0.00  0.00    +0.000 NA
ATOM      3  C   UNL     1       2.713   2.197  18.395  0.00  0.00    +0.000 A 
ATOM      4  N   UNL     1       2.247   2.900  19.428  0.00  0.00    +0.000 NA
ATOM      5  C   UNL     1       2.792   4.124  19.617  0.00  0.00    +0.000 A 
ATOM      6  C   UNL     1       3.776   4.653  18.781  0.00  0.00    +0.000 A 
ATOM      7  C   UNL     1       4.236   6.066  19.016  0.00  0.00    +0.000 C 
ATOM      8  C   UNL     1       3.132   7.111  18.805  0.00  0.00    +0.000 C 
ATOM      9  N   UNL     1       2.256   7.343  19.970  0.00  0.00    +0.000 NA
ATOM     10  C   UNL     1       1.444   6.149  20.309  0.00  0.00    +0.000 C 
ATOM     11  C   UNL     1       2.239   4.921  20.772  0.00  0.00    +0.000 C 
ENDROOT
BRANCH   1  16
ATOM     12  C   UNL     1       5.992   4.533  14.449  0.00  0.00    +0.000 A 
ATOM     13  C   UNL     1       7.281   4.655  14.929  0.00  0.00    +0.000 A 
ATOM     14  N   UNL     1       7.594   4.600  16.238  0.00  0.00    +0.000 NA
ATOM     15  C   UNL     1       6.569   4.364  17.099  0.00  0.00    +0.000 A 
ATOM     16  C   UNL     1       5.234   4.167  16.733  0.00  0.00    +0.000 A 
ATOM     17  C   UNL     1       4.962   4.329  15.367  0.00  0.00    +0.000 A 
ENDBRANCH   1  16
BRANCH   9  18
ATOM     18  C   UNL     1       1.321   8.466  19.688  0.00  0.00    +0.000 C 
BRANCH  18  19
ATOM     19  C   UNL     1       0.725   9.089  20.924  0.00  0.00    +0.000 A 
ATOM     20  C   UNL     1       0.996   8.813  22.251  0.00  0.00    +0.000 A 
ATOM     21  C   UNL     1       0.216   9.607  23.142  0.00  0.00    +0.000 A 
ATOM     22  C   UNL     1      -0.622  10.466  22.468  0.00  0.00    +0.000 A 
ATOM     23  S   UNL     1      -0.475  10.308  20.773  0.00  0.00    +0.000 S 
ENDBRANCH  18  19
ENDBRANCH   9  18
TORSDOF 3
ENDMDL
MODEL 2
REMARK VINA RESULT:      -7.0      1.878      2.204
REMARK  Name = 
REMARK  3 active torsions:
REMARK  status: ('A' for Active; 'I' for Inactive)
REMARK    1  A    between atoms: C_5  and  C_6
REMARK    2  A    between atoms: N_14  and  C_15
REMARK    3  A    between atoms: C_15  and  C_16
REMARK                            x       y       z     vdW  Elec       q    Type
REMARK                         _______ _______ _______ _____ _____    ______ ____
ROOT
ATOM      1  C   UNL     1       4.774   4.386  16.955  0.00  0.00    +0.000 A 
ATOM      2  N   UNL     1       4.386   3.104  17.171  0.00  0.00    +0.000 NA
ATOM      3  C   UNL     1       3.583   2.870  18.215  0.00  0.00    +0.000 A 
ATOM      4  N   UNL     1       3.134   3.786  19.074  0.00  0.00    +0.000 NA
ATOM      5  C   UNL     1       3.522   5.063  18.852  0.00  0.00    +0.000 A 
ATOM      6  C   UNL     1       4.335   5.431  17.779  0.00  0.00    +0.000 A 
ATOM      7  C   UNL     1       4.620   6.891  17.560  0.00  0.00    +0.000 C 
ATOM      8  C   UNL     1       3.368   7.715  17.228  0.00  0.00    +0.000 C 
ATOM      9  N   UNL     1       2.591   8.177  18.395  0.00  0.00    +0.000 NA
ATOM     10  C   UNL     1       1.989   7.052  19.150  0.00  0.00    +0.000 C 
ATOM     11  C   UNL     1       2.987   6.094  19.814  0.00  0.00    +0.000 C 
ENDROOT
BRANCH   1  16
ATOM     12  C   UNL     1       6.232   4.066  13.447  0.00  0.00    +0.000 A 
ATOM     13  C   UNL     1       7.411   4.756  13.646  0.00  0.00    +0.000 A 
ATOM     14  N   UNL     1       7.722   5.375  14.802  0.00  0.00    +0.000 NA
ATOM     15  C   UNL     1       6.828   5.254  15.818  0.00  0.00    +0.000 A 
ATOM     16  C   UNL     1       5.629   4.537  15.758  0.00  0.00    +0.000 A 
ATOM     17  C   UNL     1       5.322   3.995  14.501  0.00  0.00    +0.000 A 
ENDBRANCH   1  16
BRANCH   9  18
ATOM     18  C   UNL     1       1.489   9.072  17.952  0.00  0.00    +0.000 C 
BRANCH  18  19
ATOM     19  C   UNL     1       1.489  10.420  18.623  0.00  0.00    +0.000 A 
ATOM     20  C   UNL     1       2.097  11.593  18.213  0.00  0.00    +0.000 A 
ATOM     21  C   UNL     1       1.880  12.666  19.126  0.00  0.00    +0.000 A 
ATOM     22  C   UNL     1       1.112  12.281  20.202  0.00  0.00    +0.000 A 
ATOM     23  S   UNL     1       0.664  10.635  20.114  0.00  0.00    +0.000 S 
ENDBRANCH  18  19
ENDBRANCH   9  18
TORSDOF 3
ENDMDL
MODEL 3
REMARK VINA RESULT:      -7.0      0.621      1.028
REMARK  Name = 
REMARK  3 active torsions:
REMARK  status: ('A' for Active; 'I' for Inactive)
REMARK    1  A    between atoms: C_5  and  C_6
REMARK    2  A    between atoms: N_14  and  C_15
REMARK    3  A    between atoms: C_15  and  C_16
REMARK                            x       y       z     vdW  Elec       q    Type
REMARK                         _______ _______ _______ _____ _____    ______ ____
ROOT
ATOM      1  C   UNL     1       4.009   3.735  17.941  0.00  0.00    +0.000 A 
ATOM      2  N   UNL     1       3.411   2.541  17.707  0.00  0.00    +0.000 NA
ATOM      3  C   UNL     1       2.389   2.196  18.499  0.00  0.00    +0.000 A 
ATOM      4  N   UNL     1       1.908   2.920  19.511  0.00  0.00    +0.000 NA
ATOM      5  C   UNL     1       2.508   4.112  19.738  0.00  0.00    +0.000 A 
ATOM      6  C   UNL     1       3.563   4.589  18.959  0.00  0.00    +0.000 A 
ATOM      7  C   UNL     1       4.087   5.973  19.228  0.00  0.00    +0.000 C 
ATOM      8  C   UNL     1       3.055   7.078  18.967  0.00  0.00    +0.000 C 
ATOM      9  N   UNL     1       2.132   7.353  20.085  0.00  0.00    +0.000 NA
ATOM     10  C   UNL     1       1.239   6.205  20.372  0.00  0.00    +0.000 C 
ATOM     11  C   UNL     1       1.939   4.933  20.868  0.00  0.00    +0.000 C 
ENDROOT
BRANCH   1  16
ATOM     12  C   UNL     1       7.359   4.748  16.428  0.00  0.00    +0.000 A 
ATOM     13  C   UNL     1       7.000   4.732  15.095  0.00  0.00    +0.000 A 
ATOM     14  N   UNL     1       5.785   4.345  14.658  0.00  0.00    +0.000 NA
ATOM     15  C   UNL     1       4.876   4.004  15.609  0.00  0.00    +0.000 A 
ATOM     16  C   UNL     1       5.100   4.032  16.988  0.00  0.00    +0.000 A 
ATOM     17  C   UNL     1       6.410   4.354  17.372  0.00  0.00    +0.000 A 
ENDBRANCH   1  16
BRANCH   9  18
ATOM     18  C   UNL     1       1.277   8.527  19.763  0.00  0.00    +0.000 C 
BRANCH  18  19
ATOM     19  C   UNL     1       0.648   9.175  20.969  0.00  0.00    +0.000 A 
ATOM     20  C   UNL     1       0.789   8.844  22.304  0.00  0.00    +0.000 A 
ATOM     21  C   UNL     1       0.020   9.686  23.158  0.00  0.00    +0.000 A 
ATOM     22  C   UNL     1      -0.682  10.636  22.451  0.00  0.00    +0.000 A 
ATOM     23  S   UNL     1      -0.420  10.505  20.767  0.00  0.00    +0.000 S 
ENDBRANCH  18  19
ENDBRANCH   9  18
TORSDOF 3
ENDMDL
MODEL 4
REMARK VINA RESULT:      -7.0      1.358      1.488
REMARK  Name = 
REMARK  3 active torsions:
REMARK  status: ('A' for Active; 'I' for Inactive)
REMARK    1  A    between atoms: C_5  and  C_6
REMARK    2  A    between atoms: N_14  and  C_15
REMARK    3  A    between atoms: C_15  and  C_16
REMARK                            x       y       z     vdW  Elec       q    Type
REMARK                         _______ _______ _______ _____ _____    ______ ____
ROOT
ATOM      1  C   UNL     1       4.678   4.279  17.043  0.00  0.00    +0.000 A 
ATOM      2  N   UNL     1       4.266   2.995  17.188  0.00  0.00    +0.000 NA
ATOM      3  C   UNL     1       3.446   2.721  18.209  0.00  0.00    +0.000 A 
ATOM      4  N   UNL     1       3.001   3.599  19.109  0.00  0.00    +0.000 NA
ATOM      5  C   UNL     1       3.414   4.879  18.958  0.00  0.00    +0.000 A 
ATOM      6  C   UNL     1       4.245   5.288  17.916  0.00  0.00    +0.000 A 
ATOM      7  C   UNL     1       4.558   6.753  17.777  0.00  0.00    +0.000 C 
ATOM      8  C   UNL     1       3.324   7.614  17.473  0.00  0.00    +0.000 C 
ATOM      9  N   UNL     1       2.541   8.028  18.654  0.00  0.00    +0.000 NA
ATOM     10  C   UNL     1       1.911   6.876  19.342  0.00  0.00    +0.000 C 
ATOM     11  C   UNL     1       2.883   5.867  19.967  0.00  0.00    +0.000 C 
ENDROOT
BRANCH   1  16
ATOM     12  C   UNL     1       6.174   4.119  13.541  0.00  0.00    +0.000 A 
ATOM     13  C   UNL     1       7.363   4.774  13.791  0.00  0.00    +0.000 A 
ATOM     14  N   UNL     1       7.671   5.325  14.981  0.00  0.00    +0.000 NA
ATOM     15  C   UNL     1       6.761   5.167  15.978  0.00  0.00    +0.000 A 
ATOM     16  C   UNL     1       5.550   4.477  15.867  0.00  0.00    +0.000 A 
ATOM     17  C   UNL     1       5.249   4.009  14.579  0.00  0.00    +0.000 A 
ENDBRANCH   1  16
BRANCH   9  18
ATOM     18  C   UNL     1       1.459   8.963  18.245  0.00  0.00    +0.000 C 
BRANCH  18  19
ATOM     19  C   UNL     1       1.022   9.907  19.335  0.00  0.00    +0.000 A 
ATOM     20  C   UNL     1       0.743   9.630  20.660  0.00  0.00    +0.000 A 
ATOM     21  C   UNL     1       0.345  10.791  21.386  0.00  0.00    +0.000 A 
ATOM     22  C   UNL     1       0.336  11.917  20.595  0.00  0.00    +0.000 A 
ATOM     23  S   UNL     1       0.796  11.573  18.986  0.00  0.00    +0.000 S 
ENDBRANCH  18  19
ENDBRANCH   9  18
TORSDOF 3
ENDMDL
MODEL 5
REMARK VINA RESULT:      -6.7      1.648      1.974
REMARK  Name = 
REMARK  3 active torsions:
REMARK  status: ('A' for Active; 'I' for Inactive)
REMARK    1  A    between atoms: C_5  and  C_6
REMARK    2  A    between atoms: N_14  and  C_15
REMARK    3  A    between atoms: C_15  and  C_16
REMARK                            x       y       z     vdW  Elec       q    Type
REMARK                         _______ _______ _______ _____ _____    ______ ____
ROOT
ATOM      1  C   UNL     1       4.290   4.785  17.956  0.00  0.00    +0.000 A 
ATOM      2  N   UNL     1       3.895   3.558  18.376  0.00  0.00    +0.000 NA
ATOM      3  C   UNL     1       3.029   3.502  19.394  0.00  0.00    +0.000 A 
ATOM      4  N   UNL     1       2.522   4.550  20.045  0.00  0.00    +0.000 NA
ATOM      5  C   UNL     1       2.919   5.772  19.620  0.00  0.00    +0.000 A 
ATOM      6  C   UNL     1       3.795   5.955  18.550  0.00  0.00    +0.000 A 
ATOM      7  C   UNL     1       4.088   7.357  18.090  0.00  0.00    +0.000 C 
ATOM      8  C   UNL     1       2.856   8.088  17.539  0.00  0.00    +0.000 C 
ATOM      9  N   UNL     1       2.005   8.739  18.555  0.00  0.00    +0.000 NA
ATOM     10  C   UNL     1       1.362   7.759  19.462  0.00  0.00    +0.000 C 
ATOM     11  C   UNL     1       2.319   6.951  20.347  0.00  0.00    +0.000 C 
ENDROOT
BRANCH   1  16
ATOM     12  C   UNL     1       5.749   4.361  14.460  0.00  0.00    +0.000 A 
ATOM     13  C   UNL     1       7.088   4.487  14.775  0.00  0.00    +0.000 A 
ATOM     14  N   UNL     1       7.535   4.774  16.013  0.00  0.00    +0.000 NA
ATOM     15  C   UNL     1       6.595   4.893  16.987  0.00  0.00    +0.000 A 
ATOM     16  C   UNL     1       5.218   4.733  16.807  0.00  0.00    +0.000 A 
ATOM     17  C   UNL     1       4.813   4.527  15.480  0.00  0.00    +0.000 A 
ENDBRANCH   1  16
BRANCH   9  18
ATOM     18  C   UNL     1       0.929   9.523  17.891  0.00  0.00    +0.000 C 
BRANCH  18  19
ATOM     19  C   UNL     1       0.212  10.477  18.811  0.00  0.00    +0.000 A 
ATOM     20  C   UNL     1      -1.143  10.580  19.067  0.00  0.00    +0.000 A 
ATOM     21  C   UNL     1      -1.444  11.620  19.994  0.00  0.00    +0.000 A 
ATOM     22  C   UNL     1      -0.311  12.276  20.419  0.00  0.00    +0.000 A 
ATOM     23  S   UNL     1       1.104  11.646  19.697  0.00  0.00    +0.000 S 
ENDBRANCH  18  19
ENDBRANCH   9  18
TORSDOF 3
ENDMDL
MODEL 6
REMARK VINA RESULT:      -6.6      2.665      6.589
REMARK  Name = 
REMARK  3 active torsions:
REMARK  status: ('A' for Active; 'I' for Inactive)
REMARK    1  A    between atoms: C_5  and  C_6
REMARK    2  A    between atoms: N_14  and  C_15
REMARK    3  A    between atoms: C_15  and  C_16
REMARK                            x       y       z     vdW  Elec       q    Type
REMARK                         _______ _______ _______ _____ _____    ______ ____
ROOT
ATOM      1  C   UNL     1       1.942   5.417  20.247  0.00  0.00    +0.000 A 
ATOM      2  N   UNL     1       1.882   4.732  21.415  0.00  0.00    +0.000 NA
ATOM      3  C   UNL     1       2.241   3.444  21.395  0.00  0.00    +0.000 A 
ATOM      4  N   UNL     1       2.646   2.764  20.322  0.00  0.00    +0.000 NA
ATOM      5  C   UNL     1       2.706   3.453  19.159  0.00  0.00    +0.000 A 
ATOM      6  C   UNL     1       2.384   4.808  19.064  0.00  0.00    +0.000 A 
ATOM      7  C   UNL     1       2.587   5.506  17.748  0.00  0.00    +0.000 C 
ATOM      8  C   UNL     1       4.057   5.560  17.306  0.00  0.00    +0.000 C 
ATOM      9  N   UNL     1       4.544   4.362  16.596  0.00  0.00    +0.000 NA
ATOM     10  C   UNL     1       4.562   3.162  17.466  0.00  0.00    +0.000 C 
ATOM     11  C   UNL     1       3.190   2.681  17.957  0.00  0.00    +0.000 C 
ENDROOT
BRANCH   1  16
ATOM     12  C   UNL     1       0.330   8.661  21.435  0.00  0.00    +0.000 A 
ATOM     13  C   UNL     1       0.779   9.498  20.432  0.00  0.00    +0.000 A 
ATOM     14  N   UNL     1       1.620   9.102  19.457  0.00  0.00    +0.000 NA
ATOM     15  C   UNL     1       1.988   7.794  19.464  0.00  0.00    +0.000 A 
ATOM     16  C   UNL     1       1.559   6.838  20.389  0.00  0.00    +0.000 A 
ATOM     17  C   UNL     1       0.761   7.334  21.430  0.00  0.00    +0.000 A 
ENDBRANCH   1  16
BRANCH   9  18
ATOM     18  C   UNL     1       5.929   4.590  16.104  0.00  0.00    +0.000 C 
BRANCH  18  19
ATOM     19  C   UNL     1       6.703   5.605  16.905  0.00  0.00    +0.000 A 
ATOM     20  C   UNL     1       6.880   6.953  16.656  0.00  0.00    +0.000 A 
ATOM     21  C   UNL     1       7.694   7.586  17.641  0.00  0.00    +0.000 A 
ATOM     22  C   UNL     1       8.110   6.703  18.611  0.00  0.00    +0.000 A 
ATOM     23  S   UNL     1       7.530   5.121  18.330  0.00  0.00    +0.000 S 
ENDBRANCH  18  19
ENDBRANCH   9  18
TORSDOF 3
ENDMDL
MODEL 7
REMARK VINA RESULT:      -6.6      1.374      1.876
REMARK  Name = 
REMARK  3 active torsions:
REMARK  status: ('A' for Active; 'I' for Inactive)
REMARK    1  A    between atoms: C_5  and  C_6
REMARK    2  A    between atoms: N_14  and  C_15
REMARK    3  A    between atoms: C_15  and  C_16
REMARK                            x       y       z     vdW  Elec       q    Type
REMARK                         _______ _______ _______ _____ _____    ______ ____
ROOT
ATOM      1  C   UNL     1       4.275   3.518  17.962  0.00  0.00    +0.000 A 
ATOM      2  N   UNL     1       3.879   2.260  17.645  0.00  0.00    +0.000 NA
ATOM      3  C   UNL     1       3.024   1.655  18.476  0.00  0.00    +0.000 A 
ATOM      4  N   UNL     1       2.530   2.173  19.601  0.00  0.00    +0.000 NA
ATOM      5  C   UNL     1       2.927   3.430  19.910  0.00  0.00    +0.000 A 
ATOM      6  C   UNL     1       3.793   4.170  19.105  0.00  0.00    +0.000 A 
ATOM      7  C   UNL     1       4.086   5.596  19.484  0.00  0.00    +0.000 C 
ATOM      8  C   UNL     1       2.852   6.506  19.438  0.00  0.00    +0.000 C 
ATOM      9  N   UNL     1       2.016   6.493  20.654  0.00  0.00    +0.000 NA
ATOM     10  C   UNL     1       1.378   5.175  20.884  0.00  0.00    +0.000 C 
ATOM     11  C   UNL     1       2.341   4.016  21.171  0.00  0.00    +0.000 C 
ENDROOT
BRANCH   1  16
ATOM     12  C   UNL     1       5.749   4.884  14.722  0.00  0.00    +0.000 A 
ATOM     13  C   UNL     1       7.057   5.040  15.136  0.00  0.00    +0.000 A 
ATOM     14  N   UNL     1       7.468   4.810  16.398  0.00  0.00    +0.000 NA
ATOM     15  C   UNL     1       6.530   4.356  17.271  0.00  0.00    +0.000 A 
ATOM     16  C   UNL     1       5.191   4.106  16.960  0.00  0.00    +0.000 A 
ATOM     17  C   UNL     1       4.808   4.453  15.656  0.00  0.00    +0.000 A 
ENDBRANCH   1  16
BRANCH   9  18
ATOM     18  C   UNL     1       0.936   7.510  20.541  0.00  0.00    +0.000 C 
BRANCH  18  19
ATOM     19  C   UNL     1       1.271   8.658  19.625  0.00  0.00    +0.000 A 
ATOM     20  C   UNL     1       1.903   8.630  18.396  0.00  0.00    +0.000 A 
ATOM     21  C   UNL     1       2.054   9.931  17.832  0.00  0.00    +0.000 A 
ATOM     22  C   UNL     1       1.530  10.910  18.645  0.00  0.00    +0.000 A 
ATOM     23  S   UNL     1       0.869  10.264  20.082  0.00  0.00    +0.000 S 
ENDBRANCH  18  19
ENDBRANCH   9  18
TORSDOF 3
ENDMDL
MODEL 8
REMARK VINA RESULT:      -6.6      3.515      4.620
REMARK  Name = 
REMARK  3 active torsions:
REMARK  status: ('A' for Active; 'I' for Inactive)
REMARK    1  A    between atoms: C_5  and  C_6
REMARK    2  A    between atoms: N_14  and  C_15
REMARK    3  A    between atoms: C_15  and  C_16
REMARK                            x       y       z     vdW  Elec       q    Type
REMARK                         _______ _______ _______ _____ _____    ______ ____
ROOT
ATOM      1  C   UNL     1       6.936   4.848  16.200  0.00  0.00    +0.000 A 
ATOM      2  N   UNL     1       8.042   4.335  16.792  0.00  0.00    +0.000 NA
ATOM      3  C   UNL     1       8.114   4.399  18.127  0.00  0.00    +0.000 A 
ATOM      4  N   UNL     1       7.197   4.934  18.933  0.00  0.00    +0.000 NA
ATOM      5  C   UNL     1       6.094   5.443  18.336  0.00  0.00    +0.000 A 
ATOM      6  C   UNL     1       5.895   5.407  16.955  0.00  0.00    +0.000 A 
ATOM      7  C   UNL     1       4.587   5.903  16.403  0.00  0.00    +0.000 C 
ATOM      8  C   UNL     1       3.378   5.073  16.857  0.00  0.00    +0.000 C 
ATOM      9  N   UNL     1       2.816   5.448  18.169  0.00  0.00    +0.000 NA
ATOM     10  C   UNL     1       3.762   5.189  19.281  0.00  0.00    +0.000 C 
ATOM     11  C   UNL     1       5.051   6.022  19.259  0.00  0.00    +0.000 C 
ENDROOT
BRANCH   1  16
ATOM     12  C   UNL     1       6.297   3.588  12.659  0.00  0.00    +0.000 A 
ATOM     13  C   UNL     1       7.187   4.400  11.984  0.00  0.00    +0.000 A 
ATOM     14  N   UNL     1       7.911   5.367  12.582  0.00  0.00    +0.000 NA
ATOM     15  C   UNL     1       7.767   5.490  13.928  0.00  0.00    +0.000 A 
ATOM     16  C   UNL     1       6.943   4.694  14.730  0.00  0.00    +0.000 A 
ATOM     17  C   UNL     1       6.150   3.771  14.034  0.00  0.00    +0.000 A 
ENDBRANCH   1  16
BRANCH   9  18
ATOM     18  C   UNL     1       1.576   4.669  18.434  0.00  0.00    +0.000 C 
BRANCH  18  19
ATOM     19  C   UNL     1       1.670   3.758  19.630  0.00  0.00    +0.000 A 
ATOM     20  C   UNL     1       1.221   3.971  20.920  0.00  0.00    +0.000 A 
ATOM     21  C   UNL     1       1.505   2.874  21.784  0.00  0.00    +0.000 A 
ATOM     22  C   UNL     1       2.159   1.856  21.127  0.00  0.00    +0.000 A 
ATOM     23  S   UNL     1       2.435   2.228  19.483  0.00  0.00    +0.000 S 
ENDBRANCH  18  19
ENDBRANCH   9  18
TORSDOF 3
ENDMDL
MODEL 9
REMARK VINA RESULT:      -6.5      2.945      7.572
REMARK  Name = 
REMARK  3 active torsions:
REMARK  status: ('A' for Active; 'I' for Inactive)
REMARK    1  A    between atoms: C_5  and  C_6
REMARK    2  A    between atoms: N_14  and  C_15
REMARK    3  A    between atoms: C_15  and  C_16
REMARK                            x       y       z     vdW  Elec       q    Type
REMARK                         _______ _______ _______ _____ _____    ______ ____
ROOT
ATOM      1  C   UNL     1       2.161   5.622  20.045  0.00  0.00    +0.000 A 
ATOM      2  N   UNL     1       2.104   4.969  21.232  0.00  0.00    +0.000 NA
ATOM      3  C   UNL     1       2.460   3.679  21.244  0.00  0.00    +0.000 A 
ATOM      4  N   UNL     1       2.858   2.970  20.188  0.00  0.00    +0.000 NA
ATOM      5  C   UNL     1       2.914   3.628  19.007  0.00  0.00    +0.000 A 
ATOM      6  C   UNL     1       2.595   4.980  18.877  0.00  0.00    +0.000 A 
ATOM      7  C   UNL     1       2.794   5.641  17.541  0.00  0.00    +0.000 C 
ATOM      8  C   UNL     1       4.261   5.680  17.091  0.00  0.00    +0.000 C 
ATOM      9  N   UNL     1       4.743   4.462  16.412  0.00  0.00    +0.000 NA
ATOM     10  C   UNL     1       4.762   3.286  17.314  0.00  0.00    +0.000 C 
ATOM     11  C   UNL     1       3.391   2.822  17.824  0.00  0.00    +0.000 C 
ENDROOT
BRANCH   1  16
ATOM     12  C   UNL     1       0.717   8.934  21.261  0.00  0.00    +0.000 A 
ATOM     13  C   UNL     1       0.971   9.698  20.139  0.00  0.00    +0.000 A 
ATOM     14  N   UNL     1       1.639   9.238  19.064  0.00  0.00    +0.000 NA
ATOM     15  C   UNL     1       2.027   7.936  19.100  0.00  0.00    +0.000 A 
ATOM     16  C   UNL     1       1.781   7.047  20.150  0.00  0.00    +0.000 A 
ATOM     17  C   UNL     1       1.164   7.613  21.275  0.00  0.00    +0.000 A 
ENDBRANCH   1  16
BRANCH   9  18
ATOM     18  C   UNL     1       6.126   4.673  15.907  0.00  0.00    +0.000 C 
BRANCH  18  19
ATOM     19  C   UNL     1       6.300   4.349  14.446  0.00  0.00    +0.000 A 
ATOM     20  C   UNL     1       5.531   3.527  13.643  0.00  0.00    +0.000 A 
ATOM     21  C   UNL     1       6.021   3.461  12.306  0.00  0.00    +0.000 A 
ATOM     22  C   UNL     1       7.144   4.236  12.129  0.00  0.00    +0.000 A 
ATOM     23  S   UNL     1       7.609   5.030  13.568  0.00  0.00    +0.000 S 
ENDBRANCH  18  19
ENDBRANCH   9  18
TORSDOF 3
ENDMDL
