MODEL 1
REMARK VINA RESULT:      -7.9      0.000      0.000
REMARK  Name = 
REMARK  6 active torsions:
REMARK  status: ('A' for Active; 'I' for Inactive)
REMARK    1  A    between atoms: C_2  and  C_3
REMARK    2  A    between atoms: C_3  and  C_4
REMARK    3  A    between atoms: C_4  and  N_5
REMARK    4  A    between atoms: C_7  and  C_8
REMARK    5  A    between atoms: C_8  and  O_10
REMARK    6  A    between atoms: C_11  and  C_12
REMARK                            x       y       z     vdW  Elec       q    Type
REMARK                         _______ _______ _______ _____ _____    ______ ____
ROOT
ATOM      1  N   UNL     1       6.487   4.569  14.318  0.00  0.00    +0.000 N 
ATOM      2  C   UNL     1       7.483   4.776  15.218  0.00  0.00    +0.000 A 
ATOM      3  C   UNL     1       6.862   5.113  16.410  0.00  0.00    +0.000 A 
ATOM      4  C   UNL     1       5.456   5.106  16.108  0.00  0.00    +0.000 A 
ATOM      5  N   UNL     1       5.274   4.841  14.799  0.00  0.00    +0.000 NA
ENDROOT
BRANCH   4   6
ATOM      6  C   UNL     1       4.303   5.432  16.981  0.00  0.00    +0.000 A 
ATOM      7  C   UNL     1       4.049   6.789  17.261  0.00  0.00    +0.000 A 
ATOM      8  C   UNL     1       2.983   7.179  18.063  0.00  0.00    +0.000 A 
ATOM      9  C   UNL     1       2.115   6.221  18.568  0.00  0.00    +0.000 A 
ATOM     10  C   UNL     1       2.302   4.863  18.286  0.00  0.00    +0.000 A 
ATOM     11  C   UNL     1       1.371   3.932  18.780  0.00  0.00    +0.000 A 
ATOM     12  C   UNL     1       1.508   2.572  18.523  0.00  0.00    +0.000 A 
ATOM     13  C   UNL     1       2.595   2.119  17.798  0.00  0.00    +0.000 A 
ATOM     14  C   UNL     1       3.536   3.032  17.316  0.00  0.00    +0.000 A 
ATOM     15  C   UNL     1       3.411   4.436  17.506  0.00  0.00    +0.000 A 
ENDBRANCH   4   6
BRANCH   3  16
ATOM     16  C   UNL     1       7.540   5.375  17.666  0.00  0.00    +0.000 C 
ATOM     17  O   UNL     1       7.790   6.491  18.096  0.00  0.00    +0.000 OA
BRANCH  16  18
ATOM     18  O   UNL     1       7.914   4.256  18.343  0.00  0.00    +0.000 OA
ATOM     19  H   UNL     1       7.154   3.771  18.717  0.00  0.00    +0.000 HD
ENDBRANCH  16  18
ENDBRANCH   3  16
BRANCH   1  20
ATOM     20  C   UNL     1       6.623   4.117  12.944  0.00  0.00    +0.000 C 
BRANCH  20  21
ATOM     21  C   UNL     1       5.377   3.410  12.430  0.00  0.00    +0.000 C 
BRANCH  21  23
ATOM     22  N   UNL     1       6.110   1.108  11.052  0.00  0.00    +0.000 NA
ATOM     23  C   UNL     1       5.777   2.153  11.677  0.00  0.00    +0.000 C 
ENDBRANCH  21  23
ENDBRANCH  20  21
ENDBRANCH   1  20
TORSDOF 6
ENDMDL
MODEL 2
REMARK VINA RESULT:      -7.7      0.676      2.378
REMARK  Name = 
REMARK  6 active torsions:
REMARK  status: ('A' for Active; 'I' for Inactive)
REMARK    1  A    between atoms: C_2  and  C_3
REMARK    2  A    between atoms: C_3  and  C_4
REMARK    3  A    between atoms: C_4  and  N_5
REMARK    4  A    between atoms: C_7  and  C_8
REMARK    5  A    between atoms: C_8  and  O_10
REMARK    6  A    between atoms: C_11  and  C_12
REMARK                            x       y       z     vdW  Elec       q    Type
REMARK                         _______ _______ _______ _____ _____    ______ ____
ROOT
ATOM      1  N   UNL     1       6.357   4.241  14.015  0.00  0.00    +0.000 N 
ATOM      2  C   UNL     1       7.343   4.643  14.857  0.00  0.00    +0.000 A 
ATOM      3  C   UNL     1       6.780   4.674  16.123  0.00  0.00    +0.000 A 
ATOM      4  C   UNL     1       5.409   4.288  15.926  0.00  0.00    +0.000 A 
ATOM      5  N   UNL     1       5.173   4.103  14.612  0.00  0.00    +0.000 NA
ENDROOT
BRANCH   4   6
ATOM      6  C   UNL     1       4.309   4.183  16.914  0.00  0.00    +0.000 A 
ATOM      7  C   UNL     1       3.914   2.897  17.330  0.00  0.00    +0.000 A 
ATOM      8  C   UNL     1       2.897   2.712  18.259  0.00  0.00    +0.000 A 
ATOM      9  C   UNL     1       2.280   3.815  18.832  0.00  0.00    +0.000 A 
ATOM     10  C   UNL     1       2.663   5.115  18.482  0.00  0.00    +0.000 A 
ATOM     11  C   UNL     1       2.044   6.202  19.122  0.00  0.00    +0.000 A 
ATOM     12  C   UNL     1       2.393   7.513  18.814  0.00  0.00    +0.000 A 
ATOM     13  C   UNL     1       3.342   7.757  17.839  0.00  0.00    +0.000 A 
ATOM     14  C   UNL     1       3.953   6.686  17.182  0.00  0.00    +0.000 A 
ATOM     15  C   UNL     1       3.669   5.329  17.500  0.00  0.00    +0.000 A 
ENDBRANCH   4   6
BRANCH   3  16
ATOM     16  C   UNL     1       7.486   5.003  17.348  0.00  0.00    +0.000 C 
ATOM     17  O   UNL     1       7.380   6.067  17.940  0.00  0.00    +0.000 OA
BRANCH  16  18
ATOM     18  O   UNL     1       8.318   4.025  17.794  0.00  0.00    +0.000 OA
ATOM     19  H   UNL     1       7.968   3.129  17.630  0.00  0.00    +0.000 HD
ENDBRANCH  16  18
ENDBRANCH   3  16
BRANCH   1  20
ATOM     20  C   UNL     1       6.469   3.977  12.590  0.00  0.00    +0.000 C 
BRANCH  20  21
ATOM     21  C   UNL     1       5.302   3.165  12.047  0.00  0.00    +0.000 C 
BRANCH  21  23
ATOM     22  N   UNL     1       6.241   0.772  10.986  0.00  0.00    +0.000 NA
ATOM     23  C   UNL     1       5.815   1.858  11.468  0.00  0.00    +0.000 C 
ENDBRANCH  21  23
ENDBRANCH  20  21
ENDBRANCH   1  20
TORSDOF 6
ENDMDL
MODEL 3
REMARK VINA RESULT:      -7.7      1.661      1.861
REMARK  Name = 
REMARK  6 active torsions:
REMARK  status: ('A' for Active; 'I' for Inactive)
REMARK    1  A    between atoms: C_2  and  C_3
REMARK    2  A    between atoms: C_3  and  C_4
REMARK    3  A    between atoms: C_4  and  N_5
REMARK    4  A    between atoms: C_7  and  C_8
REMARK    5  A    between atoms: C_8  and  O_10
REMARK    6  A    between atoms: C_11  and  C_12
REMARK                            x       y       z     vdW  Elec       q    Type
REMARK                         _______ _______ _______ _____ _____    ______ ____
ROOT
ATOM      1  N   UNL     1       6.430   4.518  15.824  0.00  0.00    +0.000 N 
ATOM      2  C   UNL     1       7.418   4.873  16.686  0.00  0.00    +0.000 A 
ATOM      3  C   UNL     1       6.785   5.306  17.841  0.00  0.00    +0.000 A 
ATOM      4  C   UNL     1       5.380   5.194  17.555  0.00  0.00    +0.000 A 
ATOM      5  N   UNL     1       5.206   4.778  16.284  0.00  0.00    +0.000 NA
ENDROOT
BRANCH   4   6
ATOM      6  C   UNL     1       4.215   5.553  18.399  0.00  0.00    +0.000 A 
ATOM      7  C   UNL     1       3.611   6.809  18.191  0.00  0.00    +0.000 A 
ATOM      8  C   UNL     1       2.510   7.218  18.934  0.00  0.00    +0.000 A 
ATOM      9  C   UNL     1       1.956   6.360  19.873  0.00  0.00    +0.000 A 
ATOM     10  C   UNL     1       2.496   5.086  20.090  0.00  0.00    +0.000 A 
ATOM     11  C   UNL     1       1.874   4.233  21.017  0.00  0.00    +0.000 A 
ATOM     12  C   UNL     1       2.367   2.956  21.264  0.00  0.00    +0.000 A 
ATOM     13  C   UNL     1       3.508   2.527  20.612  0.00  0.00    +0.000 A 
ATOM     14  C   UNL     1       4.146   3.371  19.700  0.00  0.00    +0.000 A 
ATOM     15  C   UNL     1       3.649   4.663  19.375  0.00  0.00    +0.000 A 
ENDBRANCH   4   6
BRANCH   3  16
ATOM     16  C   UNL     1       7.454   5.738  19.054  0.00  0.00    +0.000 C 
ATOM     17  O   UNL     1       7.312   5.208  20.146  0.00  0.00    +0.000 OA
BRANCH  16  18
ATOM     18  O   UNL     1       8.258   6.822  18.894  0.00  0.00    +0.000 OA
ATOM     19  H   UNL     1       9.202   6.614  19.030  0.00  0.00    +0.000 HD
ENDBRANCH  16  18
ENDBRANCH   3  16
BRANCH   1  20
ATOM     20  C   UNL     1       6.583   3.927  14.506  0.00  0.00    +0.000 C 
BRANCH  20  21
ATOM     21  C   UNL     1       5.389   4.190  13.599  0.00  0.00    +0.000 C 
BRANCH  21  23
ATOM     22  N   UNL     1       5.393   2.369  11.497  0.00  0.00    +0.000 NA
ATOM     23  C   UNL     1       5.391   3.195  12.451  0.00  0.00    +0.000 C 
ENDBRANCH  21  23
ENDBRANCH  20  21
ENDBRANCH   1  20
TORSDOF 6
ENDMDL
MODEL 4
REMARK VINA RESULT:      -7.5      2.040      2.240
REMARK  Name = 
REMARK  6 active torsions:
REMARK  status: ('A' for Active; 'I' for Inactive)
REMARK    1  A    between atoms: C_2  and  C_3
REMARK    2  A    between atoms: C_3  and  C_4
REMARK    3  A    between atoms: C_4  and  N_5
REMARK    4  A    between atoms: C_7  and  C_8
REMARK    5  A    between atoms: C_8  and  O_10
REMARK    6  A    between atoms: C_11  and  C_12
REMARK                            x       y       z     vdW  Elec       q    Type
REMARK                         _______ _______ _______ _____ _____    ______ ____
ROOT
ATOM      1  N   UNL     1       6.236   4.309  15.748  0.00  0.00    +0.000 N 
ATOM      2  C   UNL     1       7.249   4.692  16.567  0.00  0.00    +0.000 A 
ATOM      3  C   UNL     1       6.657   5.371  17.620  0.00  0.00    +0.000 A 
ATOM      4  C   UNL     1       5.251   5.364  17.320  0.00  0.00    +0.000 A 
ATOM      5  N   UNL     1       5.044   4.769  16.128  0.00  0.00    +0.000 NA
ENDROOT
BRANCH   4   6
ATOM      6  C   UNL     1       4.125   5.977  18.064  0.00  0.00    +0.000 A 
ATOM      7  C   UNL     1       3.716   7.274  17.694  0.00  0.00    +0.000 A 
ATOM      8  C   UNL     1       2.663   7.916  18.336  0.00  0.00    +0.000 A 
ATOM      9  C   UNL     1       1.962   7.256  19.336  0.00  0.00    +0.000 A 
ATOM     10  C   UNL     1       2.305   5.952  19.713  0.00  0.00    +0.000 A 
ATOM     11  C   UNL     1       1.537   5.306  20.698  0.00  0.00    +0.000 A 
ATOM     12  C   UNL     1       1.832   4.009  21.104  0.00  0.00    +0.000 A 
ATOM     13  C   UNL     1       2.919   3.352  20.556  0.00  0.00    +0.000 A 
ATOM     14  C   UNL     1       3.700   3.989  19.590  0.00  0.00    +0.000 A 
ATOM     15  C   UNL     1       3.406   5.292  19.103  0.00  0.00    +0.000 A 
ENDBRANCH   4   6
BRANCH   3  16
ATOM     16  C   UNL     1       7.359   5.920  18.766  0.00  0.00    +0.000 C 
ATOM     17  O   UNL     1       8.160   6.841  18.709  0.00  0.00    +0.000 OA
BRANCH  16  18
ATOM     18  O   UNL     1       7.074   5.304  19.944  0.00  0.00    +0.000 OA
ATOM     19  H   UNL     1       7.703   5.537  20.653  0.00  0.00    +0.000 HD
ENDBRANCH  16  18
ENDBRANCH   3  16
BRANCH   1  20
ATOM     20  C   UNL     1       6.335   3.499  14.546  0.00  0.00    +0.000 C 
BRANCH  20  21
ATOM     21  C   UNL     1       6.347   4.333  13.272  0.00  0.00    +0.000 C 
BRANCH  21  23
ATOM     22  N   UNL     1       8.666   5.866  13.181  0.00  0.00    +0.000 NA
ATOM     23  C   UNL     1       7.614   5.170  13.223  0.00  0.00    +0.000 C 
ENDBRANCH  21  23
ENDBRANCH  20  21
ENDBRANCH   1  20
TORSDOF 6
ENDMDL
MODEL 5
REMARK VINA RESULT:      -7.4      1.339      2.668
REMARK  Name = 
REMARK  6 active torsions:
REMARK  status: ('A' for Active; 'I' for Inactive)
REMARK    1  A    between atoms: C_2  and  C_3
REMARK    2  A    between atoms: C_3  and  C_4
REMARK    3  A    between atoms: C_4  and  N_5
REMARK    4  A    between atoms: C_7  and  C_8
REMARK    5  A    between atoms: C_8  and  O_10
REMARK    6  A    between atoms: C_11  and  C_12
REMARK                            x       y       z     vdW  Elec       q    Type
REMARK                         _______ _______ _______ _____ _____    ______ ____
ROOT
ATOM      1  N   UNL     1       5.941   4.718  15.167  0.00  0.00    +0.000 N 
ATOM      2  C   UNL     1       6.854   5.046  16.119  0.00  0.00    +0.000 A 
ATOM      3  C   UNL     1       6.286   4.696  17.334  0.00  0.00    +0.000 A 
ATOM      4  C   UNL     1       4.988   4.176  16.999  0.00  0.00    +0.000 A 
ATOM      5  N   UNL     1       4.788   4.276  15.669  0.00  0.00    +0.000 NA
ENDROOT
BRANCH   4   6
ATOM      6  C   UNL     1       3.911   3.685  17.891  0.00  0.00    +0.000 A 
ATOM      7  C   UNL     1       3.688   2.295  17.955  0.00  0.00    +0.000 A 
ATOM      8  C   UNL     1       2.704   1.753  18.774  0.00  0.00    +0.000 A 
ATOM      9  C   UNL     1       1.948   2.587  19.585  0.00  0.00    +0.000 A 
ATOM     10  C   UNL     1       2.157   3.971  19.586  0.00  0.00    +0.000 A 
ATOM     11  C   UNL     1       1.400   4.772  20.459  0.00  0.00    +0.000 A 
ATOM     12  C   UNL     1       1.574   6.151  20.503  0.00  0.00    +0.000 A 
ATOM     13  C   UNL     1       2.483   6.753  19.653  0.00  0.00    +0.000 A 
ATOM     14  C   UNL     1       3.230   5.971  18.769  0.00  0.00    +0.000 A 
ATOM     15  C   UNL     1       3.126   4.553  18.725  0.00  0.00    +0.000 A 
ENDBRANCH   4   6
BRANCH   3  16
ATOM     16  C   UNL     1       6.930   4.823  18.629  0.00  0.00    +0.000 C 
ATOM     17  O   UNL     1       6.365   5.195  19.646  0.00  0.00    +0.000 OA
BRANCH  16  18
ATOM     18  O   UNL     1       8.254   4.513  18.628  0.00  0.00    +0.000 OA
ATOM     19  H   UNL     1       8.659   4.595  17.743  0.00  0.00    +0.000 HD
ENDBRANCH  16  18
ENDBRANCH   3  16
BRANCH   1  20
ATOM     20  C   UNL     1       6.098   4.818  13.727  0.00  0.00    +0.000 C 
BRANCH  20  21
ATOM     21  C   UNL     1       6.212   3.459  13.051  0.00  0.00    +0.000 C 
BRANCH  21  23
ATOM     22  N   UNL     1       4.129   3.140  11.235  0.00  0.00    +0.000 NA
ATOM     23  C   UNL     1       5.074   3.285  12.059  0.00  0.00    +0.000 C 
ENDBRANCH  21  23
ENDBRANCH  20  21
ENDBRANCH   1  20
TORSDOF 6
ENDMDL
MODEL 6
REMARK VINA RESULT:      -7.4      1.342      1.628
REMARK  Name = 
REMARK  6 active torsions:
REMARK  status: ('A' for Active; 'I' for Inactive)
REMARK    1  A    between atoms: C_2  and  C_3
REMARK    2  A    between atoms: C_3  and  C_4
REMARK    3  A    between atoms: C_4  and  N_5
REMARK    4  A    between atoms: C_7  and  C_8
REMARK    5  A    between atoms: C_8  and  O_10
REMARK    6  A    between atoms: C_11  and  C_12
REMARK                            x       y       z     vdW  Elec       q    Type
REMARK                         _______ _______ _______ _____ _____    ______ ____
ROOT
ATOM      1  N   UNL     1       6.205   5.311  15.555  0.00  0.00    +0.000 N 
ATOM      2  C   UNL     1       7.183   5.538  16.470  0.00  0.00    +0.000 A 
ATOM      3  C   UNL     1       6.551   5.595  17.702  0.00  0.00    +0.000 A 
ATOM      4  C   UNL     1       5.155   5.411  17.410  0.00  0.00    +0.000 A 
ATOM      5  N   UNL     1       4.979   5.314  16.077  0.00  0.00    +0.000 NA
ENDROOT
BRANCH   4   6
ATOM      6  C   UNL     1       3.992   5.419  18.328  0.00  0.00    +0.000 A 
ATOM      7  C   UNL     1       3.545   6.663  18.818  0.00  0.00    +0.000 A 
ATOM      8  C   UNL     1       2.456   6.758  19.676  0.00  0.00    +0.000 A 
ATOM      9  C   UNL     1       1.755   5.614  20.029  0.00  0.00    +0.000 A 
ATOM     10  C   UNL     1       2.135   4.359  19.537  0.00  0.00    +0.000 A 
ATOM     11  C   UNL     1       1.368   3.233  19.883  0.00  0.00    +0.000 A 
ATOM     12  C   UNL     1       1.699   1.966  19.416  0.00  0.00    +0.000 A 
ATOM     13  C   UNL     1       2.820   1.800  18.625  0.00  0.00    +0.000 A 
ATOM     14  C   UNL     1       3.601   2.908  18.287  0.00  0.00    +0.000 A 
ATOM     15  C   UNL     1       3.273   4.230  18.695  0.00  0.00    +0.000 A 
ENDBRANCH   4   6
BRANCH   3  16
ATOM     16  C   UNL     1       7.217   5.773  18.980  0.00  0.00    +0.000 C 
ATOM     17  O   UNL     1       6.927   5.166  19.999  0.00  0.00    +0.000 OA
BRANCH  16  18
ATOM     18  O   UNL     1       8.201   6.711  18.971  0.00  0.00    +0.000 OA
ATOM     19  H   UNL     1       8.908   6.509  18.329  0.00  0.00    +0.000 HD
ENDBRANCH  16  18
ENDBRANCH   3  16
BRANCH   1  20
ATOM     20  C   UNL     1       6.369   5.092  14.128  0.00  0.00    +0.000 C 
BRANCH  20  21
ATOM     21  C   UNL     1       6.303   3.620  13.745  0.00  0.00    +0.000 C 
BRANCH  21  23
ATOM     22  N   UNL     1       4.555   3.289  11.607  0.00  0.00    +0.000 NA
ATOM     23  C   UNL     1       5.348   3.439  12.577  0.00  0.00    +0.000 C 
ENDBRANCH  21  23
ENDBRANCH  20  21
ENDBRANCH   1  20
TORSDOF 6
ENDMDL
MODEL 7
REMARK VINA RESULT:      -7.2      1.596      1.842
REMARK  Name = 
REMARK  6 active torsions:
REMARK  status: ('A' for Active; 'I' for Inactive)
REMARK    1  A    between atoms: C_2  and  C_3
REMARK    2  A    between atoms: C_3  and  C_4
REMARK    3  A    between atoms: C_4  and  N_5
REMARK    4  A    between atoms: C_7  and  C_8
REMARK    5  A    between atoms: C_8  and  O_10
REMARK    6  A    between atoms: C_11  and  C_12
REMARK                            x       y       z     vdW  Elec       q    Type
REMARK                         _______ _______ _______ _____ _____    ______ ____
ROOT
ATOM      1  N   UNL     1       6.181   4.331  15.420  0.00  0.00    +0.000 N 
ATOM      2  C   UNL     1       7.251   4.864  16.066  0.00  0.00    +0.000 A 
ATOM      3  C   UNL     1       6.734   5.643  17.089  0.00  0.00    +0.000 A 
ATOM      4  C   UNL     1       5.307   5.531  16.953  0.00  0.00    +0.000 A 
ATOM      5  N   UNL     1       5.010   4.778  15.875  0.00  0.00    +0.000 NA
ENDROOT
BRANCH   4   6
ATOM      6  C   UNL     1       4.232   6.180  17.740  0.00  0.00    +0.000 A 
ATOM      7  C   UNL     1       3.801   7.461  17.340  0.00  0.00    +0.000 A 
ATOM      8  C   UNL     1       2.792   8.134  18.019  0.00  0.00    +0.000 A 
ATOM      9  C   UNL     1       2.155   7.522  19.089  0.00  0.00    +0.000 A 
ATOM     10  C   UNL     1       2.520   6.235  19.501  0.00  0.00    +0.000 A 
ATOM     11  C   UNL     1       1.816   5.635  20.560  0.00  0.00    +0.000 A 
ATOM     12  C   UNL     1       2.135   4.356  21.003  0.00  0.00    +0.000 A 
ATOM     13  C   UNL     1       3.184   3.671  20.417  0.00  0.00    +0.000 A 
ATOM     14  C   UNL     1       3.902   4.262  19.375  0.00  0.00    +0.000 A 
ATOM     15  C   UNL     1       3.580   5.544  18.852  0.00  0.00    +0.000 A 
ENDBRANCH   4   6
BRANCH   3  16
ATOM     16  C   UNL     1       7.519   6.368  18.071  0.00  0.00    +0.000 C 
ATOM     17  O   UNL     1       7.930   5.887  19.117  0.00  0.00    +0.000 OA
BRANCH  16  18
ATOM     18  O   UNL     1       7.754   7.668  17.751  0.00  0.00    +0.000 OA
ATOM     19  H   UNL     1       8.249   8.144  18.445  0.00  0.00    +0.000 HD
ENDBRANCH  16  18
ENDBRANCH   3  16
BRANCH   1  20
ATOM     20  C   UNL     1       6.201   3.379  14.323  0.00  0.00    +0.000 C 
BRANCH  20  21
ATOM     21  C   UNL     1       6.270   4.052  12.959  0.00  0.00    +0.000 C 
BRANCH  21  23
ATOM     22  N   UNL     1       4.380   2.920  11.261  0.00  0.00    +0.000 NA
ATOM     23  C   UNL     1       5.237   3.434  12.032  0.00  0.00    +0.000 C 
ENDBRANCH  21  23
ENDBRANCH  20  21
ENDBRANCH   1  20
TORSDOF 6
ENDMDL
MODEL 8
REMARK VINA RESULT:      -7.2      1.702      2.965
REMARK  Name = 
REMARK  6 active torsions:
REMARK  status: ('A' for Active; 'I' for Inactive)
REMARK    1  A    between atoms: C_2  and  C_3
REMARK    2  A    between atoms: C_3  and  C_4
REMARK    3  A    between atoms: C_4  and  N_5
REMARK    4  A    between atoms: C_7  and  C_8
REMARK    5  A    between atoms: C_8  and  O_10
REMARK    6  A    between atoms: C_11  and  C_12
REMARK                            x       y       z     vdW  Elec       q    Type
REMARK                         _______ _______ _______ _____ _____    ______ ____
ROOT
ATOM      1  N   UNL     1       6.407   4.422  15.922  0.00  0.00    +0.000 N 
ATOM      2  C   UNL     1       7.388   4.900  16.731  0.00  0.00    +0.000 A 
ATOM      3  C   UNL     1       6.769   5.245  17.922  0.00  0.00    +0.000 A 
ATOM      4  C   UNL     1       5.377   4.952  17.714  0.00  0.00    +0.000 A 
ATOM      5  N   UNL     1       5.188   4.519  16.452  0.00  0.00    +0.000 NA
ENDROOT
BRANCH   4   6
ATOM      6  C   UNL     1       4.225   5.156  18.625  0.00  0.00    +0.000 A 
ATOM      7  C   UNL     1       3.956   4.159  19.583  0.00  0.00    +0.000 A 
ATOM      8  C   UNL     1       2.901   4.277  20.480  0.00  0.00    +0.000 A 
ATOM      9  C   UNL     1       2.115   5.421  20.470  0.00  0.00    +0.000 A 
ATOM     10  C   UNL     1       2.365   6.457  19.563  0.00  0.00    +0.000 A 
ATOM     11  C   UNL     1       1.574   7.617  19.620  0.00  0.00    +0.000 A 
ATOM     12  C   UNL     1       1.786   8.678  18.745  0.00  0.00    +0.000 A 
ATOM     13  C   UNL     1       2.770   8.580  17.780  0.00  0.00    +0.000 A 
ATOM     14  C   UNL     1       3.554   7.426  17.701  0.00  0.00    +0.000 A 
ATOM     15  C   UNL     1       3.410   6.339  18.606  0.00  0.00    +0.000 A 
ENDBRANCH   4   6
BRANCH   3  16
ATOM     16  C   UNL     1       7.444   5.758  19.101  0.00  0.00    +0.000 C 
ATOM     17  O   UNL     1       7.330   5.285  20.222  0.00  0.00    +0.000 OA
BRANCH  16  18
ATOM     18  O   UNL     1       8.220   6.850  18.870  0.00  0.00    +0.000 OA
ATOM     19  H   UNL     1       9.076   6.811  19.339  0.00  0.00    +0.000 HD
ENDBRANCH  16  18
ENDBRANCH   3  16
BRANCH   1  20
ATOM     20  C   UNL     1       6.561   3.858  14.592  0.00  0.00    +0.000 C 
BRANCH  20  21
ATOM     21  C   UNL     1       5.417   4.228  13.658  0.00  0.00    +0.000 C 
BRANCH  21  23
ATOM     22  N   UNL     1       5.336   2.443  11.527  0.00  0.00    +0.000 NA
ATOM     23  C   UNL     1       5.373   3.253  12.494  0.00  0.00    +0.000 C 
ENDBRANCH  21  23
ENDBRANCH  20  21
ENDBRANCH   1  20
TORSDOF 6
ENDMDL
MODEL 9
REMARK VINA RESULT:      -7.1      1.381      1.584
REMARK  Name = 
REMARK  6 active torsions:
REMARK  status: ('A' for Active; 'I' for Inactive)
REMARK    1  A    between atoms: C_2  and  C_3
REMARK    2  A    between atoms: C_3  and  C_4
REMARK    3  A    between atoms: C_4  and  N_5
REMARK    4  A    between atoms: C_7  and  C_8
REMARK    5  A    between atoms: C_8  and  O_10
REMARK    6  A    between atoms: C_11  and  C_12
REMARK                            x       y       z     vdW  Elec       q    Type
REMARK                         _______ _______ _______ _____ _____    ______ ____
ROOT
ATOM      1  N   UNL     1       5.777   4.313  14.957  0.00  0.00    +0.000 N 
ATOM      2  C   UNL     1       6.930   4.579  15.623  0.00  0.00    +0.000 A 
ATOM      3  C   UNL     1       6.555   5.065  16.866  0.00  0.00    +0.000 A 
ATOM      4  C   UNL     1       5.117   5.078  16.837  0.00  0.00    +0.000 A 
ATOM      5  N   UNL     1       4.683   4.680  15.625  0.00  0.00    +0.000 NA
ENDROOT
BRANCH   4   6
ATOM      6  C   UNL     1       4.159   5.538  17.870  0.00  0.00    +0.000 A 
ATOM      7  C   UNL     1       3.632   6.839  17.750  0.00  0.00    +0.000 A 
ATOM      8  C   UNL     1       2.721   7.344  18.671  0.00  0.00    +0.000 A 
ATOM      9  C   UNL     1       2.278   6.540  19.711  0.00  0.00    +0.000 A 
ATOM     10  C   UNL     1       2.741   5.226  19.852  0.00  0.00    +0.000 A 
ATOM     11  C   UNL     1       2.230   4.433  20.893  0.00  0.00    +0.000 A 
ATOM     12  C   UNL     1       2.652   3.119  21.072  0.00  0.00    +0.000 A 
ATOM     13  C   UNL     1       3.617   2.592  20.233  0.00  0.00    +0.000 A 
ATOM     14  C   UNL     1       4.146   3.375  19.205  0.00  0.00    +0.000 A 
ATOM     15  C   UNL     1       3.707   4.703  18.949  0.00  0.00    +0.000 A 
ENDBRANCH   4   6
BRANCH   3  16
ATOM     16  C   UNL     1       7.466   5.435  17.933  0.00  0.00    +0.000 C 
ATOM     17  O   UNL     1       7.940   4.649  18.739  0.00  0.00    +0.000 OA
BRANCH  16  18
ATOM     18  O   UNL     1       7.746   6.764  17.993  0.00  0.00    +0.000 OA
ATOM     19  H   UNL     1       7.390   7.259  17.231  0.00  0.00    +0.000 HD
ENDBRANCH  16  18
ENDBRANCH   3  16
BRANCH   1  20
ATOM     20  C   UNL     1       5.639   3.711  13.642  0.00  0.00    +0.000 C 
BRANCH  20  21
ATOM     21  C   UNL     1       6.795   4.053  12.713  0.00  0.00    +0.000 C 
BRANCH  21  23
ATOM     22  N   UNL     1       7.303   1.904  11.022  0.00  0.00    +0.000 NA
ATOM     23  C   UNL     1       7.073   2.879  11.790  0.00  0.00    +0.000 C 
ENDBRANCH  21  23
ENDBRANCH  20  21
ENDBRANCH   1  20
TORSDOF 6
ENDMDL
