MODEL 1
REMARK VINA RESULT:      -8.7      0.000      0.000
REMARK  Name = 
REMARK  11 active torsions:
REMARK  status: ('A' for Active; 'I' for Inactive)
REMARK    1  A    between atoms: C_1  and  O_2
REMARK    2  A    between atoms: O_2  and  C_3
REMARK    3  A    between atoms: C_6  and  C_7
REMARK    4  A    between atoms: C_7  and  C_8
REMARK    5  A    between atoms: C_8  and  N_9
REMARK    6  A    between atoms: C_15  and  C_16
REMARK    7  A    between atoms: C_21  and  O_22
REMARK    8  A    between atoms: C_24  and  C_25
REMARK    9  A    between atoms: C_28  and  C_29
REMARK   10  A    between atoms: C_33  and  O_34
REMARK   11  A    between atoms: O_34  and  C_35
REMARK                            x       y       z     vdW  Elec       q    Type
REMARK                         _______ _______ _______ _____ _____    ______ ____
ROOT
ATOM      1  N   UNL     1       6.343   6.516  17.480  0.00  0.00    +0.000 N 
ATOM      2  C   UNL     1       6.679   5.556  16.520  0.00  0.00    +0.000 C 
ATOM      3  O   UNL     1       7.486   5.639  15.611  0.00  0.00    +0.000 OA
ATOM      4  C   UNL     1       5.831   4.468  16.826  0.00  0.00    +0.000 A 
ATOM      5  N   UNL     1       5.527   3.264  16.329  0.00  0.00    +0.000 N 
ATOM      6  N   UNL     1       4.513   2.686  17.017  0.00  0.00    +0.000 NA
ATOM      7  C   UNL     1       4.188   3.568  18.000  0.00  0.00    +0.000 A 
ATOM      8  C   UNL     1       5.023   4.700  17.902  0.00  0.00    +0.000 A 
ATOM      9  C   UNL     1       5.332   6.035  18.473  0.00  0.00    +0.000 C 
ATOM     10  H   UNL     1       5.918   2.781  15.528  0.00  0.00    +0.000 HD
ENDROOT
BRANCH   9  11
ATOM     11  C   UNL     1       4.096   6.898  18.547  0.00  0.00    +0.000 A 
ATOM     12  C   UNL     1       3.834   7.772  17.474  0.00  0.00    +0.000 A 
ATOM     13  C   UNL     1       2.708   8.596  17.468  0.00  0.00    +0.000 A 
ATOM     14  C   UNL     1       1.813   8.568  18.539  0.00  0.00    +0.000 A 
ATOM     15  C   UNL     1       0.622   9.479  18.573  0.00  0.00    +0.000 C 
ATOM     16  C   UNL     1       2.047   7.686  19.599  0.00  0.00    +0.000 A 
ATOM     17  C   UNL     1       3.163   6.847  19.595  0.00  0.00    +0.000 A 
ENDBRANCH   9  11
BRANCH   7  18
ATOM     18  C   UNL     1       3.067   3.291  18.909  0.00  0.00    +0.000 A 
ATOM     19  C   UNL     1       3.345   2.990  20.259  0.00  0.00    +0.000 A 
ATOM     20  C   UNL     1       2.320   2.701  21.166  0.00  0.00    +0.000 A 
ATOM     21  C   UNL     1       0.998   2.698  20.738  0.00  0.00    +0.000 A 
ATOM     22  C   UNL     1       0.698   2.997  19.409  0.00  0.00    +0.000 A 
ATOM     23  C   UNL     1       1.724   3.305  18.506  0.00  0.00    +0.000 A 
BRANCH  23  24
ATOM     24  O   UNL     1       1.381   3.661  17.229  0.00  0.00    +0.000 OA
ATOM     25  H   UNL     1       1.947   3.171  16.611  0.00  0.00    +0.000 HD
ENDBRANCH  23  24
ENDBRANCH   7  18
BRANCH   1  26
ATOM     26  C   UNL     1       6.842   7.881  17.446  0.00  0.00    +0.000 C 
BRANCH  26  27
ATOM     27  C   UNL     1       8.178   8.070  18.167  0.00  0.00    +0.000 C 
BRANCH  27  31
ATOM     28  C   UNL     1       9.025  12.293  18.652  0.00  0.00    +0.000 A 
ATOM     29  C   UNL     1       8.181  11.840  17.626  0.00  0.00    +0.000 A 
ATOM     30  C   UNL     1       7.917  10.479  17.455  0.00  0.00    +0.000 A 
ATOM     31  C   UNL     1       8.527   9.535  18.281  0.00  0.00    +0.000 A 
ATOM     32  C   UNL     1       9.430   9.984  19.255  0.00  0.00    +0.000 A 
ATOM     33  C   UNL     1       9.697  11.352  19.446  0.00  0.00    +0.000 A 
BRANCH  28  35
ATOM     34  C   UNL     1       9.756  14.367  17.763  0.00  0.00    +0.000 C 
ATOM     35  O   UNL     1       9.222  13.631  18.865  0.00  0.00    +0.000 OA
ENDBRANCH  28  35
BRANCH  33  36
ATOM     36  O   UNL     1      10.604  11.561  20.453  0.00  0.00    +0.000 OA
ATOM     37  C   UNL     1      11.935  11.924  20.122  0.00  0.00    +0.000 C 
ENDBRANCH  33  36
ENDBRANCH  27  31
ENDBRANCH  26  27
ENDBRANCH   1  26
TORSDOF 8
ENDMDL
MODEL 2
REMARK VINA RESULT:      -8.5      0.682      1.534
REMARK  Name = 
REMARK  11 active torsions:
REMARK  status: ('A' for Active; 'I' for Inactive)
REMARK    1  A    between atoms: C_1  and  O_2
REMARK    2  A    between atoms: O_2  and  C_3
REMARK    3  A    between atoms: C_6  and  C_7
REMARK    4  A    between atoms: C_7  and  C_8
REMARK    5  A    between atoms: C_8  and  N_9
REMARK    6  A    between atoms: C_15  and  C_16
REMARK    7  A    between atoms: C_21  and  O_22
REMARK    8  A    between atoms: C_24  and  C_25
REMARK    9  A    between atoms: C_28  and  C_29
REMARK   10  A    between atoms: C_33  and  O_34
REMARK   11  A    between atoms: O_34  and  C_35
REMARK                            x       y       z     vdW  Elec       q    Type
REMARK                         _______ _______ _______ _____ _____    ______ ____
ROOT
ATOM      1  N   UNL     1       6.241   6.583  17.502  0.00  0.00    +0.000 N 
ATOM      2  C   UNL     1       6.573   5.621  16.544  0.00  0.00    +0.000 C 
ATOM      3  O   UNL     1       7.368   5.707  15.623  0.00  0.00    +0.000 OA
ATOM      4  C   UNL     1       5.741   4.527  16.867  0.00  0.00    +0.000 A 
ATOM      5  N   UNL     1       5.442   3.316  16.382  0.00  0.00    +0.000 N 
ATOM      6  N   UNL     1       4.444   2.732  17.086  0.00  0.00    +0.000 NA
ATOM      7  C   UNL     1       4.122   3.617  18.068  0.00  0.00    +0.000 A 
ATOM      8  C   UNL     1       4.944   4.757  17.952  0.00  0.00    +0.000 A 
ATOM      9  C   UNL     1       5.247   6.099  18.511  0.00  0.00    +0.000 C 
ATOM     10  H   UNL     1       5.827   2.832  15.578  0.00  0.00    +0.000 HD
ENDROOT
BRANCH   9  11
ATOM     11  C   UNL     1       4.004   6.950  18.595  0.00  0.00    +0.000 A 
ATOM     12  C   UNL     1       3.707   7.798  17.511  0.00  0.00    +0.000 A 
ATOM     13  C   UNL     1       2.572   8.610  17.515  0.00  0.00    +0.000 A 
ATOM     14  C   UNL     1       1.702   8.595  18.607  0.00  0.00    +0.000 A 
ATOM     15  C   UNL     1       0.503   9.493  18.650  0.00  0.00    +0.000 C 
ATOM     16  C   UNL     1       1.970   7.737  19.679  0.00  0.00    +0.000 A 
ATOM     17  C   UNL     1       3.096   6.910  19.666  0.00  0.00    +0.000 A 
ENDBRANCH   9  11
BRANCH   7  18
ATOM     18  C   UNL     1       3.016   3.334  18.993  0.00  0.00    +0.000 A 
ATOM     19  C   UNL     1       3.315   3.029  20.337  0.00  0.00    +0.000 A 
ATOM     20  C   UNL     1       2.306   2.735  21.259  0.00  0.00    +0.000 A 
ATOM     21  C   UNL     1       0.977   2.731  20.852  0.00  0.00    +0.000 A 
ATOM     22  C   UNL     1       0.656   3.035  19.529  0.00  0.00    +0.000 A 
ATOM     23  C   UNL     1       1.667   3.348  18.612  0.00  0.00    +0.000 A 
BRANCH  23  24
ATOM     24  O   UNL     1       1.303   3.708  17.341  0.00  0.00    +0.000 OA
ATOM     25  H   UNL     1       0.729   3.014  16.978  0.00  0.00    +0.000 HD
ENDBRANCH  23  24
ENDBRANCH   7  18
BRANCH   1  26
ATOM     26  C   UNL     1       6.725   7.953  17.453  0.00  0.00    +0.000 C 
BRANCH  26  27
ATOM     27  C   UNL     1       8.207   8.099  17.807  0.00  0.00    +0.000 C 
BRANCH  27  31
ATOM     28  C   UNL     1       9.263  12.115  19.048  0.00  0.00    +0.000 A 
ATOM     29  C   UNL     1       9.606  11.003  19.834  0.00  0.00    +0.000 A 
ATOM     30  C   UNL     1       9.254   9.708  19.447  0.00  0.00    +0.000 A 
ATOM     31  C   UNL     1       8.512   9.499  18.285  0.00  0.00    +0.000 A 
ATOM     32  C   UNL     1       8.104  10.616  17.542  0.00  0.00    +0.000 A 
ATOM     33  C   UNL     1       8.461  11.924  17.913  0.00  0.00    +0.000 A 
BRANCH  28  35
ATOM     34  C   UNL     1      10.909  13.806  18.816  0.00  0.00    +0.000 C 
ATOM     35  O   UNL     1       9.675  13.375  19.390  0.00  0.00    +0.000 OA
ENDBRANCH  28  35
BRANCH  33  36
ATOM     36  O   UNL     1       7.960  12.858  17.043  0.00  0.00    +0.000 OA
ATOM     37  C   UNL     1       6.986  13.781  17.502  0.00  0.00    +0.000 C 
ENDBRANCH  33  36
ENDBRANCH  27  31
ENDBRANCH  26  27
ENDBRANCH   1  26
TORSDOF 8
ENDMDL
MODEL 3
REMARK VINA RESULT:      -8.5      0.890      1.422
REMARK  Name = 
REMARK  11 active torsions:
REMARK  status: ('A' for Active; 'I' for Inactive)
REMARK    1  A    between atoms: C_1  and  O_2
REMARK    2  A    between atoms: O_2  and  C_3
REMARK    3  A    between atoms: C_6  and  C_7
REMARK    4  A    between atoms: C_7  and  C_8
REMARK    5  A    between atoms: C_8  and  N_9
REMARK    6  A    between atoms: C_15  and  C_16
REMARK    7  A    between atoms: C_21  and  O_22
REMARK    8  A    between atoms: C_24  and  C_25
REMARK    9  A    between atoms: C_28  and  C_29
REMARK   10  A    between atoms: C_33  and  O_34
REMARK   11  A    between atoms: O_34  and  C_35
REMARK                            x       y       z     vdW  Elec       q    Type
REMARK                         _______ _______ _______ _____ _____    ______ ____
ROOT
ATOM      1  N   UNL     1       6.481   6.660  17.309  0.00  0.00    +0.000 N 
ATOM      2  C   UNL     1       6.901   5.794  16.297  0.00  0.00    +0.000 C 
ATOM      3  O   UNL     1       7.765   5.970  15.454  0.00  0.00    +0.000 OA
ATOM      4  C   UNL     1       6.063   4.668  16.452  0.00  0.00    +0.000 A 
ATOM      5  N   UNL     1       5.821   3.505  15.835  0.00  0.00    +0.000 N 
ATOM      6  N   UNL     1       4.779   2.851  16.401  0.00  0.00    +0.000 NA
ATOM      7  C   UNL     1       4.368   3.638  17.432  0.00  0.00    +0.000 A 
ATOM      8  C   UNL     1       5.180   4.791  17.486  0.00  0.00    +0.000 A 
ATOM      9  C   UNL     1       5.419   6.077  18.188  0.00  0.00    +0.000 C 
ATOM     10  H   UNL     1       6.275   3.100  15.024  0.00  0.00    +0.000 HD
ENDROOT
BRANCH   9  11
ATOM     11  C   UNL     1       4.160   6.907  18.251  0.00  0.00    +0.000 A 
ATOM     12  C   UNL     1       3.353   6.800  19.400  0.00  0.00    +0.000 A 
ATOM     13  C   UNL     1       2.178   7.540  19.532  0.00  0.00    +0.000 A 
ATOM     14  C   UNL     1       1.778   8.410  18.517  0.00  0.00    +0.000 A 
ATOM     15  C   UNL     1       0.495   9.180  18.620  0.00  0.00    +0.000 C 
ATOM     16  C   UNL     1       2.584   8.548  17.382  0.00  0.00    +0.000 A 
ATOM     17  C   UNL     1       3.770   7.821  17.258  0.00  0.00    +0.000 A 
ENDBRANCH   9  11
BRANCH   7  18
ATOM     18  C   UNL     1       3.198   3.263  18.236  0.00  0.00    +0.000 A 
ATOM     19  C   UNL     1       1.960   3.883  17.967  0.00  0.00    +0.000 A 
ATOM     20  C   UNL     1       0.816   3.578  18.711  0.00  0.00    +0.000 A 
ATOM     21  C   UNL     1       0.889   2.655  19.746  0.00  0.00    +0.000 A 
ATOM     22  C   UNL     1       2.102   2.025  20.029  0.00  0.00    +0.000 A 
ATOM     23  C   UNL     1       3.242   2.317  19.270  0.00  0.00    +0.000 A 
BRANCH  23  24
ATOM     24  O   UNL     1       4.394   1.625  19.535  0.00  0.00    +0.000 OA
ATOM     25  H   UNL     1       5.085   2.261  19.782  0.00  0.00    +0.000 HD
ENDBRANCH  23  24
ENDBRANCH   7  18
BRANCH   1  26
ATOM     26  C   UNL     1       6.947   8.033  17.424  0.00  0.00    +0.000 C 
BRANCH  26  27
ATOM     27  C   UNL     1       8.213   8.187  18.269  0.00  0.00    +0.000 C 
BRANCH  27  31
ATOM     28  C   UNL     1       9.281  12.370  18.661  0.00  0.00    +0.000 A 
ATOM     29  C   UNL     1       8.367  11.947  17.682  0.00  0.00    +0.000 A 
ATOM     30  C   UNL     1       8.032  10.598  17.541  0.00  0.00    +0.000 A 
ATOM     31  C   UNL     1       8.636   9.635  18.349  0.00  0.00    +0.000 A 
ATOM     32  C   UNL     1       9.605  10.050  19.272  0.00  0.00    +0.000 A 
ATOM     33  C   UNL     1       9.945  11.406  19.433  0.00  0.00    +0.000 A 
BRANCH  28  35
ATOM     34  C   UNL     1      10.265  14.345  17.793  0.00  0.00    +0.000 C 
ATOM     35  O   UNL     1       9.550  13.699  18.847  0.00  0.00    +0.000 OA
ENDBRANCH  28  35
BRANCH  33  36
ATOM     36  O   UNL     1      10.908  11.582  20.393  0.00  0.00    +0.000 OA
ATOM     37  C   UNL     1      12.219  11.955  19.998  0.00  0.00    +0.000 C 
ENDBRANCH  33  36
ENDBRANCH  27  31
ENDBRANCH  26  27
ENDBRANCH   1  26
TORSDOF 8
ENDMDL
MODEL 4
REMARK VINA RESULT:      -8.5      0.981      1.292
REMARK  Name = 
REMARK  11 active torsions:
REMARK  status: ('A' for Active; 'I' for Inactive)
REMARK    1  A    between atoms: C_1  and  O_2
REMARK    2  A    between atoms: O_2  and  C_3
REMARK    3  A    between atoms: C_6  and  C_7
REMARK    4  A    between atoms: C_7  and  C_8
REMARK    5  A    between atoms: C_8  and  N_9
REMARK    6  A    between atoms: C_15  and  C_16
REMARK    7  A    between atoms: C_21  and  O_22
REMARK    8  A    between atoms: C_24  and  C_25
REMARK    9  A    between atoms: C_28  and  C_29
REMARK   10  A    between atoms: C_33  and  O_34
REMARK   11  A    between atoms: O_34  and  C_35
REMARK                            x       y       z     vdW  Elec       q    Type
REMARK                         _______ _______ _______ _____ _____    ______ ____
ROOT
ATOM      1  N   UNL     1       6.507   6.552  17.366  0.00  0.00    +0.000 N 
ATOM      2  C   UNL     1       6.880   5.667  16.351  0.00  0.00    +0.000 C 
ATOM      3  O   UNL     1       7.707   5.827  15.469  0.00  0.00    +0.000 OA
ATOM      4  C   UNL     1       6.045   4.547  16.560  0.00  0.00    +0.000 A 
ATOM      5  N   UNL     1       5.773   3.376  15.972  0.00  0.00    +0.000 N 
ATOM      6  N   UNL     1       4.755   2.735  16.593  0.00  0.00    +0.000 NA
ATOM      7  C   UNL     1       4.391   3.541  17.627  0.00  0.00    +0.000 A 
ATOM      8  C   UNL     1       5.209   4.691  17.629  0.00  0.00    +0.000 A 
ATOM      9  C   UNL     1       5.481   5.987  18.299  0.00  0.00    +0.000 C 
ATOM     10  H   UNL     1       6.191   2.957  15.149  0.00  0.00    +0.000 HD
ENDROOT
BRANCH   9  11
ATOM     11  C   UNL     1       4.230   6.823  18.402  0.00  0.00    +0.000 A 
ATOM     12  C   UNL     1       3.948   7.726  17.359  0.00  0.00    +0.000 A 
ATOM     13  C   UNL     1       2.806   8.528  17.382  0.00  0.00    +0.000 A 
ATOM     14  C   UNL     1       1.914   8.448  18.453  0.00  0.00    +0.000 A 
ATOM     15  C   UNL     1       0.707   9.334  18.519  0.00  0.00    +0.000 C 
ATOM     16  C   UNL     1       2.168   7.537  19.483  0.00  0.00    +0.000 A 
ATOM     17  C   UNL     1       3.300   6.720  19.450  0.00  0.00    +0.000 A 
ENDBRANCH   9  11
BRANCH   7  18
ATOM     18  C   UNL     1       3.255   3.183  18.488  0.00  0.00    +0.000 A 
ATOM     19  C   UNL     1       1.947   3.442  18.029  0.00  0.00    +0.000 A 
ATOM     20  C   UNL     1       0.828   3.138  18.811  0.00  0.00    +0.000 A 
ATOM     21  C   UNL     1       0.996   2.580  20.072  0.00  0.00    +0.000 A 
ATOM     22  C   UNL     1       2.280   2.311  20.546  0.00  0.00    +0.000 A 
ATOM     23  C   UNL     1       3.399   2.597  19.753  0.00  0.00    +0.000 A 
BRANCH  23  24
ATOM     24  O   UNL     1       4.636   2.253  20.228  0.00  0.00    +0.000 OA
ATOM     25  H   UNL     1       4.543   1.969  21.152  0.00  0.00    +0.000 HD
ENDBRANCH  23  24
ENDBRANCH   7  18
BRANCH   1  26
ATOM     26  C   UNL     1       6.982   7.924  17.439  0.00  0.00    +0.000 C 
BRANCH  26  27
ATOM     27  C   UNL     1       8.219   8.104  18.322  0.00  0.00    +0.000 C 
BRANCH  27  31
ATOM     28  C   UNL     1       9.111  12.323  18.758  0.00  0.00    +0.000 A 
ATOM     29  C   UNL     1       8.507  11.830  17.590  0.00  0.00    +0.000 A 
ATOM     30  C   UNL     1       8.232  10.470  17.438  0.00  0.00    +0.000 A 
ATOM     31  C   UNL     1       8.594   9.563  18.434  0.00  0.00    +0.000 A 
ATOM     32  C   UNL     1       9.267  10.046  19.565  0.00  0.00    +0.000 A 
ATOM     33  C   UNL     1       9.540  11.415  19.737  0.00  0.00    +0.000 A 
BRANCH  28  35
ATOM     34  C   UNL     1      10.010  14.338  17.890  0.00  0.00    +0.000 C 
ATOM     35  O   UNL     1       9.310  13.666  18.937  0.00  0.00    +0.000 OA
ENDBRANCH  28  35
BRANCH  33  36
ATOM     36  O   UNL     1      10.199  11.661  20.914  0.00  0.00    +0.000 OA
ATOM     37  C   UNL     1       9.496  12.270  21.987  0.00  0.00    +0.000 C 
ENDBRANCH  33  36
ENDBRANCH  27  31
ENDBRANCH  26  27
ENDBRANCH   1  26
TORSDOF 8
ENDMDL
MODEL 5
REMARK VINA RESULT:      -8.4      4.743      8.940
REMARK  Name = 
REMARK  11 active torsions:
REMARK  status: ('A' for Active; 'I' for Inactive)
REMARK    1  A    between atoms: C_1  and  O_2
REMARK    2  A    between atoms: O_2  and  C_3
REMARK    3  A    between atoms: C_6  and  C_7
REMARK    4  A    between atoms: C_7  and  C_8
REMARK    5  A    between atoms: C_8  and  N_9
REMARK    6  A    between atoms: C_15  and  C_16
REMARK    7  A    between atoms: C_21  and  O_22
REMARK    8  A    between atoms: C_24  and  C_25
REMARK    9  A    between atoms: C_28  and  C_29
REMARK   10  A    between atoms: C_33  and  O_34
REMARK   11  A    between atoms: O_34  and  C_35
REMARK                            x       y       z     vdW  Elec       q    Type
REMARK                         _______ _______ _______ _____ _____    ______ ____
ROOT
ATOM      1  N   UNL     1       1.003   9.211  19.577  0.00  0.00    +0.000 N 
ATOM      2  C   UNL     1       1.236   8.499  20.757  0.00  0.00    +0.000 C 
ATOM      3  O   UNL     1       1.775   7.415  20.898  0.00  0.00    +0.000 OA
ATOM      4  C   UNL     1       0.665   9.317  21.758  0.00  0.00    +0.000 A 
ATOM      5  N   UNL     1       0.436   9.276  23.076  0.00  0.00    +0.000 N 
ATOM      6  N   UNL     1      -0.278  10.349  23.488  0.00  0.00    +0.000 NA
ATOM      7  C   UNL     1      -0.485  11.102  22.374  0.00  0.00    +0.000 A 
ATOM      8  C   UNL     1       0.118  10.467  21.268  0.00  0.00    +0.000 A 
ATOM      9  C   UNL     1       0.350  10.539  19.803  0.00  0.00    +0.000 C 
ATOM     10  H   UNL     1       0.689   8.562  23.751  0.00  0.00    +0.000 HD
ENDROOT
BRANCH   9  11
ATOM     11  C   UNL     1      -0.947  10.713  19.052  0.00  0.00    +0.000 A 
ATOM     12  C   UNL     1      -1.524  11.996  19.015  0.00  0.00    +0.000 A 
ATOM     13  C   UNL     1      -2.719  12.236  18.336  0.00  0.00    +0.000 A 
ATOM     14  C   UNL     1      -3.370  11.194  17.673  0.00  0.00    +0.000 A 
ATOM     15  C   UNL     1      -4.678  11.420  16.977  0.00  0.00    +0.000 C 
ATOM     16  C   UNL     1      -2.794   9.919  17.678  0.00  0.00    +0.000 A 
ATOM     17  C   UNL     1      -1.588   9.684  18.342  0.00  0.00    +0.000 A 
ENDBRANCH   9  11
BRANCH   7  18
ATOM     18  C   UNL     1      -1.294  12.326  22.441  0.00  0.00    +0.000 A 
ATOM     19  C   UNL     1      -2.692  12.211  22.594  0.00  0.00    +0.000 A 
ATOM     20  C   UNL     1      -3.514  13.340  22.646  0.00  0.00    +0.000 A 
ATOM     21  C   UNL     1      -2.956  14.608  22.536  0.00  0.00    +0.000 A 
ATOM     22  C   UNL     1      -1.576  14.748  22.389  0.00  0.00    +0.000 A 
ATOM     23  C   UNL     1      -0.751  13.616  22.356  0.00  0.00    +0.000 A 
BRANCH  23  24
ATOM     24  O   UNL     1       0.603  13.801  22.280  0.00  0.00    +0.000 OA
ATOM     25  H   UNL     1       0.872  14.399  22.997  0.00  0.00    +0.000 HD
ENDBRANCH  23  24
ENDBRANCH   7  18
BRANCH   1  26
ATOM     26  C   UNL     1       1.264   8.665  18.256  0.00  0.00    +0.000 C 
BRANCH  26  27
ATOM     27  C   UNL     1       2.751   8.555  17.914  0.00  0.00    +0.000 C 
BRANCH  27  31
ATOM     28  C   UNL     1       3.919   4.410  17.422  0.00  0.00    +0.000 A 
ATOM     29  C   UNL     1       2.657   4.748  17.936  0.00  0.00    +0.000 A 
ATOM     30  C   UNL     1       2.281   6.081  18.112  0.00  0.00    +0.000 A 
ATOM     31  C   UNL     1       3.177   7.109  17.817  0.00  0.00    +0.000 A 
ATOM     32  C   UNL     1       4.464   6.768  17.377  0.00  0.00    +0.000 A 
ATOM     33  C   UNL     1       4.852   5.430  17.184  0.00  0.00    +0.000 A 
BRANCH  28  35
ATOM     34  C   UNL     1       3.477   2.122  17.863  0.00  0.00    +0.000 C 
ATOM     35  O   UNL     1       4.256   3.105  17.179  0.00  0.00    +0.000 OA
ENDBRANCH  28  35
BRANCH  33  36
ATOM     36  O   UNL     1       6.147   5.330  16.746  0.00  0.00    +0.000 OA
ATOM     37  C   UNL     1       7.199   5.285  17.697  0.00  0.00    +0.000 C 
ENDBRANCH  33  36
ENDBRANCH  27  31
ENDBRANCH  26  27
ENDBRANCH   1  26
TORSDOF 8
ENDMDL
MODEL 6
REMARK VINA RESULT:      -8.4      5.066      9.272
REMARK  Name = 
REMARK  11 active torsions:
REMARK  status: ('A' for Active; 'I' for Inactive)
REMARK    1  A    between atoms: C_1  and  O_2
REMARK    2  A    between atoms: O_2  and  C_3
REMARK    3  A    between atoms: C_6  and  C_7
REMARK    4  A    between atoms: C_7  and  C_8
REMARK    5  A    between atoms: C_8  and  N_9
REMARK    6  A    between atoms: C_15  and  C_16
REMARK    7  A    between atoms: C_21  and  O_22
REMARK    8  A    between atoms: C_24  and  C_25
REMARK    9  A    between atoms: C_28  and  C_29
REMARK   10  A    between atoms: C_33  and  O_34
REMARK   11  A    between atoms: O_34  and  C_35
REMARK                            x       y       z     vdW  Elec       q    Type
REMARK                         _______ _______ _______ _____ _____    ______ ____
ROOT
ATOM      1  N   UNL     1       1.225   9.023  19.564  0.00  0.00    +0.000 N 
ATOM      2  C   UNL     1       1.295   8.307  20.762  0.00  0.00    +0.000 C 
ATOM      3  O   UNL     1       1.703   7.173  20.949  0.00  0.00    +0.000 OA
ATOM      4  C   UNL     1       0.743   9.193  21.713  0.00  0.00    +0.000 A 
ATOM      5  N   UNL     1       0.415   9.195  23.011  0.00  0.00    +0.000 N 
ATOM      6  N   UNL     1      -0.209  10.344  23.363  0.00  0.00    +0.000 NA
ATOM      7  C   UNL     1      -0.252  11.099  22.232  0.00  0.00    +0.000 A 
ATOM      8  C   UNL     1       0.359  10.388  21.177  0.00  0.00    +0.000 A 
ATOM      9  C   UNL     1       0.703  10.415  19.733  0.00  0.00    +0.000 C 
ATOM     10  H   UNL     1       0.540   8.468  23.707  0.00  0.00    +0.000 HD
ENDROOT
BRANCH   9  11
ATOM     11  C   UNL     1      -0.510  10.715  18.887  0.00  0.00    +0.000 A 
ATOM     12  C   UNL     1      -1.451   9.686  18.689  0.00  0.00    +0.000 A 
ATOM     13  C   UNL     1      -2.599   9.891  17.924  0.00  0.00    +0.000 A 
ATOM     14  C   UNL     1      -2.838  11.133  17.334  0.00  0.00    +0.000 A 
ATOM     15  C   UNL     1      -4.042  11.359  16.471  0.00  0.00    +0.000 C 
ATOM     16  C   UNL     1      -1.925  12.173  17.545  0.00  0.00    +0.000 A 
ATOM     17  C   UNL     1      -0.786  11.973  18.327  0.00  0.00    +0.000 A 
ENDBRANCH   9  11
BRANCH   7  18
ATOM     18  C   UNL     1      -0.929  12.403  22.231  0.00  0.00    +0.000 A 
ATOM     19  C   UNL     1      -0.307  13.491  21.584  0.00  0.00    +0.000 A 
ATOM     20  C   UNL     1      -0.896  14.759  21.565  0.00  0.00    +0.000 A 
ATOM     21  C   UNL     1      -2.113  14.967  22.202  0.00  0.00    +0.000 A 
ATOM     22  C   UNL     1      -2.749  13.905  22.845  0.00  0.00    +0.000 A 
ATOM     23  C   UNL     1      -2.168  12.631  22.846  0.00  0.00    +0.000 A 
BRANCH  23  24
ATOM     24  O   UNL     1      -2.859  11.602  23.428  0.00  0.00    +0.000 OA
ATOM     25  H   UNL     1      -2.309  11.221  24.131  0.00  0.00    +0.000 HD
ENDBRANCH  23  24
ENDBRANCH   7  18
BRANCH   1  26
ATOM     26  C   UNL     1       1.522   8.434  18.268  0.00  0.00    +0.000 C 
BRANCH  26  27
ATOM     27  C   UNL     1       2.995   8.064  18.079  0.00  0.00    +0.000 C 
BRANCH  27  31
ATOM     28  C   UNL     1       3.519   3.790  17.587  0.00  0.00    +0.000 A 
ATOM     29  C   UNL     1       4.502   4.692  17.151  0.00  0.00    +0.000 A 
ATOM     30  C   UNL     1       4.332   6.071  17.292  0.00  0.00    +0.000 A 
ATOM     31  C   UNL     1       3.152   6.582  17.835  0.00  0.00    +0.000 A 
ATOM     32  C   UNL     1       2.140   5.683  18.198  0.00  0.00    +0.000 A 
ATOM     33  C   UNL     1       2.302   4.292  18.072  0.00  0.00    +0.000 A 
BRANCH  28  35
ATOM     34  C   UNL     1       3.841   1.759  18.767  0.00  0.00    +0.000 C 
ATOM     35  O   UNL     1       3.721   2.438  17.516  0.00  0.00    +0.000 OA
ENDBRANCH  28  35
BRANCH  33  36
ATOM     36  O   UNL     1       1.191   3.607  18.490  0.00  0.00    +0.000 OA
ATOM     37  C   UNL     1       0.852   3.612  19.868  0.00  0.00    +0.000 C 
ENDBRANCH  33  36
ENDBRANCH  27  31
ENDBRANCH  26  27
ENDBRANCH   1  26
TORSDOF 8
ENDMDL
MODEL 7
REMARK VINA RESULT:      -8.4      4.971      9.270
REMARK  Name = 
REMARK  11 active torsions:
REMARK  status: ('A' for Active; 'I' for Inactive)
REMARK    1  A    between atoms: C_1  and  O_2
REMARK    2  A    between atoms: O_2  and  C_3
REMARK    3  A    between atoms: C_6  and  C_7
REMARK    4  A    between atoms: C_7  and  C_8
REMARK    5  A    between atoms: C_8  and  N_9
REMARK    6  A    between atoms: C_15  and  C_16
REMARK    7  A    between atoms: C_21  and  O_22
REMARK    8  A    between atoms: C_24  and  C_25
REMARK    9  A    between atoms: C_28  and  C_29
REMARK   10  A    between atoms: C_33  and  O_34
REMARK   11  A    between atoms: O_34  and  C_35
REMARK                            x       y       z     vdW  Elec       q    Type
REMARK                         _______ _______ _______ _____ _____    ______ ____
ROOT
ATOM      1  N   UNL     1       1.023   9.212  19.575  0.00  0.00    +0.000 N 
ATOM      2  C   UNL     1       1.254   8.496  20.753  0.00  0.00    +0.000 C 
ATOM      3  O   UNL     1       1.791   7.410  20.891  0.00  0.00    +0.000 OA
ATOM      4  C   UNL     1       0.684   9.310  21.756  0.00  0.00    +0.000 A 
ATOM      5  N   UNL     1       0.454   9.266  23.074  0.00  0.00    +0.000 N 
ATOM      6  N   UNL     1      -0.259  10.339  23.489  0.00  0.00    +0.000 NA
ATOM      7  C   UNL     1      -0.464  11.096  22.377  0.00  0.00    +0.000 A 
ATOM      8  C   UNL     1       0.139  10.463  21.269  0.00  0.00    +0.000 A 
ATOM      9  C   UNL     1       0.372  10.540  19.805  0.00  0.00    +0.000 C 
ATOM     10  H   UNL     1       0.705   8.550  23.747  0.00  0.00    +0.000 HD
ENDROOT
BRANCH   9  11
ATOM     11  C   UNL     1      -0.924  10.718  19.053  0.00  0.00    +0.000 A 
ATOM     12  C   UNL     1      -1.513  11.997  19.044  0.00  0.00    +0.000 A 
ATOM     13  C   UNL     1      -2.709  12.240  18.366  0.00  0.00    +0.000 A 
ATOM     14  C   UNL     1      -3.347  11.207  17.677  0.00  0.00    +0.000 A 
ATOM     15  C   UNL     1      -4.655  11.437  16.981  0.00  0.00    +0.000 C 
ATOM     16  C   UNL     1      -2.758   9.938  17.655  0.00  0.00    +0.000 A 
ATOM     17  C   UNL     1      -1.552   9.700  18.317  0.00  0.00    +0.000 A 
ENDBRANCH   9  11
BRANCH   7  18
ATOM     18  C   UNL     1      -1.271  12.321  22.447  0.00  0.00    +0.000 A 
ATOM     19  C   UNL     1      -2.667  12.208  22.612  0.00  0.00    +0.000 A 
ATOM     20  C   UNL     1      -3.487  13.339  22.669  0.00  0.00    +0.000 A 
ATOM     21  C   UNL     1      -2.929  14.606  22.550  0.00  0.00    +0.000 A 
ATOM     22  C   UNL     1      -1.550  14.743  22.391  0.00  0.00    +0.000 A 
ATOM     23  C   UNL     1      -0.727  13.610  22.354  0.00  0.00    +0.000 A 
BRANCH  23  24
ATOM     24  O   UNL     1       0.627  13.794  22.266  0.00  0.00    +0.000 OA
ATOM     25  H   UNL     1       1.065  12.954  22.481  0.00  0.00    +0.000 HD
ENDBRANCH  23  24
ENDBRANCH   7  18
BRANCH   1  26
ATOM     26  C   UNL     1       1.284   8.669  18.252  0.00  0.00    +0.000 C 
BRANCH  26  27
ATOM     27  C   UNL     1       2.768   8.436  17.960  0.00  0.00    +0.000 C 
BRANCH  27  31
ATOM     28  C   UNL     1       3.676   4.202  17.765  0.00  0.00    +0.000 A 
ATOM     29  C   UNL     1       4.616   5.162  17.355  0.00  0.00    +0.000 A 
ATOM     30  C   UNL     1       4.323   6.526  17.400  0.00  0.00    +0.000 A 
ATOM     31  C   UNL     1       3.065   6.962  17.817  0.00  0.00    +0.000 A 
ATOM     32  C   UNL     1       2.102   6.000  18.152  0.00  0.00    +0.000 A 
ATOM     33  C   UNL     1       2.387   4.623  18.122  0.00  0.00    +0.000 A 
BRANCH  28  35
ATOM     34  C   UNL     1       4.207   2.305  19.085  0.00  0.00    +0.000 C 
ATOM     35  O   UNL     1       3.992   2.870  17.791  0.00  0.00    +0.000 OA
ENDBRANCH  28  35
BRANCH  33  36
ATOM     36  O   UNL     1       1.304   3.868  18.492  0.00  0.00    +0.000 OA
ATOM     37  C   UNL     1       0.939   3.805  19.862  0.00  0.00    +0.000 C 
ENDBRANCH  33  36
ENDBRANCH  27  31
ENDBRANCH  26  27
ENDBRANCH   1  26
TORSDOF 8
ENDMDL
MODEL 8
REMARK VINA RESULT:      -8.4      4.619      8.906
REMARK  Name = 
REMARK  11 active torsions:
REMARK  status: ('A' for Active; 'I' for Inactive)
REMARK    1  A    between atoms: C_1  and  O_2
REMARK    2  A    between atoms: O_2  and  C_3
REMARK    3  A    between atoms: C_6  and  C_7
REMARK    4  A    between atoms: C_7  and  C_8
REMARK    5  A    between atoms: C_8  and  N_9
REMARK    6  A    between atoms: C_15  and  C_16
REMARK    7  A    between atoms: C_21  and  O_22
REMARK    8  A    between atoms: C_24  and  C_25
REMARK    9  A    between atoms: C_28  and  C_29
REMARK   10  A    between atoms: C_33  and  O_34
REMARK   11  A    between atoms: O_34  and  C_35
REMARK                            x       y       z     vdW  Elec       q    Type
REMARK                         _______ _______ _______ _____ _____    ______ ____
ROOT
ATOM      1  N   UNL     1       1.130   9.047  19.538  0.00  0.00    +0.000 N 
ATOM      2  C   UNL     1       1.276   8.385  20.761  0.00  0.00    +0.000 C 
ATOM      3  O   UNL     1       1.754   7.285  20.978  0.00  0.00    +0.000 OA
ATOM      4  C   UNL     1       0.703   9.278  21.694  0.00  0.00    +0.000 A 
ATOM      5  N   UNL     1       0.415   9.314  23.000  0.00  0.00    +0.000 N 
ATOM      6  N   UNL     1      -0.263  10.440  23.326  0.00  0.00    +0.000 NA
ATOM      7  C   UNL     1      -0.384  11.144  22.169  0.00  0.00    +0.000 A 
ATOM      8  C   UNL     1       0.235  10.427  21.123  0.00  0.00    +0.000 A 
ATOM      9  C   UNL     1       0.534  10.413  19.669  0.00  0.00    +0.000 C 
ATOM     10  H   UNL     1       0.602   8.625  23.720  0.00  0.00    +0.000 HD
ENDROOT
BRANCH   9  11
ATOM     11  C   UNL     1      -0.719  10.610  18.851  0.00  0.00    +0.000 A 
ATOM     12  C   UNL     1      -0.927  11.866  18.250  0.00  0.00    +0.000 A 
ATOM     13  C   UNL     1      -2.059  12.121  17.475  0.00  0.00    +0.000 A 
ATOM     14  C   UNL     1      -3.015  11.123  17.280  0.00  0.00    +0.000 A 
ATOM     15  C   UNL     1      -4.260  11.390  16.489  0.00  0.00    +0.000 C 
ATOM     16  C   UNL     1      -2.808   9.861  17.849  0.00  0.00    +0.000 A 
ATOM     17  C   UNL     1      -1.665   9.601  18.608  0.00  0.00    +0.000 A 
ENDBRANCH   9  11
BRANCH   7  18
ATOM     18  C   UNL     1      -1.134  12.407  22.138  0.00  0.00    +0.000 A 
ATOM     19  C   UNL     1      -0.621  13.485  21.387  0.00  0.00    +0.000 A 
ATOM     20  C   UNL     1      -1.282  14.716  21.334  0.00  0.00    +0.000 A 
ATOM     21  C   UNL     1      -2.464  14.897  22.041  0.00  0.00    +0.000 A 
ATOM     22  C   UNL     1      -2.993  13.845  22.788  0.00  0.00    +0.000 A 
ATOM     23  C   UNL     1      -2.341  12.606  22.824  0.00  0.00    +0.000 A 
BRANCH  23  24
ATOM     24  O   UNL     1      -2.931  11.579  23.512  0.00  0.00    +0.000 OA
ATOM     25  H   UNL     1      -2.270  10.880  23.647  0.00  0.00    +0.000 HD
ENDBRANCH  23  24
ENDBRANCH   7  18
BRANCH   1  26
ATOM     26  C   UNL     1       1.421   8.422  18.258  0.00  0.00    +0.000 C 
BRANCH  26  27
ATOM     27  C   UNL     1       2.915   8.225  17.991  0.00  0.00    +0.000 C 
BRANCH  27  31
ATOM     28  C   UNL     1       3.884   4.022  17.573  0.00  0.00    +0.000 A 
ATOM     29  C   UNL     1       2.588   4.432  17.925  0.00  0.00    +0.000 A 
ATOM     30  C   UNL     1       2.274   5.784  18.077  0.00  0.00    +0.000 A 
ATOM     31  C   UNL     1       3.262   6.757  17.922  0.00  0.00    +0.000 A 
ATOM     32  C   UNL     1       4.572   6.341  17.647  0.00  0.00    +0.000 A 
ATOM     33  C   UNL     1       4.900   4.984  17.480  0.00  0.00    +0.000 A 
BRANCH  28  35
ATOM     34  C   UNL     1       3.416   1.761  18.118  0.00  0.00    +0.000 C 
ATOM     35  O   UNL     1       4.171   2.701  17.351  0.00  0.00    +0.000 OA
ENDBRANCH  28  35
BRANCH  33  36
ATOM     36  O   UNL     1       6.234   4.808  17.213  0.00  0.00    +0.000 OA
ATOM     37  C   UNL     1       7.046   5.945  16.965  0.00  0.00    +0.000 C 
ENDBRANCH  33  36
ENDBRANCH  27  31
ENDBRANCH  26  27
ENDBRANCH   1  26
TORSDOF 8
ENDMDL
MODEL 9
REMARK VINA RESULT:      -8.4      1.154      2.127
REMARK  Name = 
REMARK  11 active torsions:
REMARK  status: ('A' for Active; 'I' for Inactive)
REMARK    1  A    between atoms: C_1  and  O_2
REMARK    2  A    between atoms: O_2  and  C_3
REMARK    3  A    between atoms: C_6  and  C_7
REMARK    4  A    between atoms: C_7  and  C_8
REMARK    5  A    between atoms: C_8  and  N_9
REMARK    6  A    between atoms: C_15  and  C_16
REMARK    7  A    between atoms: C_21  and  O_22
REMARK    8  A    between atoms: C_24  and  C_25
REMARK    9  A    between atoms: C_28  and  C_29
REMARK   10  A    between atoms: C_33  and  O_34
REMARK   11  A    between atoms: O_34  and  C_35
REMARK                            x       y       z     vdW  Elec       q    Type
REMARK                         _______ _______ _______ _____ _____    ______ ____
ROOT
ATOM      1  N   UNL     1       6.511   6.572  17.286  0.00  0.00    +0.000 N 
ATOM      2  C   UNL     1       6.911   5.729  16.245  0.00  0.00    +0.000 C 
ATOM      3  O   UNL     1       7.772   5.916  15.402  0.00  0.00    +0.000 OA
ATOM      4  C   UNL     1       6.055   4.613  16.372  0.00  0.00    +0.000 A 
ATOM      5  N   UNL     1       5.790   3.473  15.722  0.00  0.00    +0.000 N 
ATOM      6  N   UNL     1       4.741   2.819  16.276  0.00  0.00    +0.000 NA
ATOM      7  C   UNL     1       4.350   3.583  17.332  0.00  0.00    +0.000 A 
ATOM      8  C   UNL     1       5.181   4.720  17.415  0.00  0.00    +0.000 A 
ATOM      9  C   UNL     1       5.445   5.980  18.153  0.00  0.00    +0.000 C 
ATOM     10  H   UNL     1       6.233   3.085  14.897  0.00  0.00    +0.000 HD
ENDROOT
BRANCH   9  11
ATOM     11  C   UNL     1       4.200   6.829  18.249  0.00  0.00    +0.000 A 
ATOM     12  C   UNL     1       3.407   6.712  19.407  0.00  0.00    +0.000 A 
ATOM     13  C   UNL     1       2.246   7.468  19.570  0.00  0.00    +0.000 A 
ATOM     14  C   UNL     1       1.846   8.363  18.576  0.00  0.00    +0.000 A 
ATOM     15  C   UNL     1       0.578   9.151  18.711  0.00  0.00    +0.000 C 
ATOM     16  C   UNL     1       2.639   8.510  17.433  0.00  0.00    +0.000 A 
ATOM     17  C   UNL     1       3.812   7.767  17.279  0.00  0.00    +0.000 A 
ENDBRANCH   9  11
BRANCH   7  18
ATOM     18  C   UNL     1       3.178   3.203  18.132  0.00  0.00    +0.000 A 
ATOM     19  C   UNL     1       1.934   3.801  17.844  0.00  0.00    +0.000 A 
ATOM     20  C   UNL     1       0.788   3.491  18.583  0.00  0.00    +0.000 A 
ATOM     21  C   UNL     1       0.866   2.584  19.633  0.00  0.00    +0.000 A 
ATOM     22  C   UNL     1       2.085   1.976  19.935  0.00  0.00    +0.000 A 
ATOM     23  C   UNL     1       3.227   2.273  19.181  0.00  0.00    +0.000 A 
BRANCH  23  24
ATOM     24  O   UNL     1       4.386   1.602  19.466  0.00  0.00    +0.000 OA
ATOM     25  H   UNL     1       4.520   1.614  20.428  0.00  0.00    +0.000 HD
ENDBRANCH  23  24
ENDBRANCH   7  18
BRANCH   1  26
ATOM     26  C   UNL     1       7.001   7.932  17.438  0.00  0.00    +0.000 C 
BRANCH  26  27
ATOM     27  C   UNL     1       8.251   8.046  18.314  0.00  0.00    +0.000 C 
BRANCH  27  31
ATOM     28  C   UNL     1       9.484  12.174  18.783  0.00  0.00    +0.000 A 
ATOM     29  C   UNL     1       9.974  11.173  19.637  0.00  0.00    +0.000 A 
ATOM     30  C   UNL     1       9.568   9.844  19.501  0.00  0.00    +0.000 A 
ATOM     31  C   UNL     1       8.627   9.492  18.532  0.00  0.00    +0.000 A 
ATOM     32  C   UNL     1       8.082  10.505  17.732  0.00  0.00    +0.000 A 
ATOM     33  C   UNL     1       8.490  11.845  17.850  0.00  0.00    +0.000 A 
BRANCH  28  35
ATOM     34  C   UNL     1      10.385  13.881  20.161  0.00  0.00    +0.000 C 
ATOM     35  O   UNL     1       9.942  13.462  18.869  0.00  0.00    +0.000 OA
ENDBRANCH  28  35
BRANCH  33  36
ATOM     36  O   UNL     1       7.831  12.661  16.966  0.00  0.00    +0.000 OA
ATOM     37  C   UNL     1       6.955  13.659  17.466  0.00  0.00    +0.000 C 
ENDBRANCH  33  36
ENDBRANCH  27  31
ENDBRANCH  26  27
ENDBRANCH   1  26
TORSDOF 8
ENDMDL
