MODEL 1
REMARK VINA RESULT:      -6.4      0.000      0.000
REMARK  Name = 
REMARK  14 active torsions:
REMARK  status: ('A' for Active; 'I' for Inactive)
REMARK    1  A    between atoms: C_1  and  C_2
REMARK    2  A    between atoms: C_2  and  O_4
REMARK    3  A    between atoms: O_4  and  C_5
REMARK    4  A    between atoms: C_5  and  C_6
REMARK    5  A    between atoms: C_7  and  C_8
REMARK    6  A    between atoms: C_7  and  C_9
REMARK    7  A    between atoms: C_9  and  C_10
REMARK    8  A    between atoms: C_10  and  C_11
REMARK    9  A    between atoms: C_12  and  C_13
REMARK   10  A    between atoms: C_12  and  C_14
REMARK   11  A    between atoms: C_14  and  C_15
REMARK   12  A    between atoms: C_15  and  C_16
REMARK   13  A    between atoms: C_17  and  C_18
REMARK   14  A    between atoms: C_17  and  C_19
REMARK                            x       y       z     vdW  Elec       q    Type
REMARK                         _______ _______ _______ _____ _____    ______ ____
ROOT
ATOM      1  C   UNL     1       6.625   5.980  18.380  0.00  0.00    +0.000 C 
ENDROOT
BRANCH   1   2
ATOM      2  C   UNL     1       7.051   5.416  17.055  0.00  0.00    +0.000 C 
ATOM      3  C   UNL     1       6.393   5.577  15.888  0.00  0.00    +0.000 C 
ATOM      4  C   UNL     1       5.124   6.385  15.774  0.00  0.00    +0.000 C 
BRANCH   3   5
ATOM      5  C   UNL     1       6.855   4.963  14.568  0.00  0.00    +0.000 C 
BRANCH   5   6
ATOM      6  C   UNL     1       5.770   4.185  13.809  0.00  0.00    +0.000 C 
BRANCH   6   7
ATOM      7  C   UNL     1       6.259   3.065  12.936  0.00  0.00    +0.000 C 
ATOM      8  C   UNL     1       5.583   2.633  11.852  0.00  0.00    +0.000 C 
ATOM      9  C   UNL     1       4.272   3.214  11.385  0.00  0.00    +0.000 C 
ATOM     10  C   UNL     1       6.098   1.507  10.998  0.00  0.00    +0.000 C 
ENDBRANCH   6   7
ENDBRANCH   5   6
ENDBRANCH   3   5
ENDBRANCH   1   2
BRANCH   1  11
ATOM     11  C   UNL     1       6.047   4.912  19.321  0.00  0.00    +0.000 C 
BRANCH  11  13
ATOM     12  C   UNL     1       3.644   5.493  19.610  0.00  0.00    +0.000 C 
ATOM     13  C   UNL     1       4.570   4.678  19.067  0.00  0.00    +0.000 C 
ATOM     14  C   UNL     1       4.237   3.505  18.183  0.00  0.00    +0.000 C 
BRANCH  12  15
ATOM     15  C   UNL     1       2.157   5.417  19.414  0.00  0.00    +0.000 C 
BRANCH  15  16
ATOM     16  O   UNL     1       1.541   4.807  20.552  0.00  0.00    +0.000 OA
BRANCH  16  18
ATOM     17  C   UNL     1       1.755   2.744  21.630  0.00  0.00    +0.000 C 
ATOM     18  C   UNL     1       1.258   3.484  20.427  0.00  0.00    +0.000 C 
ATOM     19  O   UNL     1       0.689   2.957  19.481  0.00  0.00    +0.000 OA
ENDBRANCH  16  18
ENDBRANCH  15  16
ENDBRANCH  12  15
ENDBRANCH  11  13
ENDBRANCH   1  11
TORSDOF 9
ENDMDL
MODEL 2
REMARK VINA RESULT:      -6.2      1.448      2.316
REMARK  Name = 
REMARK  14 active torsions:
REMARK  status: ('A' for Active; 'I' for Inactive)
REMARK    1  A    between atoms: C_1  and  C_2
REMARK    2  A    between atoms: C_2  and  O_4
REMARK    3  A    between atoms: O_4  and  C_5
REMARK    4  A    between atoms: C_5  and  C_6
REMARK    5  A    between atoms: C_7  and  C_8
REMARK    6  A    between atoms: C_7  and  C_9
REMARK    7  A    between atoms: C_9  and  C_10
REMARK    8  A    between atoms: C_10  and  C_11
REMARK    9  A    between atoms: C_12  and  C_13
REMARK   10  A    between atoms: C_12  and  C_14
REMARK   11  A    between atoms: C_14  and  C_15
REMARK   12  A    between atoms: C_15  and  C_16
REMARK   13  A    between atoms: C_17  and  C_18
REMARK   14  A    between atoms: C_17  and  C_19
REMARK                            x       y       z     vdW  Elec       q    Type
REMARK                         _______ _______ _______ _____ _____    ______ ____
ROOT
ATOM      1  C   UNL     1       4.366   6.779  18.054  0.00  0.00    +0.000 C 
ENDROOT
BRANCH   1   2
ATOM      2  C   UNL     1       5.009   5.713  17.215  0.00  0.00    +0.000 C 
ATOM      3  C   UNL     1       6.335   5.468  17.140  0.00  0.00    +0.000 C 
ATOM      4  C   UNL     1       7.352   6.253  17.932  0.00  0.00    +0.000 C 
BRANCH   3   5
ATOM      5  C   UNL     1       6.944   4.386  16.253  0.00  0.00    +0.000 C 
BRANCH   5   6
ATOM      6  C   UNL     1       6.910   4.694  14.749  0.00  0.00    +0.000 C 
BRANCH   6   7
ATOM      7  C   UNL     1       5.840   3.994  13.963  0.00  0.00    +0.000 C 
ATOM      8  C   UNL     1       5.975   3.686  12.656  0.00  0.00    +0.000 C 
ATOM      9  C   UNL     1       7.201   3.998  11.835  0.00  0.00    +0.000 C 
ATOM     10  C   UNL     1       4.884   2.984  11.895  0.00  0.00    +0.000 C 
ENDBRANCH   6   7
ENDBRANCH   5   6
ENDBRANCH   3   5
ENDBRANCH   1   2
BRANCH   1  11
ATOM     11  C   UNL     1       2.836   6.796  17.919  0.00  0.00    +0.000 C 
BRANCH  11  13
ATOM     12  C   UNL     1       2.200   5.444  19.911  0.00  0.00    +0.000 C 
ATOM     13  C   UNL     1       2.201   5.582  18.570  0.00  0.00    +0.000 C 
ATOM     14  C   UNL     1       1.587   4.582  17.626  0.00  0.00    +0.000 C 
BRANCH  12  15
ATOM     15  C   UNL     1       1.575   4.328  20.697  0.00  0.00    +0.000 C 
BRANCH  15  16
ATOM     16  O   UNL     1       2.571   3.373  21.074  0.00  0.00    +0.000 OA
BRANCH  16  18
ATOM     17  C   UNL     1       4.383   2.474  19.903  0.00  0.00    +0.000 C 
ATOM     18  C   UNL     1       2.902   2.462  20.122  0.00  0.00    +0.000 C 
ATOM     19  O   UNL     1       2.122   1.736  19.521  0.00  0.00    +0.000 OA
ENDBRANCH  16  18
ENDBRANCH  15  16
ENDBRANCH  12  15
ENDBRANCH  11  13
ENDBRANCH   1  11
TORSDOF 9
ENDMDL
MODEL 3
REMARK VINA RESULT:      -6.2      1.470      2.238
REMARK  Name = 
REMARK  14 active torsions:
REMARK  status: ('A' for Active; 'I' for Inactive)
REMARK    1  A    between atoms: C_1  and  C_2
REMARK    2  A    between atoms: C_2  and  O_4
REMARK    3  A    between atoms: O_4  and  C_5
REMARK    4  A    between atoms: C_5  and  C_6
REMARK    5  A    between atoms: C_7  and  C_8
REMARK    6  A    between atoms: C_7  and  C_9
REMARK    7  A    between atoms: C_9  and  C_10
REMARK    8  A    between atoms: C_10  and  C_11
REMARK    9  A    between atoms: C_12  and  C_13
REMARK   10  A    between atoms: C_12  and  C_14
REMARK   11  A    between atoms: C_14  and  C_15
REMARK   12  A    between atoms: C_15  and  C_16
REMARK   13  A    between atoms: C_17  and  C_18
REMARK   14  A    between atoms: C_17  and  C_19
REMARK                            x       y       z     vdW  Elec       q    Type
REMARK                         _______ _______ _______ _____ _____    ______ ____
ROOT
ATOM      1  C   UNL     1       4.268   4.788  16.586  0.00  0.00    +0.000 C 
ENDROOT
BRANCH   1   2
ATOM      2  C   UNL     1       5.199   4.694  15.412  0.00  0.00    +0.000 C 
ATOM      3  C   UNL     1       6.531   4.915  15.449  0.00  0.00    +0.000 C 
ATOM      4  C   UNL     1       7.260   5.275  16.720  0.00  0.00    +0.000 C 
BRANCH   3   5
ATOM      5  C   UNL     1       7.433   4.829  14.221  0.00  0.00    +0.000 C 
BRANCH   5   6
ATOM      6  C   UNL     1       6.692   4.617  12.893  0.00  0.00    +0.000 C 
BRANCH   6   7
ATOM      7  C   UNL     1       6.795   3.242  12.299  0.00  0.00    +0.000 C 
ATOM      8  C   UNL     1       5.754   2.620  11.708  0.00  0.00    +0.000 C 
ATOM      9  C   UNL     1       4.378   3.221  11.567  0.00  0.00    +0.000 C 
ATOM     10  C   UNL     1       5.889   1.240  11.122  0.00  0.00    +0.000 C 
ENDBRANCH   6   7
ENDBRANCH   5   6
ENDBRANCH   3   5
ENDBRANCH   1   2
BRANCH   1  11
ATOM     11  C   UNL     1       4.027   3.429  17.261  0.00  0.00    +0.000 C 
BRANCH  11  13
ATOM     12  C   UNL     1       2.269   2.262  18.583  0.00  0.00    +0.000 C 
ATOM     13  C   UNL     1       2.633   3.334  17.850  0.00  0.00    +0.000 C 
ATOM     14  C   UNL     1       1.722   4.499  17.564  0.00  0.00    +0.000 C 
BRANCH  12  15
ATOM     15  C   UNL     1       0.948   2.048  19.264  0.00  0.00    +0.000 C 
BRANCH  15  16
ATOM     16  O   UNL     1       0.695   3.107  20.192  0.00  0.00    +0.000 OA
BRANCH  16  18
ATOM     17  C   UNL     1       2.237   4.465  21.307  0.00  0.00    +0.000 C 
ATOM     18  C   UNL     1       1.519   3.151  21.271  0.00  0.00    +0.000 C 
ATOM     19  O   UNL     1       1.669   2.262  22.098  0.00  0.00    +0.000 OA
ENDBRANCH  16  18
ENDBRANCH  15  16
ENDBRANCH  12  15
ENDBRANCH  11  13
ENDBRANCH   1  11
TORSDOF 9
ENDMDL
MODEL 4
REMARK VINA RESULT:      -6.1      3.148      6.782
REMARK  Name = 
REMARK  14 active torsions:
REMARK  status: ('A' for Active; 'I' for Inactive)
REMARK    1  A    between atoms: C_1  and  C_2
REMARK    2  A    between atoms: C_2  and  O_4
REMARK    3  A    between atoms: O_4  and  C_5
REMARK    4  A    between atoms: C_5  and  C_6
REMARK    5  A    between atoms: C_7  and  C_8
REMARK    6  A    between atoms: C_7  and  C_9
REMARK    7  A    between atoms: C_9  and  C_10
REMARK    8  A    between atoms: C_10  and  C_11
REMARK    9  A    between atoms: C_12  and  C_13
REMARK   10  A    between atoms: C_12  and  C_14
REMARK   11  A    between atoms: C_14  and  C_15
REMARK   12  A    between atoms: C_15  and  C_16
REMARK   13  A    between atoms: C_17  and  C_18
REMARK   14  A    between atoms: C_17  and  C_19
REMARK                            x       y       z     vdW  Elec       q    Type
REMARK                         _______ _______ _______ _____ _____    ______ ____
ROOT
ATOM      1  C   UNL     1       5.232   6.262  18.005  0.00  0.00    +0.000 C 
ENDROOT
BRANCH   1   2
ATOM      2  C   UNL     1       4.286   5.691  19.021  0.00  0.00    +0.000 C 
ATOM      3  C   UNL     1       3.053   6.167  19.298  0.00  0.00    +0.000 C 
ATOM      4  C   UNL     1       2.460   7.355  18.580  0.00  0.00    +0.000 C 
BRANCH   3   5
ATOM      5  C   UNL     1       2.135   5.565  20.359  0.00  0.00    +0.000 C 
BRANCH   5   6
ATOM      6  C   UNL     1       1.397   4.292  19.921  0.00  0.00    +0.000 C 
BRANCH   6   7
ATOM      7  C   UNL     1       2.243   3.059  19.789  0.00  0.00    +0.000 C 
ATOM      8  C   UNL     1       2.668   2.586  18.599  0.00  0.00    +0.000 C 
ATOM      9  C   UNL     1       2.355   3.230  17.272  0.00  0.00    +0.000 C 
ATOM     10  C   UNL     1       3.514   1.346  18.500  0.00  0.00    +0.000 C 
ENDBRANCH   6   7
ENDBRANCH   5   6
ENDBRANCH   3   5
ENDBRANCH   1   2
BRANCH   1  11
ATOM     11  C   UNL     1       4.804   5.958  16.561  0.00  0.00    +0.000 C 
BRANCH  11  13
ATOM     12  C   UNL     1       5.536   4.584  14.618  0.00  0.00    +0.000 C 
ATOM     13  C   UNL     1       5.754   4.987  15.886  0.00  0.00    +0.000 C 
ATOM     14  C   UNL     1       6.925   4.533  16.718  0.00  0.00    +0.000 C 
BRANCH  12  15
ATOM     15  C   UNL     1       6.407   3.670  13.805  0.00  0.00    +0.000 C 
BRANCH  15  16
ATOM     16  O   UNL     1       6.194   3.899  12.409  0.00  0.00    +0.000 OA
BRANCH  16  18
ATOM     17  C   UNL     1       5.945   1.774  11.468  0.00  0.00    +0.000 C 
ATOM     18  C   UNL     1       5.293   3.078  11.810  0.00  0.00    +0.000 C 
ATOM     19  O   UNL     1       4.123   3.346  11.574  0.00  0.00    +0.000 OA
ENDBRANCH  16  18
ENDBRANCH  15  16
ENDBRANCH  12  15
ENDBRANCH  11  13
ENDBRANCH   1  11
TORSDOF 9
ENDMDL
MODEL 5
REMARK VINA RESULT:      -6.1      3.510      7.351
REMARK  Name = 
REMARK  14 active torsions:
REMARK  status: ('A' for Active; 'I' for Inactive)
REMARK    1  A    between atoms: C_1  and  C_2
REMARK    2  A    between atoms: C_2  and  O_4
REMARK    3  A    between atoms: O_4  and  C_5
REMARK    4  A    between atoms: C_5  and  C_6
REMARK    5  A    between atoms: C_7  and  C_8
REMARK    6  A    between atoms: C_7  and  C_9
REMARK    7  A    between atoms: C_9  and  C_10
REMARK    8  A    between atoms: C_10  and  C_11
REMARK    9  A    between atoms: C_12  and  C_13
REMARK   10  A    between atoms: C_12  and  C_14
REMARK   11  A    between atoms: C_14  and  C_15
REMARK   12  A    between atoms: C_15  and  C_16
REMARK   13  A    between atoms: C_17  and  C_18
REMARK   14  A    between atoms: C_17  and  C_19
REMARK                            x       y       z     vdW  Elec       q    Type
REMARK                         _______ _______ _______ _____ _____    ______ ____
ROOT
ATOM      1  C   UNL     1       5.955   5.839  15.793  0.00  0.00    +0.000 C 
ENDROOT
BRANCH   1   2
ATOM      2  C   UNL     1       4.921   5.808  16.882  0.00  0.00    +0.000 C 
ATOM      3  C   UNL     1       5.178   5.696  18.203  0.00  0.00    +0.000 C 
ATOM      4  C   UNL     1       6.581   5.606  18.753  0.00  0.00    +0.000 C 
BRANCH   3   5
ATOM      5  C   UNL     1       4.090   5.646  19.272  0.00  0.00    +0.000 C 
BRANCH   5   6
ATOM      6  C   UNL     1       2.655   5.718  18.731  0.00  0.00    +0.000 C 
BRANCH   6   7
ATOM      7  C   UNL     1       1.754   4.581  19.115  0.00  0.00    +0.000 C 
ATOM      8  C   UNL     1       1.699   3.424  18.423  0.00  0.00    +0.000 C 
ATOM      9  C   UNL     1       2.527   3.131  17.197  0.00  0.00    +0.000 C 
ATOM     10  C   UNL     1       0.784   2.302  18.833  0.00  0.00    +0.000 C 
ENDBRANCH   6   7
ENDBRANCH   5   6
ENDBRANCH   3   5
ENDBRANCH   1   2
BRANCH   1  11
ATOM     11  C   UNL     1       6.435   4.436  15.392  0.00  0.00    +0.000 C 
BRANCH  11  13
ATOM     12  C   UNL     1       5.545   3.537  13.248  0.00  0.00    +0.000 C 
ATOM     13  C   UNL     1       6.482   4.267  13.886  0.00  0.00    +0.000 C 
ATOM     14  C   UNL     1       7.620   4.963  13.186  0.00  0.00    +0.000 C 
BRANCH  12  15
ATOM     15  C   UNL     1       5.433   3.319  11.767  0.00  0.00    +0.000 C 
BRANCH  15  16
ATOM     16  O   UNL     1       5.272   1.925  11.485  0.00  0.00    +0.000 OA
BRANCH  16  18
ATOM     17  C   UNL     1       6.158  -0.229  11.293  0.00  0.00    +0.000 C 
ATOM     18  C   UNL     1       6.417   1.244  11.219  0.00  0.00    +0.000 C 
ATOM     19  O   UNL     1       7.505   1.740  10.961  0.00  0.00    +0.000 OA
ENDBRANCH  16  18
ENDBRANCH  15  16
ENDBRANCH  12  15
ENDBRANCH  11  13
ENDBRANCH   1  11
TORSDOF 9
ENDMDL
MODEL 6
REMARK VINA RESULT:      -6.0      3.430      6.440
REMARK  Name = 
REMARK  14 active torsions:
REMARK  status: ('A' for Active; 'I' for Inactive)
REMARK    1  A    between atoms: C_1  and  C_2
REMARK    2  A    between atoms: C_2  and  O_4
REMARK    3  A    between atoms: O_4  and  C_5
REMARK    4  A    between atoms: C_5  and  C_6
REMARK    5  A    between atoms: C_7  and  C_8
REMARK    6  A    between atoms: C_7  and  C_9
REMARK    7  A    between atoms: C_9  and  C_10
REMARK    8  A    between atoms: C_10  and  C_11
REMARK    9  A    between atoms: C_12  and  C_13
REMARK   10  A    between atoms: C_12  and  C_14
REMARK   11  A    between atoms: C_14  and  C_15
REMARK   12  A    between atoms: C_15  and  C_16
REMARK   13  A    between atoms: C_17  and  C_18
REMARK   14  A    between atoms: C_17  and  C_19
REMARK                            x       y       z     vdW  Elec       q    Type
REMARK                         _______ _______ _______ _____ _____    ______ ____
ROOT
ATOM      1  C   UNL     1       5.606   6.484  16.725  0.00  0.00    +0.000 C 
ENDROOT
BRANCH   1   2
ATOM      2  C   UNL     1       6.748   7.358  17.157  0.00  0.00    +0.000 C 
ATOM      3  C   UNL     1       7.632   7.065  18.134  0.00  0.00    +0.000 C 
ATOM      4  C   UNL     1       7.581   5.776  18.917  0.00  0.00    +0.000 C 
BRANCH   3   5
ATOM      5  C   UNL     1       8.764   7.999  18.554  0.00  0.00    +0.000 C 
BRANCH   5   6
ATOM      6  C   UNL     1       8.452   9.495  18.404  0.00  0.00    +0.000 C 
BRANCH   6   7
ATOM      7  C   UNL     1       9.093  10.401  19.415  0.00  0.00    +0.000 C 
ATOM      8  C   UNL     1      10.097  11.248  19.106  0.00  0.00    +0.000 C 
ATOM      9  C   UNL     1      10.689  11.392  17.727  0.00  0.00    +0.000 C 
ATOM     10  C   UNL     1      10.720  12.144  20.142  0.00  0.00    +0.000 C 
ENDBRANCH   6   7
ENDBRANCH   5   6
ENDBRANCH   3   5
ENDBRANCH   1   2
BRANCH   1  11
ATOM     11  C   UNL     1       4.242   7.019  17.187  0.00  0.00    +0.000 C 
BRANCH  11  13
ATOM     12  C   UNL     1       4.128   4.937  18.547  0.00  0.00    +0.000 C 
ATOM     13  C   UNL     1       3.657   6.177  18.305  0.00  0.00    +0.000 C 
ATOM     14  C   UNL     1       2.551   6.821  19.098  0.00  0.00    +0.000 C 
BRANCH  12  15
ATOM     15  C   UNL     1       3.684   4.007  19.640  0.00  0.00    +0.000 C 
BRANCH  15  16
ATOM     16  O   UNL     1       2.856   2.973  19.101  0.00  0.00    +0.000 OA
BRANCH  16  18
ATOM     17  C   UNL     1       0.904   3.518  20.265  0.00  0.00    +0.000 C 
ATOM     18  C   UNL     1       1.548   3.297  18.931  0.00  0.00    +0.000 C 
ATOM     19  O   UNL     1       0.965   3.394  17.860  0.00  0.00    +0.000 OA
ENDBRANCH  16  18
ENDBRANCH  15  16
ENDBRANCH  12  15
ENDBRANCH  11  13
ENDBRANCH   1  11
TORSDOF 9
ENDMDL
MODEL 7
REMARK VINA RESULT:      -6.0      1.152      1.580
REMARK  Name = 
REMARK  14 active torsions:
REMARK  status: ('A' for Active; 'I' for Inactive)
REMARK    1  A    between atoms: C_1  and  C_2
REMARK    2  A    between atoms: C_2  and  O_4
REMARK    3  A    between atoms: O_4  and  C_5
REMARK    4  A    between atoms: C_5  and  C_6
REMARK    5  A    between atoms: C_7  and  C_8
REMARK    6  A    between atoms: C_7  and  C_9
REMARK    7  A    between atoms: C_9  and  C_10
REMARK    8  A    between atoms: C_10  and  C_11
REMARK    9  A    between atoms: C_12  and  C_13
REMARK   10  A    between atoms: C_12  and  C_14
REMARK   11  A    between atoms: C_14  and  C_15
REMARK   12  A    between atoms: C_15  and  C_16
REMARK   13  A    between atoms: C_17  and  C_18
REMARK   14  A    between atoms: C_17  and  C_19
REMARK                            x       y       z     vdW  Elec       q    Type
REMARK                         _______ _______ _______ _____ _____    ______ ____
ROOT
ATOM      1  C   UNL     1       6.551   4.548  18.194  0.00  0.00    +0.000 C 
ENDROOT
BRANCH   1   2
ATOM      2  C   UNL     1       7.011   4.846  16.796  0.00  0.00    +0.000 C 
ATOM      3  C   UNL     1       6.313   4.587  15.670  0.00  0.00    +0.000 C 
ATOM      4  C   UNL     1       4.938   3.965  15.690  0.00  0.00    +0.000 C 
BRANCH   3   5
ATOM      5  C   UNL     1       6.834   4.888  14.267  0.00  0.00    +0.000 C 
BRANCH   5   6
ATOM      6  C   UNL     1       6.570   3.783  13.234  0.00  0.00    +0.000 C 
BRANCH   6   7
ATOM      7  C   UNL     1       5.296   3.912  12.449  0.00  0.00    +0.000 C 
ATOM      8  C   UNL     1       4.875   2.973  11.578  0.00  0.00    +0.000 C 
ATOM      9  C   UNL     1       5.617   1.692  11.289  0.00  0.00    +0.000 C 
ATOM     10  C   UNL     1       3.593   3.132  10.806  0.00  0.00    +0.000 C 
ENDBRANCH   6   7
ENDBRANCH   5   6
ENDBRANCH   3   5
ENDBRANCH   1   2
BRANCH   1  11
ATOM     11  C   UNL     1       5.997   5.788  18.912  0.00  0.00    +0.000 C 
BRANCH  11  13
ATOM     12  C   UNL     1       3.722   5.134  19.684  0.00  0.00    +0.000 C 
ATOM     13  C   UNL     1       4.483   5.852  18.835  0.00  0.00    +0.000 C 
ATOM     14  C   UNL     1       3.922   6.759  17.772  0.00  0.00    +0.000 C 
BRANCH  12  15
ATOM     15  C   UNL     1       2.222   5.130  19.760  0.00  0.00    +0.000 C 
BRANCH  15  16
ATOM     16  O   UNL     1       1.683   4.217  18.799  0.00  0.00    +0.000 OA
BRANCH  16  18
ATOM     17  C   UNL     1       1.040   3.206  20.806  0.00  0.00    +0.000 C 
ATOM     18  C   UNL     1       1.083   3.112  19.312  0.00  0.00    +0.000 C 
ATOM     19  O   UNL     1       0.641   2.170  18.669  0.00  0.00    +0.000 OA
ENDBRANCH  16  18
ENDBRANCH  15  16
ENDBRANCH  12  15
ENDBRANCH  11  13
ENDBRANCH   1  11
TORSDOF 9
ENDMDL
MODEL 8
REMARK VINA RESULT:      -6.0      4.422      7.559
REMARK  Name = 
REMARK  14 active torsions:
REMARK  status: ('A' for Active; 'I' for Inactive)
REMARK    1  A    between atoms: C_1  and  C_2
REMARK    2  A    between atoms: C_2  and  O_4
REMARK    3  A    between atoms: O_4  and  C_5
REMARK    4  A    between atoms: C_5  and  C_6
REMARK    5  A    between atoms: C_7  and  C_8
REMARK    6  A    between atoms: C_7  and  C_9
REMARK    7  A    between atoms: C_9  and  C_10
REMARK    8  A    between atoms: C_10  and  C_11
REMARK    9  A    between atoms: C_12  and  C_13
REMARK   10  A    between atoms: C_12  and  C_14
REMARK   11  A    between atoms: C_14  and  C_15
REMARK   12  A    between atoms: C_15  and  C_16
REMARK   13  A    between atoms: C_17  and  C_18
REMARK   14  A    between atoms: C_17  and  C_19
REMARK                            x       y       z     vdW  Elec       q    Type
REMARK                         _______ _______ _______ _____ _____    ______ ____
ROOT
ATOM      1  C   UNL     1       6.243   4.570  17.089  0.00  0.00    +0.000 C 
ENDROOT
BRANCH   1   2
ATOM      2  C   UNL     1       4.776   4.868  16.983  0.00  0.00    +0.000 C 
ATOM      3  C   UNL     1       3.980   5.260  18.001  0.00  0.00    +0.000 C 
ATOM      4  C   UNL     1       4.497   5.466  19.403  0.00  0.00    +0.000 C 
BRANCH   3   5
ATOM      5  C   UNL     1       2.486   5.530  17.847  0.00  0.00    +0.000 C 
BRANCH   5   6
ATOM      6  C   UNL     1       1.587   4.301  18.053  0.00  0.00    +0.000 C 
BRANCH   6   7
ATOM      7  C   UNL     1       1.251   3.968  19.477  0.00  0.00    +0.000 C 
ATOM      8  C   UNL     1       1.828   2.949  20.147  0.00  0.00    +0.000 C 
ATOM      9  C   UNL     1       2.870   2.032  19.558  0.00  0.00    +0.000 C 
ATOM     10  C   UNL     1       1.469   2.640  21.575  0.00  0.00    +0.000 C 
ENDBRANCH   6   7
ENDBRANCH   5   6
ENDBRANCH   3   5
ENDBRANCH   1   2
BRANCH   1  11
ATOM     11  C   UNL     1       7.120   5.689  16.507  0.00  0.00    +0.000 C 
BRANCH  11  13
ATOM     12  C   UNL     1       7.488   8.030  17.271  0.00  0.00    +0.000 C 
ATOM     13  C   UNL     1       7.497   6.713  17.560  0.00  0.00    +0.000 C 
ATOM     14  C   UNL     1       7.862   6.157  18.911  0.00  0.00    +0.000 C 
BRANCH  12  15
ATOM     15  C   UNL     1       7.791   9.158  18.215  0.00  0.00    +0.000 C 
BRANCH  15  16
ATOM     16  O   UNL     1       9.068   9.726  17.911  0.00  0.00    +0.000 OA
BRANCH  16  18
ATOM     17  C   UNL     1      10.037  11.847  18.069  0.00  0.00    +0.000 C 
ATOM     18  C   UNL     1       9.530  10.643  18.800  0.00  0.00    +0.000 C 
ATOM     19  O   UNL     1       9.542  10.521  20.017  0.00  0.00    +0.000 OA
ENDBRANCH  16  18
ENDBRANCH  15  16
ENDBRANCH  12  15
ENDBRANCH  11  13
ENDBRANCH   1  11
TORSDOF 9
ENDMDL
MODEL 9
REMARK VINA RESULT:      -5.9      3.053      6.087
REMARK  Name = 
REMARK  14 active torsions:
REMARK  status: ('A' for Active; 'I' for Inactive)
REMARK    1  A    between atoms: C_1  and  C_2
REMARK    2  A    between atoms: C_2  and  O_4
REMARK    3  A    between atoms: O_4  and  C_5
REMARK    4  A    between atoms: C_5  and  C_6
REMARK    5  A    between atoms: C_7  and  C_8
REMARK    6  A    between atoms: C_7  and  C_9
REMARK    7  A    between atoms: C_9  and  C_10
REMARK    8  A    between atoms: C_10  and  C_11
REMARK    9  A    between atoms: C_12  and  C_13
REMARK   10  A    between atoms: C_12  and  C_14
REMARK   11  A    between atoms: C_14  and  C_15
REMARK   12  A    between atoms: C_15  and  C_16
REMARK   13  A    between atoms: C_17  and  C_18
REMARK   14  A    between atoms: C_17  and  C_19
REMARK                            x       y       z     vdW  Elec       q    Type
REMARK                         _______ _______ _______ _____ _____    ______ ____
ROOT
ATOM      1  C   UNL     1       5.244   6.109  16.523  0.00  0.00    +0.000 C 
ENDROOT
BRANCH   1   2
ATOM      2  C   UNL     1       6.294   6.946  17.196  0.00  0.00    +0.000 C 
ATOM      3  C   UNL     1       7.354   6.470  17.883  0.00  0.00    +0.000 C 
ATOM      4  C   UNL     1       7.623   4.993  18.042  0.00  0.00    +0.000 C 
BRANCH   3   5
ATOM      5  C   UNL     1       8.383   7.363  18.570  0.00  0.00    +0.000 C 
BRANCH   5   6
ATOM      6  C   UNL     1       8.378   8.826  18.103  0.00  0.00    +0.000 C 
BRANCH   6   7
ATOM      7  C   UNL     1       8.654   9.852  19.163  0.00  0.00    +0.000 C 
ATOM      8  C   UNL     1       9.556  10.843  19.006  0.00  0.00    +0.000 C 
ATOM      9  C   UNL     1      10.385  11.043  17.763  0.00  0.00    +0.000 C 
ATOM     10  C   UNL     1       9.811  11.856  20.089  0.00  0.00    +0.000 C 
ENDBRANCH   6   7
ENDBRANCH   5   6
ENDBRANCH   3   5
ENDBRANCH   1   2
BRANCH   1  11
ATOM     11  C   UNL     1       3.912   6.102  17.288  0.00  0.00    +0.000 C 
BRANCH  11  13
ATOM     12  C   UNL     1       2.181   4.474  18.030  0.00  0.00    +0.000 C 
ATOM     13  C   UNL     1       3.422   4.691  17.550  0.00  0.00    +0.000 C 
ATOM     14  C   UNL     1       4.400   3.590  17.233  0.00  0.00    +0.000 C 
BRANCH  12  15
ATOM     15  C   UNL     1       1.542   3.141  18.294  0.00  0.00    +0.000 C 
BRANCH  15  16
ATOM     16  O   UNL     1       0.714   3.215  19.459  0.00  0.00    +0.000 OA
BRANCH  16  18
ATOM     17  C   UNL     1       1.849   2.702  21.437  0.00  0.00    +0.000 C 
ATOM     18  C   UNL     1       1.289   3.775  20.554  0.00  0.00    +0.000 C 
ATOM     19  O   UNL     1       1.349   4.971  20.802  0.00  0.00    +0.000 OA
ENDBRANCH  16  18
ENDBRANCH  15  16
ENDBRANCH  12  15
ENDBRANCH  11  13
ENDBRANCH   1  11
TORSDOF 9
ENDMDL
