MODEL 1
REMARK VINA RESULT:      -8.8      0.000      0.000
REMARK  Name = 
REMARK  6 active torsions:
REMARK  status: ('A' for Active; 'I' for Inactive)
REMARK    1  A    between atoms: C_2  and  C_4
REMARK    2  A    between atoms: C_7  and  C_8
REMARK    3  A    between atoms: C_8  and  O_9
REMARK    4  A    between atoms: C_8  and  C_10
REMARK    5  A    between atoms: C_8  and  C_20
REMARK    6  A    between atoms: C_13  and  C_14
REMARK                            x       y       z     vdW  Elec       q    Type
REMARK                         _______ _______ _______ _____ _____    ______ ____
ROOT
ATOM      1  C   UNL     1       3.587   5.419  19.014  0.00  0.00    +0.000 C 
ENDROOT
BRANCH   1   5
ATOM      2  C   UNL     1       6.100   5.003  15.441  0.00  0.00    +0.000 A 
ATOM      3  C   UNL     1       6.372   6.002  16.377  0.00  0.00    +0.000 A 
ATOM      4  C   UNL     1       5.585   6.124  17.527  0.00  0.00    +0.000 A 
ATOM      5  C   UNL     1       4.483   5.279  17.754  0.00  0.00    +0.000 A 
ATOM      6  C   UNL     1       4.207   4.293  16.777  0.00  0.00    +0.000 A 
ATOM      7  C   UNL     1       5.009   4.154  15.637  0.00  0.00    +0.000 A 
BRANCH   2   9
ATOM      8  N   UNL     1       6.626   3.802  13.393  0.00  0.00    +0.000 N 
ATOM      9  C   UNL     1       6.946   4.834  14.232  0.00  0.00    +0.000 C 
ATOM     10  O   UNL     1       7.867   5.599  13.978  0.00  0.00    +0.000 OA
ATOM     11  H   UNL     1       7.138   3.752  12.524  0.00  0.00    +0.000 HD
ATOM     12  H   UNL     1       5.730   3.335  13.435  0.00  0.00    +0.000 HD
ENDBRANCH   2   9
ENDBRANCH   1   5
BRANCH   1  13
ATOM     13  C   UNL     1       2.871   6.797  18.972  0.00  0.00    +0.000 A 
ATOM     14  C   UNL     1       2.183   7.297  20.090  0.00  0.00    +0.000 A 
ATOM     15  C   UNL     1       1.431   8.471  20.017  0.00  0.00    +0.000 A 
ATOM     16  C   UNL     1       1.339   9.187  18.818  0.00  0.00    +0.000 A 
ATOM     17  C   UNL     1       2.042   8.718  17.701  0.00  0.00    +0.000 A 
ATOM     18  C   UNL     1       2.792   7.542  17.776  0.00  0.00    +0.000 A 
BRANCH  16  19
ATOM     19  C   UNL     1       0.484  10.422  18.698  0.00  0.00    +0.000 C 
ATOM     20  F   UNL     1       1.178  11.530  18.313  0.00  0.00    +0.000 F 
ATOM     21  F   UNL     1      -0.522  10.276  17.791  0.00  0.00    +0.000 F 
ATOM     22  F   UNL     1      -0.120  10.751  19.874  0.00  0.00    +0.000 F 
ENDBRANCH  16  19
ENDBRANCH   1  13
BRANCH   1  23
ATOM     23  C   UNL     1       2.657   4.234  19.294  0.00  0.00    +0.000 A 
ATOM     24  C   UNL     1       1.545   3.986  18.466  0.00  0.00    +0.000 A 
ATOM     25  C   UNL     1       0.646   2.965  18.763  0.00  0.00    +0.000 A 
ATOM     26  C   UNL     1       0.878   2.200  19.890  0.00  0.00    +0.000 A 
ATOM     27  N   UNL     1       1.936   2.380  20.706  0.00  0.00    +0.000 NA
ATOM     28  C   UNL     1       2.786   3.391  20.397  0.00  0.00    +0.000 A 
ENDBRANCH   1  23
BRANCH   1  29
ATOM     29  O   UNL     1       4.417   5.414  20.196  0.00  0.00    +0.000 OA
ATOM     30  H   UNL     1       4.597   4.493  20.426  0.00  0.00    +0.000 HD
ENDBRANCH   1  29
TORSDOF 6
ENDMDL
MODEL 2
REMARK VINA RESULT:      -8.7      0.082      1.174
REMARK  Name = 
REMARK  6 active torsions:
REMARK  status: ('A' for Active; 'I' for Inactive)
REMARK    1  A    between atoms: C_2  and  C_4
REMARK    2  A    between atoms: C_7  and  C_8
REMARK    3  A    between atoms: C_8  and  O_9
REMARK    4  A    between atoms: C_8  and  C_10
REMARK    5  A    between atoms: C_8  and  C_20
REMARK    6  A    between atoms: C_13  and  C_14
REMARK                            x       y       z     vdW  Elec       q    Type
REMARK                         _______ _______ _______ _____ _____    ______ ____
ROOT
ATOM      1  C   UNL     1       3.634   5.389  18.995  0.00  0.00    +0.000 C 
ENDROOT
BRANCH   1   5
ATOM      2  C   UNL     1       6.115   4.945  15.403  0.00  0.00    +0.000 A 
ATOM      3  C   UNL     1       5.046   4.076  15.629  0.00  0.00    +0.000 A 
ATOM      4  C   UNL     1       4.241   4.228  16.762  0.00  0.00    +0.000 A 
ATOM      5  C   UNL     1       4.504   5.225  17.720  0.00  0.00    +0.000 A 
ATOM      6  C   UNL     1       5.612   6.075  17.486  0.00  0.00    +0.000 A 
ATOM      7  C   UNL     1       6.403   5.940  16.340  0.00  0.00    +0.000 A 
BRANCH   2   9
ATOM      8  N   UNL     1       6.625   3.834  13.301  0.00  0.00    +0.000 N 
ATOM      9  C   UNL     1       6.958   4.823  14.187  0.00  0.00    +0.000 C 
ATOM     10  O   UNL     1       7.887   5.589  13.966  0.00  0.00    +0.000 OA
ATOM     11  H   UNL     1       7.137   3.818  12.430  0.00  0.00    +0.000 HD
ATOM     12  H   UNL     1       5.725   3.375  13.323  0.00  0.00    +0.000 HD
ENDBRANCH   2   9
ENDBRANCH   1   5
BRANCH   1  13
ATOM     13  C   UNL     1       2.925   6.770  18.948  0.00  0.00    +0.000 A 
ATOM     14  C   UNL     1       2.215   7.264  20.055  0.00  0.00    +0.000 A 
ATOM     15  C   UNL     1       1.470   8.442  19.975  0.00  0.00    +0.000 A 
ATOM     16  C   UNL     1       1.406   9.167  18.779  0.00  0.00    +0.000 A 
ATOM     17  C   UNL     1       2.131   8.702  17.674  0.00  0.00    +0.000 A 
ATOM     18  C   UNL     1       2.874   7.523  17.756  0.00  0.00    +0.000 A 
BRANCH  16  19
ATOM     19  C   UNL     1       0.558  10.406  18.650  0.00  0.00    +0.000 C 
ATOM     20  F   UNL     1      -0.009  10.803  19.823  0.00  0.00    +0.000 F 
ATOM     21  F   UNL     1       1.266  11.478  18.195  0.00  0.00    +0.000 F 
ATOM     22  F   UNL     1      -0.472  10.241  17.774  0.00  0.00    +0.000 F 
ENDBRANCH  16  19
ENDBRANCH   1  13
BRANCH   1  23
ATOM     23  C   UNL     1       2.705   4.212  19.312  0.00  0.00    +0.000 A 
ATOM     24  C   UNL     1       1.586   3.946  18.498  0.00  0.00    +0.000 A 
ATOM     25  C   UNL     1       0.687   2.934  18.826  0.00  0.00    +0.000 A 
ATOM     26  C   UNL     1       0.926   2.198  19.971  0.00  0.00    +0.000 A 
ATOM     27  N   UNL     1       1.990   2.396  20.774  0.00  0.00    +0.000 NA
ATOM     28  C   UNL     1       2.839   3.397  20.435  0.00  0.00    +0.000 A 
ENDBRANCH   1  23
BRANCH   1  29
ATOM     29  O   UNL     1       4.489   5.396  20.160  0.00  0.00    +0.000 OA
ATOM     30  H   UNL     1       3.923   5.346  20.942  0.00  0.00    +0.000 HD
ENDBRANCH   1  29
TORSDOF 6
ENDMDL
MODEL 3
REMARK VINA RESULT:      -8.7      0.653      1.208
REMARK  Name = 
REMARK  6 active torsions:
REMARK  status: ('A' for Active; 'I' for Inactive)
REMARK    1  A    between atoms: C_2  and  C_4
REMARK    2  A    between atoms: C_7  and  C_8
REMARK    3  A    between atoms: C_8  and  O_9
REMARK    4  A    between atoms: C_8  and  C_10
REMARK    5  A    between atoms: C_8  and  C_20
REMARK    6  A    between atoms: C_13  and  C_14
REMARK                            x       y       z     vdW  Elec       q    Type
REMARK                         _______ _______ _______ _____ _____    ______ ____
ROOT
ATOM      1  C   UNL     1       3.275   5.568  19.044  0.00  0.00    +0.000 C 
ENDROOT
BRANCH   1   5
ATOM      2  C   UNL     1       5.956   5.132  15.598  0.00  0.00    +0.000 A 
ATOM      3  C   UNL     1       6.022   6.274  16.398  0.00  0.00    +0.000 A 
ATOM      4  C   UNL     1       5.184   6.406  17.509  0.00  0.00    +0.000 A 
ATOM      5  C   UNL     1       4.229   5.422  17.829  0.00  0.00    +0.000 A 
ATOM      6  C   UNL     1       4.158   4.288  16.985  0.00  0.00    +0.000 A 
ATOM      7  C   UNL     1       5.014   4.143  15.887  0.00  0.00    +0.000 A 
BRANCH   2   9
ATOM      8  N   UNL     1       6.480   4.053  13.483  0.00  0.00    +0.000 N 
ATOM      9  C   UNL     1       6.863   4.957  14.436  0.00  0.00    +0.000 C 
ATOM     10  O   UNL     1       7.890   5.612  14.315  0.00  0.00    +0.000 OA
ATOM     11  H   UNL     1       7.047   4.009  12.648  0.00  0.00    +0.000 HD
ATOM     12  H   UNL     1       5.532   3.707  13.423  0.00  0.00    +0.000 HD
ENDBRANCH   2   9
ENDBRANCH   1   5
BRANCH   1  13
ATOM     13  C   UNL     1       2.610   6.972  18.998  0.00  0.00    +0.000 A 
ATOM     14  C   UNL     1       2.041   7.548  20.146  0.00  0.00    +0.000 A 
ATOM     15  C   UNL     1       1.331   8.749  20.081  0.00  0.00    +0.000 A 
ATOM     16  C   UNL     1       1.161   9.414  18.862  0.00  0.00    +0.000 A 
ATOM     17  C   UNL     1       1.746   8.866  17.713  0.00  0.00    +0.000 A 
ATOM     18  C   UNL     1       2.454   7.665  17.779  0.00  0.00    +0.000 A 
BRANCH  16  19
ATOM     19  C   UNL     1       0.346  10.677  18.757  0.00  0.00    +0.000 C 
ATOM     20  F   UNL     1      -0.660  10.601  17.840  0.00  0.00    +0.000 F 
ATOM     21  F   UNL     1      -0.247  11.016  19.936  0.00  0.00    +0.000 F 
ATOM     22  F   UNL     1       1.100  11.752  18.396  0.00  0.00    +0.000 F 
ENDBRANCH  16  19
ENDBRANCH   1  13
BRANCH   1  23
ATOM     23  C   UNL     1       2.291   4.411  19.250  0.00  0.00    +0.000 A 
ATOM     24  C   UNL     1       2.235   3.733  20.484  0.00  0.00    +0.000 A 
ATOM     25  C   UNL     1       1.407   2.626  20.654  0.00  0.00    +0.000 A 
ATOM     26  C   UNL     1       0.642   2.214  19.579  0.00  0.00    +0.000 A 
ATOM     27  N   UNL     1       0.642   2.837  18.384  0.00  0.00    +0.000 NA
ATOM     28  C   UNL     1       1.468   3.904  18.246  0.00  0.00    +0.000 A 
ENDBRANCH   1  23
BRANCH   1  29
ATOM     29  O   UNL     1       4.043   5.509  20.266  0.00  0.00    +0.000 OA
ATOM     30  H   UNL     1       3.433   5.305  20.988  0.00  0.00    +0.000 HD
ENDBRANCH   1  29
TORSDOF 6
ENDMDL
MODEL 4
REMARK VINA RESULT:      -8.6      0.725      1.379
REMARK  Name = 
REMARK  6 active torsions:
REMARK  status: ('A' for Active; 'I' for Inactive)
REMARK    1  A    between atoms: C_2  and  C_4
REMARK    2  A    between atoms: C_7  and  C_8
REMARK    3  A    between atoms: C_8  and  O_9
REMARK    4  A    between atoms: C_8  and  C_10
REMARK    5  A    between atoms: C_8  and  C_20
REMARK    6  A    between atoms: C_13  and  C_14
REMARK                            x       y       z     vdW  Elec       q    Type
REMARK                         _______ _______ _______ _____ _____    ______ ____
ROOT
ATOM      1  C   UNL     1       3.256   5.543  19.030  0.00  0.00    +0.000 C 
ENDROOT
BRANCH   1   5
ATOM      2  C   UNL     1       5.953   5.049  15.604  0.00  0.00    +0.000 A 
ATOM      3  C   UNL     1       6.058   6.174  16.422  0.00  0.00    +0.000 A 
ATOM      4  C   UNL     1       5.214   6.325  17.527  0.00  0.00    +0.000 A 
ATOM      5  C   UNL     1       4.216   5.376  17.822  0.00  0.00    +0.000 A 
ATOM      6  C   UNL     1       4.108   4.259  16.960  0.00  0.00    +0.000 A 
ATOM      7  C   UNL     1       4.969   4.095  15.868  0.00  0.00    +0.000 A 
BRANCH   2   9
ATOM      8  N   UNL     1       6.568   3.828  13.593  0.00  0.00    +0.000 N 
ATOM      9  C   UNL     1       6.865   4.854  14.448  0.00  0.00    +0.000 C 
ATOM     10  O   UNL     1       7.819   5.594  14.247  0.00  0.00    +0.000 OA
ATOM     11  H   UNL     1       7.130   3.761  12.756  0.00  0.00    +0.000 HD
ATOM     12  H   UNL     1       5.660   3.384  13.583  0.00  0.00    +0.000 HD
ENDBRANCH   2   9
ENDBRANCH   1   5
BRANCH   1  13
ATOM     13  C   UNL     1       2.557   6.927  18.931  0.00  0.00    +0.000 A 
ATOM     14  C   UNL     1       2.608   7.688  17.751  0.00  0.00    +0.000 A 
ATOM     15  C   UNL     1       2.093   8.984  17.699  0.00  0.00    +0.000 A 
ATOM     16  C   UNL     1       1.511   9.568  18.829  0.00  0.00    +0.000 A 
ATOM     17  C   UNL     1       1.427   8.812  20.006  0.00  0.00    +0.000 A 
ATOM     18  C   UNL     1       1.944   7.516  20.057  0.00  0.00    +0.000 A 
BRANCH  16  19
ATOM     19  C   UNL     1       1.005  10.987  18.815  0.00  0.00    +0.000 C 
ATOM     20  F   UNL     1       1.831  11.854  18.163  0.00  0.00    +0.000 F 
ATOM     21  F   UNL     1      -0.211  11.103  18.211  0.00  0.00    +0.000 F 
ATOM     22  F   UNL     1       0.847  11.494  20.069  0.00  0.00    +0.000 F 
ENDBRANCH  16  19
ENDBRANCH   1  13
BRANCH   1  23
ATOM     23  C   UNL     1       2.301   4.370  19.277  0.00  0.00    +0.000 A 
ATOM     24  C   UNL     1       2.293   3.705  20.519  0.00  0.00    +0.000 A 
ATOM     25  C   UNL     1       1.492   2.585  20.725  0.00  0.00    +0.000 A 
ATOM     26  C   UNL     1       0.704   2.146  19.677  0.00  0.00    +0.000 A 
ATOM     27  N   UNL     1       0.658   2.756  18.476  0.00  0.00    +0.000 NA
ATOM     28  C   UNL     1       1.459   3.836  18.303  0.00  0.00    +0.000 A 
ENDBRANCH   1  23
BRANCH   1  29
ATOM     29  O   UNL     1       4.023   5.547  20.254  0.00  0.00    +0.000 OA
ATOM     30  H   UNL     1       3.625   6.196  20.849  0.00  0.00    +0.000 HD
ENDBRANCH   1  29
TORSDOF 6
ENDMDL
MODEL 5
REMARK VINA RESULT:      -8.6      0.683      1.327
REMARK  Name = 
REMARK  6 active torsions:
REMARK  status: ('A' for Active; 'I' for Inactive)
REMARK    1  A    between atoms: C_2  and  C_4
REMARK    2  A    between atoms: C_7  and  C_8
REMARK    3  A    between atoms: C_8  and  O_9
REMARK    4  A    between atoms: C_8  and  C_10
REMARK    5  A    between atoms: C_8  and  C_20
REMARK    6  A    between atoms: C_13  and  C_14
REMARK                            x       y       z     vdW  Elec       q    Type
REMARK                         _______ _______ _______ _____ _____    ______ ____
ROOT
ATOM      1  C   UNL     1       3.523   5.463  18.996  0.00  0.00    +0.000 C 
ENDROOT
BRANCH   1   5
ATOM      2  C   UNL     1       6.009   5.006  15.409  0.00  0.00    +0.000 A 
ATOM      3  C   UNL     1       6.228   6.072  16.283  0.00  0.00    +0.000 A 
ATOM      4  C   UNL     1       5.451   6.209  17.438  0.00  0.00    +0.000 A 
ATOM      5  C   UNL     1       4.409   5.309  17.731  0.00  0.00    +0.000 A 
ATOM      6  C   UNL     1       4.185   4.254  16.815  0.00  0.00    +0.000 A 
ATOM      7  C   UNL     1       4.978   4.101  15.672  0.00  0.00    +0.000 A 
BRANCH   2   9
ATOM      8  N   UNL     1       8.012   5.538  14.139  0.00  0.00    +0.000 N 
ATOM      9  C   UNL     1       6.848   4.823  14.198  0.00  0.00    +0.000 C 
ATOM     10  O   UNL     1       6.533   4.045  13.307  0.00  0.00    +0.000 OA
ATOM     11  H   UNL     1       8.627   5.336  13.363  0.00  0.00    +0.000 HD
ATOM     12  H   UNL     1       8.419   5.969  14.959  0.00  0.00    +0.000 HD
ENDBRANCH   2   9
ENDBRANCH   1   5
BRANCH   1  13
ATOM     13  C   UNL     1       2.735   6.799  18.900  0.00  0.00    +0.000 A 
ATOM     14  C   UNL     1       2.761   7.579  17.732  0.00  0.00    +0.000 A 
ATOM     15  C   UNL     1       2.162   8.839  17.685  0.00  0.00    +0.000 A 
ATOM     16  C   UNL     1       1.519   9.367  18.810  0.00  0.00    +0.000 A 
ATOM     17  C   UNL     1       1.460   8.590  19.975  0.00  0.00    +0.000 A 
ATOM     18  C   UNL     1       2.061   7.330  20.020  0.00  0.00    +0.000 A 
BRANCH  16  19
ATOM     19  C   UNL     1       0.920  10.749  18.804  0.00  0.00    +0.000 C 
ATOM     20  F   UNL     1       0.675  11.243  20.050  0.00  0.00    +0.000 F 
ATOM     21  F   UNL     1       1.723  11.664  18.191  0.00  0.00    +0.000 F 
ATOM     22  F   UNL     1      -0.270  10.797  18.143  0.00  0.00    +0.000 F 
ENDBRANCH  16  19
ENDBRANCH   1  13
BRANCH   1  23
ATOM     23  C   UNL     1       2.659   4.246  19.346  0.00  0.00    +0.000 A 
ATOM     24  C   UNL     1       1.520   3.933  18.578  0.00  0.00    +0.000 A 
ATOM     25  C   UNL     1       0.682   2.882  18.939  0.00  0.00    +0.000 A 
ATOM     26  C   UNL     1       1.000   2.153  20.070  0.00  0.00    +0.000 A 
ATOM     27  N   UNL     1       2.087   2.396  20.829  0.00  0.00    +0.000 NA
ATOM     28  C   UNL     1       2.877   3.435  20.459  0.00  0.00    +0.000 A 
ENDBRANCH   1  23
BRANCH   1  29
ATOM     29  O   UNL     1       4.367   5.557  20.164  0.00  0.00    +0.000 OA
ATOM     30  H   UNL     1       4.605   6.486  20.282  0.00  0.00    +0.000 HD
ENDBRANCH   1  29
TORSDOF 6
ENDMDL
MODEL 6
REMARK VINA RESULT:      -8.5      0.693      1.482
REMARK  Name = 
REMARK  6 active torsions:
REMARK  status: ('A' for Active; 'I' for Inactive)
REMARK    1  A    between atoms: C_2  and  C_4
REMARK    2  A    between atoms: C_7  and  C_8
REMARK    3  A    between atoms: C_8  and  O_9
REMARK    4  A    between atoms: C_8  and  C_10
REMARK    5  A    between atoms: C_8  and  C_20
REMARK    6  A    between atoms: C_13  and  C_14
REMARK                            x       y       z     vdW  Elec       q    Type
REMARK                         _______ _______ _______ _____ _____    ______ ____
ROOT
ATOM      1  C   UNL     1       3.536   5.455  18.986  0.00  0.00    +0.000 C 
ENDROOT
BRANCH   1   5
ATOM      2  C   UNL     1       6.021   4.969  15.402  0.00  0.00    +0.000 A 
ATOM      3  C   UNL     1       4.959   4.096  15.643  0.00  0.00    +0.000 A 
ATOM      4  C   UNL     1       4.153   4.261  16.773  0.00  0.00    +0.000 A 
ATOM      5  C   UNL     1       4.408   5.276  17.714  0.00  0.00    +0.000 A 
ATOM      6  C   UNL     1       5.508   6.130  17.465  0.00  0.00    +0.000 A 
ATOM      7  C   UNL     1       6.301   5.982  16.321  0.00  0.00    +0.000 A 
BRANCH   2   9
ATOM      8  N   UNL     1       8.034   5.543  14.166  0.00  0.00    +0.000 N 
ATOM      9  C   UNL     1       6.865   4.833  14.187  0.00  0.00    +0.000 C 
ATOM     10  O   UNL     1       6.550   4.096  13.263  0.00  0.00    +0.000 OA
ATOM     11  H   UNL     1       8.653   5.370  13.385  0.00  0.00    +0.000 HD
ATOM     12  H   UNL     1       8.440   5.935  15.005  0.00  0.00    +0.000 HD
ENDBRANCH   2   9
ENDBRANCH   1   5
BRANCH   1  13
ATOM     13  C   UNL     1       2.759   6.796  18.880  0.00  0.00    +0.000 A 
ATOM     14  C   UNL     1       2.825   7.589  17.723  0.00  0.00    +0.000 A 
ATOM     15  C   UNL     1       2.234   8.852  17.672  0.00  0.00    +0.000 A 
ATOM     16  C   UNL     1       1.557   9.370  18.782  0.00  0.00    +0.000 A 
ATOM     17  C   UNL     1       1.458   8.580  19.934  0.00  0.00    +0.000 A 
ATOM     18  C   UNL     1       2.052   7.317  19.984  0.00  0.00    +0.000 A 
BRANCH  16  19
ATOM     19  C   UNL     1       0.966  10.756  18.772  0.00  0.00    +0.000 C 
ATOM     20  F   UNL     1       1.730  11.670  18.112  0.00  0.00    +0.000 F 
ATOM     21  F   UNL     1      -0.261  10.797  18.181  0.00  0.00    +0.000 F 
ATOM     22  F   UNL     1       0.790  11.254  20.028  0.00  0.00    +0.000 F 
ENDBRANCH  16  19
ENDBRANCH   1  13
BRANCH   1  23
ATOM     23  C   UNL     1       2.667   4.250  19.362  0.00  0.00    +0.000 A 
ATOM     24  C   UNL     1       1.529   3.923  18.598  0.00  0.00    +0.000 A 
ATOM     25  C   UNL     1       0.685   2.884  18.981  0.00  0.00    +0.000 A 
ATOM     26  C   UNL     1       0.998   2.181  20.129  0.00  0.00    +0.000 A 
ATOM     27  N   UNL     1       2.084   2.437  20.886  0.00  0.00    +0.000 NA
ATOM     28  C   UNL     1       2.879   3.464  20.493  0.00  0.00    +0.000 A 
ENDBRANCH   1  23
BRANCH   1  29
ATOM     29  O   UNL     1       4.394   5.558  20.143  0.00  0.00    +0.000 OA
ATOM     30  H   UNL     1       4.244   4.777  20.693  0.00  0.00    +0.000 HD
ENDBRANCH   1  29
TORSDOF 6
ENDMDL
MODEL 7
REMARK VINA RESULT:      -8.5      4.610      7.660
REMARK  Name = 
REMARK  6 active torsions:
REMARK  status: ('A' for Active; 'I' for Inactive)
REMARK    1  A    between atoms: C_2  and  C_4
REMARK    2  A    between atoms: C_7  and  C_8
REMARK    3  A    between atoms: C_8  and  O_9
REMARK    4  A    between atoms: C_8  and  C_10
REMARK    5  A    between atoms: C_8  and  C_20
REMARK    6  A    between atoms: C_13  and  C_14
REMARK                            x       y       z     vdW  Elec       q    Type
REMARK                         _______ _______ _______ _____ _____    ______ ____
ROOT
ATOM      1  C   UNL     1       6.558   5.050  17.743  0.00  0.00    +0.000 C 
ENDROOT
BRANCH   1   5
ATOM      2  C   UNL     1       2.974   4.090  20.086  0.00  0.00    +0.000 A 
ATOM      3  C   UNL     1       3.214   5.402  19.677  0.00  0.00    +0.000 A 
ATOM      4  C   UNL     1       4.344   5.708  18.913  0.00  0.00    +0.000 A 
ATOM      5  C   UNL     1       5.286   4.720  18.569  0.00  0.00    +0.000 A 
ATOM      6  C   UNL     1       5.038   3.402  19.021  0.00  0.00    +0.000 A 
ATOM      7  C   UNL     1       3.894   3.090  19.765  0.00  0.00    +0.000 A 
BRANCH   2   9
ATOM      8  N   UNL     1       1.953   3.049  22.032  0.00  0.00    +0.000 N 
ATOM      9  C   UNL     1       1.760   3.739  20.866  0.00  0.00    +0.000 C 
ATOM     10  O   UNL     1       0.641   4.079  20.505  0.00  0.00    +0.000 OA
ATOM     11  H   UNL     1       1.136   2.901  22.608  0.00  0.00    +0.000 HD
ATOM     12  H   UNL     1       2.857   2.995  22.479  0.00  0.00    +0.000 HD
ENDBRANCH   2   9
ENDBRANCH   1   5
BRANCH   1  13
ATOM     13  C   UNL     1       6.284   4.733  16.247  0.00  0.00    +0.000 A 
ATOM     14  C   UNL     1       5.050   4.211  15.826  0.00  0.00    +0.000 A 
ATOM     15  C   UNL     1       4.844   3.805  14.506  0.00  0.00    +0.000 A 
ATOM     16  C   UNL     1       5.870   3.904  13.560  0.00  0.00    +0.000 A 
ATOM     17  C   UNL     1       7.098   4.449  13.957  0.00  0.00    +0.000 A 
ATOM     18  C   UNL     1       7.302   4.853  15.279  0.00  0.00    +0.000 A 
BRANCH  16  19
ATOM     19  C   UNL     1       5.692   3.415  12.146  0.00  0.00    +0.000 C 
ATOM     20  F   UNL     1       4.473   3.712  11.616  0.00  0.00    +0.000 F 
ATOM     21  F   UNL     1       6.611   3.943  11.290  0.00  0.00    +0.000 F 
ATOM     22  F   UNL     1       5.824   2.063  12.044  0.00  0.00    +0.000 F 
ENDBRANCH  16  19
ENDBRANCH   1  13
BRANCH   1  23
ATOM     23  C   UNL     1       7.164   6.435  17.994  0.00  0.00    +0.000 A 
ATOM     24  C   UNL     1       6.766   7.540  17.216  0.00  0.00    +0.000 A 
ATOM     25  C   UNL     1       7.373   8.783  17.378  0.00  0.00    +0.000 A 
ATOM     26  C   UNL     1       8.373   8.902  18.324  0.00  0.00    +0.000 A 
ATOM     27  N   UNL     1       8.778   7.884  19.109  0.00  0.00    +0.000 NA
ATOM     28  C   UNL     1       8.177   6.683  18.919  0.00  0.00    +0.000 A 
ENDBRANCH   1  23
BRANCH   1  29
ATOM     29  O   UNL     1       7.639   4.187  18.163  0.00  0.00    +0.000 OA
ATOM     30  H   UNL     1       7.823   4.377  19.093  0.00  0.00    +0.000 HD
ENDBRANCH   1  29
TORSDOF 6
ENDMDL
MODEL 8
REMARK VINA RESULT:      -8.3      3.800      5.917
REMARK  Name = 
REMARK  6 active torsions:
REMARK  status: ('A' for Active; 'I' for Inactive)
REMARK    1  A    between atoms: C_2  and  C_4
REMARK    2  A    between atoms: C_7  and  C_8
REMARK    3  A    between atoms: C_8  and  O_9
REMARK    4  A    between atoms: C_8  and  C_10
REMARK    5  A    between atoms: C_8  and  C_20
REMARK    6  A    between atoms: C_13  and  C_14
REMARK                            x       y       z     vdW  Elec       q    Type
REMARK                         _______ _______ _______ _____ _____    ______ ____
ROOT
ATOM      1  C   UNL     1       6.551   5.075  17.339  0.00  0.00    +0.000 C 
ENDROOT
BRANCH   1   5
ATOM      2  C   UNL     1       8.427   8.871  18.491  0.00  0.00    +0.000 A 
ATOM      3  C   UNL     1       8.684   7.711  19.223  0.00  0.00    +0.000 A 
ATOM      4  C   UNL     1       8.104   6.495  18.846  0.00  0.00    +0.000 A 
ATOM      5  C   UNL     1       7.221   6.412  17.753  0.00  0.00    +0.000 A 
ATOM      6  C   UNL     1       6.951   7.607  17.044  0.00  0.00    +0.000 A 
ATOM      7  C   UNL     1       7.550   8.820  17.405  0.00  0.00    +0.000 A 
BRANCH   2   9
ATOM      8  N   UNL     1       9.366  10.352  20.175  0.00  0.00    +0.000 N 
ATOM      9  C   UNL     1       9.063  10.163  18.854  0.00  0.00    +0.000 C 
ATOM     10  O   UNL     1       9.335  11.007  18.011  0.00  0.00    +0.000 OA
ATOM     11  H   UNL     1       9.888  11.187  20.402  0.00  0.00    +0.000 HD
ATOM     12  H   UNL     1       9.401   9.586  20.832  0.00  0.00    +0.000 HD
ENDBRANCH   2   9
ENDBRANCH   1   5
BRANCH   1  13
ATOM     13  C   UNL     1       5.197   4.936  18.089  0.00  0.00    +0.000 A 
ATOM     14  C   UNL     1       4.238   5.962  18.059  0.00  0.00    +0.000 A 
ATOM     15  C   UNL     1       3.078   5.896  18.834  0.00  0.00    +0.000 A 
ATOM     16  C   UNL     1       2.840   4.800  19.672  0.00  0.00    +0.000 A 
ATOM     17  C   UNL     1       3.773   3.756  19.691  0.00  0.00    +0.000 A 
ATOM     18  C   UNL     1       4.933   3.825  18.916  0.00  0.00    +0.000 A 
BRANCH  16  19
ATOM     19  C   UNL     1       1.628   4.736  20.564  0.00  0.00    +0.000 C 
ATOM     20  F   UNL     1       0.568   4.093  19.998  0.00  0.00    +0.000 F 
ATOM     21  F   UNL     1       1.875   4.088  21.737  0.00  0.00    +0.000 F 
ATOM     22  F   UNL     1       1.172   5.971  20.911  0.00  0.00    +0.000 F 
ENDBRANCH  16  19
ENDBRANCH   1  13
BRANCH   1  23
ATOM     23  C   UNL     1       6.464   4.823  15.829  0.00  0.00    +0.000 A 
ATOM     24  C   UNL     1       5.399   4.075  15.290  0.00  0.00    +0.000 A 
ATOM     25  C   UNL     1       5.358   3.767  13.932  0.00  0.00    +0.000 A 
ATOM     26  C   UNL     1       6.388   4.219  13.130  0.00  0.00    +0.000 A 
ATOM     27  N   UNL     1       7.421   4.954  13.590  0.00  0.00    +0.000 NA
ATOM     28  C   UNL     1       7.439   5.226  14.918  0.00  0.00    +0.000 A 
ENDBRANCH   1  23
BRANCH   1  29
ATOM     29  O   UNL     1       7.380   3.972  17.763  0.00  0.00    +0.000 OA
ATOM     30  H   UNL     1       6.798   3.238  18.000  0.00  0.00    +0.000 HD
ENDBRANCH   1  29
TORSDOF 6
ENDMDL
MODEL 9
REMARK VINA RESULT:      -8.3      0.946      1.593
REMARK  Name = 
REMARK  6 active torsions:
REMARK  status: ('A' for Active; 'I' for Inactive)
REMARK    1  A    between atoms: C_2  and  C_4
REMARK    2  A    between atoms: C_7  and  C_8
REMARK    3  A    between atoms: C_8  and  O_9
REMARK    4  A    between atoms: C_8  and  C_10
REMARK    5  A    between atoms: C_8  and  C_20
REMARK    6  A    between atoms: C_13  and  C_14
REMARK                            x       y       z     vdW  Elec       q    Type
REMARK                         _______ _______ _______ _____ _____    ______ ____
ROOT
ATOM      1  C   UNL     1       3.307   5.456  18.962  0.00  0.00    +0.000 C 
ENDROOT
BRANCH   1   5
ATOM      2  C   UNL     1       5.864   4.986  15.427  0.00  0.00    +0.000 A 
ATOM      3  C   UNL     1       5.511   3.872  16.190  0.00  0.00    +0.000 A 
ATOM      4  C   UNL     1       4.680   4.016  17.305  0.00  0.00    +0.000 A 
ATOM      5  C   UNL     1       4.210   5.279  17.712  0.00  0.00    +0.000 A 
ATOM      6  C   UNL     1       4.605   6.398  16.941  0.00  0.00    +0.000 A 
ATOM      7  C   UNL     1       5.417   6.253  15.810  0.00  0.00    +0.000 A 
BRANCH   2   9
ATOM      8  N   UNL     1       7.916   5.505  14.230  0.00  0.00    +0.000 N 
ATOM      9  C   UNL     1       6.716   4.848  14.218  0.00  0.00    +0.000 C 
ATOM     10  O   UNL     1       6.379   4.154  13.268  0.00  0.00    +0.000 OA
ATOM     11  H   UNL     1       8.534   5.328  13.451  0.00  0.00    +0.000 HD
ATOM     12  H   UNL     1       8.328   5.853  15.084  0.00  0.00    +0.000 HD
ENDBRANCH   2   9
ENDBRANCH   1   5
BRANCH   1  13
ATOM     13  C   UNL     1       2.680   6.877  18.934  0.00  0.00    +0.000 A 
ATOM     14  C   UNL     1       2.064   7.425  20.071  0.00  0.00    +0.000 A 
ATOM     15  C   UNL     1       1.388   8.645  20.015  0.00  0.00    +0.000 A 
ATOM     16  C   UNL     1       1.301   9.360  18.815  0.00  0.00    +0.000 A 
ATOM     17  C   UNL     1       1.935   8.841  17.679  0.00  0.00    +0.000 A 
ATOM     18  C   UNL     1       2.609   7.619  17.736  0.00  0.00    +0.000 A 
BRANCH  16  19
ATOM     19  C   UNL     1       0.524  10.647  18.715  0.00  0.00    +0.000 C 
ATOM     20  F   UNL     1      -0.565  10.564  17.901  0.00  0.00    +0.000 F 
ATOM     21  F   UNL     1       0.057  11.071  19.923  0.00  0.00    +0.000 F 
ATOM     22  F   UNL     1       1.277  11.671  18.227  0.00  0.00    +0.000 F 
ENDBRANCH  16  19
ENDBRANCH   1  13
BRANCH   1  23
ATOM     23  C   UNL     1       2.300   4.327  19.211  0.00  0.00    +0.000 A 
ATOM     24  C   UNL     1       2.189   3.738  20.486  0.00  0.00    +0.000 A 
ATOM     25  C   UNL     1       1.341   2.655  20.700  0.00  0.00    +0.000 A 
ATOM     26  C   UNL     1       0.610   2.178  19.629  0.00  0.00    +0.000 A 
ATOM     27  N   UNL     1       0.662   2.716  18.394  0.00  0.00    +0.000 NA
ATOM     28  C   UNL     1       1.508   3.761  18.214  0.00  0.00    +0.000 A 
ENDBRANCH   1  23
BRANCH   1  29
ATOM     29  O   UNL     1       4.119   5.379  20.154  0.00  0.00    +0.000 OA
ATOM     30  H   UNL     1       3.551   5.572  20.911  0.00  0.00    +0.000 HD
ENDBRANCH   1  29
TORSDOF 6
ENDMDL
