MODEL 1
REMARK VINA RESULT:      -6.6      0.000      0.000
REMARK  Name = 
REMARK  5 active torsions:
REMARK  status: ('A' for Active; 'I' for Inactive)
REMARK    1  A    between atoms: C_5  and  C_6
REMARK    2  A    between atoms: C_6  and  C_7
REMARK    3  A    between atoms: C_16  and  O_17
REMARK    4  A    between atoms: C_22  and  C_23
REMARK    5  A    between atoms: C_26  and  O_27
REMARK                            x       y       z     vdW  Elec       q    Type
REMARK                         _______ _______ _______ _____ _____    ______ ____
ROOT
ATOM      1  O   UNL     1      -1.132  12.584  17.855  0.00  0.00    +0.000 OA
ATOM      2  C   UNL     1      -0.711  12.593  19.010  0.00  0.00    +0.000 C 
ATOM      3  C   UNL     1       0.433  13.483  19.494  0.00  0.00    +0.000 C 
ATOM      4  C   UNL     1       0.567  13.434  21.053  0.00  0.00    +0.000 C 
ATOM      5  C   UNL     1      -0.852  13.628  21.663  0.00  0.00    +0.000 C 
ATOM      6  C   UNL     1      -1.174  13.170  23.116  0.00  0.00    +0.000 C 
ATOM      7  C   UNL     1      -2.658  12.884  22.978  0.00  0.00    +0.000 A 
ATOM      8  C   UNL     1      -3.646  13.015  23.951  0.00  0.00    +0.000 A 
ATOM      9  C   UNL     1      -4.976  13.023  23.524  0.00  0.00    +0.000 A 
ATOM     10  C   UNL     1      -5.304  12.909  22.170  0.00  0.00    +0.000 A 
ATOM     11  C   UNL     1      -4.302  12.657  21.217  0.00  0.00    +0.000 A 
ATOM     12  C   UNL     1      -2.977  12.600  21.644  0.00  0.00    +0.000 A 
ATOM     13  C   UNL     1      -1.729  12.612  20.868  0.00  0.00    +0.000 C 
ATOM     14  C   UNL     1      -1.250  11.614  20.043  0.00  0.00    +0.000 C 
ENDROOT
BRANCH  14  15
ATOM     15  C   UNL     1      -0.105  10.529  20.144  0.00  0.00    +0.000 A 
ATOM     16  C   UNL     1       0.708  10.061  19.097  0.00  0.00    +0.000 A 
ATOM     17  C   UNL     1       1.471   8.862  19.227  0.00  0.00    +0.000 A 
ATOM     18  C   UNL     1       1.464   8.143  20.420  0.00  0.00    +0.000 A 
ATOM     19  C   UNL     1       0.782   8.636  21.510  0.00  0.00    +0.000 A 
ATOM     20  C   UNL     1       0.028   9.824  21.388  0.00  0.00    +0.000 A 
BRANCH  18  21
ATOM     21  O   UNL     1       2.106   6.947  20.564  0.00  0.00    +0.000 OA
ATOM     22  H   UNL     1       2.028   6.423  19.747  0.00  0.00    +0.000 HD
ENDBRANCH  18  21
ENDBRANCH  14  15
BRANCH   9  23
ATOM     23  O   UNL     1      -6.007  13.197  24.407  0.00  0.00    +0.000 OA
ATOM     24  H   UNL     1      -6.487  12.356  24.493  0.00  0.00    +0.000 HD
ENDBRANCH   9  23
BRANCH   5  25
ATOM     25  C   UNL     1      -0.978  15.223  21.577  0.00  0.00    +0.000 C 
BRANCH  25  26
ATOM     26  C   UNL     1      -1.967  16.227  21.021  0.00  0.00    +0.000 A 
ATOM     27  C   UNL     1      -1.478  17.096  20.012  0.00  0.00    +0.000 A 
ATOM     28  C   UNL     1      -2.325  17.881  19.229  0.00  0.00    +0.000 A 
ATOM     29  C   UNL     1      -3.693  17.820  19.436  0.00  0.00    +0.000 A 
ATOM     30  C   UNL     1      -4.201  16.975  20.418  0.00  0.00    +0.000 A 
ATOM     31  C   UNL     1      -3.353  16.166  21.192  0.00  0.00    +0.000 A 
ENDBRANCH  25  26
ENDBRANCH   5  25
TORSDOF 5
ENDMDL
MODEL 2
REMARK VINA RESULT:      -6.6      2.543      6.261
REMARK  Name = 
REMARK  5 active torsions:
REMARK  status: ('A' for Active; 'I' for Inactive)
REMARK    1  A    between atoms: C_5  and  C_6
REMARK    2  A    between atoms: C_6  and  C_7
REMARK    3  A    between atoms: C_16  and  O_17
REMARK    4  A    between atoms: C_22  and  C_23
REMARK    5  A    between atoms: C_26  and  O_27
REMARK                            x       y       z     vdW  Elec       q    Type
REMARK                         _______ _______ _______ _____ _____    ______ ____
ROOT
ATOM      1  O   UNL     1      -2.015  13.371  22.368  0.00  0.00    +0.000 OA
ATOM      2  C   UNL     1      -1.659  13.163  21.210  0.00  0.00    +0.000 C 
ATOM      3  C   UNL     1      -1.013  14.220  20.314  0.00  0.00    +0.000 C 
ATOM      4  C   UNL     1      -0.462  13.581  18.994  0.00  0.00    +0.000 C 
ATOM      5  C   UNL     1       0.357  12.315  19.379  0.00  0.00    +0.000 C 
ATOM      6  C   UNL     1       0.639  11.190  18.340  0.00  0.00    +0.000 C 
ATOM      7  C   UNL     1       0.756   9.997  19.270  0.00  0.00    +0.000 A 
ATOM      8  C   UNL     1       1.545   8.861  19.106  0.00  0.00    +0.000 A 
ATOM      9  C   UNL     1       1.756   8.052  20.224  0.00  0.00    +0.000 A 
ATOM     10  C   UNL     1       1.201   8.374  21.467  0.00  0.00    +0.000 A 
ATOM     11  C   UNL     1       0.311   9.455  21.587  0.00  0.00    +0.000 A 
ATOM     12  C   UNL     1       0.059  10.237  20.461  0.00  0.00    +0.000 A 
ATOM     13  C   UNL     1      -0.600  11.546  20.343  0.00  0.00    +0.000 C 
ATOM     14  C   UNL     1      -1.937  11.828  20.537  0.00  0.00    +0.000 C 
ENDROOT
BRANCH  14  15
ATOM     15  C   UNL     1      -3.164  12.147  19.593  0.00  0.00    +0.000 A 
ATOM     16  C   UNL     1      -4.350  12.814  19.947  0.00  0.00    +0.000 A 
ATOM     17  C   UNL     1      -5.511  12.756  19.119  0.00  0.00    +0.000 A 
ATOM     18  C   UNL     1      -5.485  12.070  17.908  0.00  0.00    +0.000 A 
ATOM     19  C   UNL     1      -4.307  11.512  17.464  0.00  0.00    +0.000 A 
ATOM     20  C   UNL     1      -3.153  11.569  18.279  0.00  0.00    +0.000 A 
BRANCH  18  21
ATOM     21  O   UNL     1      -6.592  11.914  17.125  0.00  0.00    +0.000 OA
ATOM     22  H   UNL     1      -6.330  11.745  16.202  0.00  0.00    +0.000 HD
ENDBRANCH  18  21
ENDBRANCH  14  15
BRANCH   9  23
ATOM     23  O   UNL     1       2.558   6.945  20.164  0.00  0.00    +0.000 OA
ATOM     24  H   UNL     1       2.620   6.657  19.238  0.00  0.00    +0.000 HD
ENDBRANCH   9  23
BRANCH   5  25
ATOM     25  C   UNL     1       1.744  12.996  19.804  0.00  0.00    +0.000 C 
BRANCH  25  26
ATOM     26  C   UNL     1       2.552  14.211  19.393  0.00  0.00    +0.000 A 
ATOM     27  C   UNL     1       3.095  14.188  18.083  0.00  0.00    +0.000 A 
ATOM     28  C   UNL     1       3.628  15.327  17.476  0.00  0.00    +0.000 A 
ATOM     29  C   UNL     1       3.634  16.525  18.169  0.00  0.00    +0.000 A 
ATOM     30  C   UNL     1       3.106  16.577  19.455  0.00  0.00    +0.000 A 
ATOM     31  C   UNL     1       2.548  15.439  20.060  0.00  0.00    +0.000 A 
ENDBRANCH  25  26
ENDBRANCH   5  25
TORSDOF 5
ENDMDL
MODEL 3
REMARK VINA RESULT:      -6.5      2.840      7.524
REMARK  Name = 
REMARK  5 active torsions:
REMARK  status: ('A' for Active; 'I' for Inactive)
REMARK    1  A    between atoms: C_5  and  C_6
REMARK    2  A    between atoms: C_6  and  C_7
REMARK    3  A    between atoms: C_16  and  O_17
REMARK    4  A    between atoms: C_22  and  C_23
REMARK    5  A    between atoms: C_26  and  O_27
REMARK                            x       y       z     vdW  Elec       q    Type
REMARK                         _______ _______ _______ _____ _____    ______ ____
ROOT
ATOM      1  O   UNL     1      -2.192  11.795  16.697  0.00  0.00    +0.000 OA
ATOM      2  C   UNL     1      -1.790  11.492  17.819  0.00  0.00    +0.000 C 
ATOM      3  C   UNL     1      -1.576  10.053  18.287  0.00  0.00    +0.000 C 
ATOM      4  C   UNL     1      -0.838  10.012  19.668  0.00  0.00    +0.000 C 
ATOM      5  C   UNL     1       0.386  10.970  19.586  0.00  0.00    +0.000 C 
ATOM      6  C   UNL     1       1.051  11.540  20.874  0.00  0.00    +0.000 C 
ATOM      7  C   UNL     1       1.597  12.847  20.330  0.00  0.00    +0.000 A 
ATOM      8  C   UNL     1       2.743  13.528  20.736  0.00  0.00    +0.000 A 
ATOM      9  C   UNL     1       3.238  14.522  19.889  0.00  0.00    +0.000 A 
ATOM     10  C   UNL     1       2.611  14.820  18.676  0.00  0.00    +0.000 A 
ATOM     11  C   UNL     1       1.391  14.209  18.340  0.00  0.00    +0.000 A 
ATOM     12  C   UNL     1       0.867  13.250  19.205  0.00  0.00    +0.000 A 
ATOM     13  C   UNL     1      -0.222  12.283  19.003  0.00  0.00    +0.000 C 
ATOM     14  C   UNL     1      -1.570  12.557  18.882  0.00  0.00    +0.000 C 
ENDROOT
BRANCH  14  15
ATOM     15  C   UNL     1      -2.834  12.401  19.818  0.00  0.00    +0.000 A 
ATOM     16  C   UNL     1      -4.173  12.268  19.411  0.00  0.00    +0.000 A 
ATOM     17  C   UNL     1      -5.251  12.465  20.326  0.00  0.00    +0.000 A 
ATOM     18  C   UNL     1      -5.001  12.752  21.665  0.00  0.00    +0.000 A 
ATOM     19  C   UNL     1      -3.705  12.765  22.130  0.00  0.00    +0.000 A 
ATOM     20  C   UNL     1      -2.634  12.568  21.230  0.00  0.00    +0.000 A 
BRANCH  18  21
ATOM     21  O   UNL     1      -5.995  13.034  22.556  0.00  0.00    +0.000 OA
ATOM     22  H   UNL     1      -6.840  12.665  22.245  0.00  0.00    +0.000 HD
ENDBRANCH  18  21
ENDBRANCH  14  15
BRANCH   9  23
ATOM     23  O   UNL     1       4.386  15.205  20.186  0.00  0.00    +0.000 OA
ATOM     24  H   UNL     1       5.112  14.837  19.654  0.00  0.00    +0.000 HD
ENDBRANCH   9  23
BRANCH   5  25
ATOM     25  C   UNL     1       1.435  10.022  18.831  0.00  0.00    +0.000 C 
BRANCH  25  26
ATOM     26  C   UNL     1       1.853   8.566  18.890  0.00  0.00    +0.000 A 
ATOM     27  C   UNL     1       2.649   8.100  17.813  0.00  0.00    +0.000 A 
ATOM     28  C   UNL     1       3.322   6.878  17.858  0.00  0.00    +0.000 A 
ATOM     29  C   UNL     1       3.213   6.084  18.987  0.00  0.00    +0.000 A 
ATOM     30  C   UNL     1       2.440   6.517  20.059  0.00  0.00    +0.000 A 
ATOM     31  C   UNL     1       1.780   7.757  20.027  0.00  0.00    +0.000 A 
ENDBRANCH  25  26
ENDBRANCH   5  25
TORSDOF 5
ENDMDL
MODEL 4
REMARK VINA RESULT:      -6.4      0.991      1.409
REMARK  Name = 
REMARK  5 active torsions:
REMARK  status: ('A' for Active; 'I' for Inactive)
REMARK    1  A    between atoms: C_5  and  C_6
REMARK    2  A    between atoms: C_6  and  C_7
REMARK    3  A    between atoms: C_16  and  O_17
REMARK    4  A    between atoms: C_22  and  C_23
REMARK    5  A    between atoms: C_26  and  O_27
REMARK                            x       y       z     vdW  Elec       q    Type
REMARK                         _______ _______ _______ _____ _____    ______ ____
ROOT
ATOM      1  O   UNL     1      -1.147  12.646  18.003  0.00  0.00    +0.000 OA
ATOM      2  C   UNL     1      -0.745  12.649  19.164  0.00  0.00    +0.000 C 
ATOM      3  C   UNL     1       0.387  13.543  19.672  0.00  0.00    +0.000 C 
ATOM      4  C   UNL     1       0.497  13.485  21.232  0.00  0.00    +0.000 C 
ATOM      5  C   UNL     1      -0.932  13.668  21.822  0.00  0.00    +0.000 C 
ATOM      6  C   UNL     1      -1.275  13.199  23.266  0.00  0.00    +0.000 C 
ATOM      7  C   UNL     1      -2.755  12.906  23.103  0.00  0.00    +0.000 A 
ATOM      8  C   UNL     1      -3.759  13.026  24.061  0.00  0.00    +0.000 A 
ATOM      9  C   UNL     1      -5.082  13.029  23.614  0.00  0.00    +0.000 A 
ATOM     10  C   UNL     1      -5.388  12.922  22.254  0.00  0.00    +0.000 A 
ATOM     11  C   UNL     1      -4.370  12.681  21.315  0.00  0.00    +0.000 A 
ATOM     12  C   UNL     1      -3.052  12.629  21.763  0.00  0.00    +0.000 A 
ATOM     13  C   UNL     1      -1.791  12.652  21.006  0.00  0.00    +0.000 C 
ATOM     14  C   UNL     1      -1.294  11.662  20.183  0.00  0.00    +0.000 C 
ENDROOT
BRANCH  14  15
ATOM     15  C   UNL     1      -0.145  10.582  20.296  0.00  0.00    +0.000 A 
ATOM     16  C   UNL     1       0.598  10.028  19.238  0.00  0.00    +0.000 A 
ATOM     17  C   UNL     1       1.367   8.839  19.414  0.00  0.00    +0.000 A 
ATOM     18  C   UNL     1       1.438   8.217  20.658  0.00  0.00    +0.000 A 
ATOM     19  C   UNL     1       0.829   8.798  21.747  0.00  0.00    +0.000 A 
ATOM     20  C   UNL     1       0.068   9.977  21.580  0.00  0.00    +0.000 A 
BRANCH  18  21
ATOM     21  O   UNL     1       2.088   7.033  20.854  0.00  0.00    +0.000 OA
ATOM     22  H   UNL     1       2.146   6.539  20.018  0.00  0.00    +0.000 HD
ENDBRANCH  18  21
ENDBRANCH  14  15
BRANCH   9  23
ATOM     23  O   UNL     1      -6.128  13.193  24.481  0.00  0.00    +0.000 OA
ATOM     24  H   UNL     1      -6.789  13.770  24.064  0.00  0.00    +0.000 HD
ENDBRANCH   9  23
BRANCH   5  25
ATOM     25  C   UNL     1      -1.065  15.263  21.744  0.00  0.00    +0.000 C 
BRANCH  25  26
ATOM     26  C   UNL     1      -2.058  16.314  22.198  0.00  0.00    +0.000 A 
ATOM     27  C   UNL     1      -3.326  16.294  21.565  0.00  0.00    +0.000 A 
ATOM     28  C   UNL     1      -4.416  17.015  22.054  0.00  0.00    +0.000 A 
ATOM     29  C   UNL     1      -4.265  17.783  23.196  0.00  0.00    +0.000 A 
ATOM     30  C   UNL     1      -3.031  17.821  23.839  0.00  0.00    +0.000 A 
ATOM     31  C   UNL     1      -1.939  17.078  23.363  0.00  0.00    +0.000 A 
ENDBRANCH  25  26
ENDBRANCH   5  25
TORSDOF 5
ENDMDL
MODEL 5
REMARK VINA RESULT:      -6.4      1.515      2.253
REMARK  Name = 
REMARK  5 active torsions:
REMARK  status: ('A' for Active; 'I' for Inactive)
REMARK    1  A    between atoms: C_5  and  C_6
REMARK    2  A    between atoms: C_6  and  C_7
REMARK    3  A    between atoms: C_16  and  O_17
REMARK    4  A    between atoms: C_22  and  C_23
REMARK    5  A    between atoms: C_26  and  O_27
REMARK                            x       y       z     vdW  Elec       q    Type
REMARK                         _______ _______ _______ _____ _____    ______ ____
ROOT
ATOM      1  O   UNL     1      -0.869  13.146  17.936  0.00  0.00    +0.000 OA
ATOM      2  C   UNL     1      -0.531  12.755  19.052  0.00  0.00    +0.000 C 
ATOM      3  C   UNL     1       0.730  13.228  19.776  0.00  0.00    +0.000 C 
ATOM      4  C   UNL     1       0.749  12.731  21.260  0.00  0.00    +0.000 C 
ATOM      5  C   UNL     1      -0.642  13.040  21.888  0.00  0.00    +0.000 C 
ATOM      6  C   UNL     1      -1.143  12.281  23.152  0.00  0.00    +0.000 C 
ATOM      7  C   UNL     1      -2.642  12.354  22.926  0.00  0.00    +0.000 A 
ATOM      8  C   UNL     1      -3.648  12.417  23.887  0.00  0.00    +0.000 A 
ATOM      9  C   UNL     1      -4.919  12.812  23.467  0.00  0.00    +0.000 A 
ATOM     10  C   UNL     1      -5.173  13.139  22.132  0.00  0.00    +0.000 A 
ATOM     11  C   UNL     1      -4.179  12.955  21.156  0.00  0.00    +0.000 A 
ATOM     12  C   UNL     1      -2.921  12.514  21.563  0.00  0.00    +0.000 A 
ATOM     13  C   UNL     1      -1.646  12.479  20.832  0.00  0.00    +0.000 C 
ATOM     14  C   UNL     1      -1.317  11.666  19.766  0.00  0.00    +0.000 C 
ENDROOT
BRANCH  14  15
ATOM     15  C   UNL     1      -0.414  10.383  19.572  0.00  0.00    +0.000 A 
ATOM     16  C   UNL     1       0.097   9.551  20.584  0.00  0.00    +0.000 A 
ATOM     17  C   UNL     1       1.157   8.631  20.325  0.00  0.00    +0.000 A 
ATOM     18  C   UNL     1       1.686   8.501  19.043  0.00  0.00    +0.000 A 
ATOM     19  C   UNL     1       1.128   9.205  18.000  0.00  0.00    +0.000 A 
ATOM     20  C   UNL     1       0.077  10.115  18.250  0.00  0.00    +0.000 A 
BRANCH  18  21
ATOM     21  O   UNL     1       2.755   7.700  18.765  0.00  0.00    +0.000 OA
ATOM     22  H   UNL     1       2.861   7.603  17.802  0.00  0.00    +0.000 HD
ENDBRANCH  18  21
ENDBRANCH  14  15
BRANCH   9  23
ATOM     23  O   UNL     1      -5.953  12.948  24.353  0.00  0.00    +0.000 OA
ATOM     24  H   UNL     1      -5.919  12.211  24.986  0.00  0.00    +0.000 HD
ENDBRANCH   9  23
BRANCH   5  25
ATOM     25  C   UNL     1      -0.450  14.589  22.248  0.00  0.00    +0.000 C 
BRANCH  25  26
ATOM     26  C   UNL     1      -1.161  15.625  23.096  0.00  0.00    +0.000 A 
ATOM     27  C   UNL     1      -2.431  16.051  22.629  0.00  0.00    +0.000 A 
ATOM     28  C   UNL     1      -3.309  16.789  23.425  0.00  0.00    +0.000 A 
ATOM     29  C   UNL     1      -2.938  17.123  24.715  0.00  0.00    +0.000 A 
ATOM     30  C   UNL     1      -1.698  16.717  25.201  0.00  0.00    +0.000 A 
ATOM     31  C   UNL     1      -0.822  15.955  24.411  0.00  0.00    +0.000 A 
ENDBRANCH  25  26
ENDBRANCH   5  25
TORSDOF 5
ENDMDL
MODEL 6
REMARK VINA RESULT:      -6.3      2.553      6.240
REMARK  Name = 
REMARK  5 active torsions:
REMARK  status: ('A' for Active; 'I' for Inactive)
REMARK    1  A    between atoms: C_5  and  C_6
REMARK    2  A    between atoms: C_6  and  C_7
REMARK    3  A    between atoms: C_16  and  O_17
REMARK    4  A    between atoms: C_22  and  C_23
REMARK    5  A    between atoms: C_26  and  O_27
REMARK                            x       y       z     vdW  Elec       q    Type
REMARK                         _______ _______ _______ _____ _____    ______ ____
ROOT
ATOM      1  O   UNL     1      -2.244  13.900  22.366  0.00  0.00    +0.000 OA
ATOM      2  C   UNL     1      -1.922  13.551  21.232  0.00  0.00    +0.000 C 
ATOM      3  C   UNL     1      -1.292  14.484  20.199  0.00  0.00    +0.000 C 
ATOM      4  C   UNL     1      -0.784  13.686  18.952  0.00  0.00    +0.000 C 
ATOM      5  C   UNL     1       0.035  12.465  19.464  0.00  0.00    +0.000 C 
ATOM      6  C   UNL     1       0.277  11.220  18.560  0.00  0.00    +0.000 C 
ATOM      7  C   UNL     1       0.409  10.145  19.622  0.00  0.00    +0.000 A 
ATOM      8  C   UNL     1       1.183   8.988  19.574  0.00  0.00    +0.000 A 
ATOM      9  C   UNL     1       1.417   8.317  20.776  0.00  0.00    +0.000 A 
ATOM     10  C   UNL     1       0.900   8.791  21.985  0.00  0.00    +0.000 A 
ATOM     11  C   UNL     1       0.024   9.890  21.998  0.00  0.00    +0.000 A 
ATOM     12  C   UNL     1      -0.252  10.535  20.794  0.00  0.00    +0.000 A 
ATOM     13  C   UNL     1      -0.902  11.829  20.538  0.00  0.00    +0.000 C 
ATOM     14  C   UNL     1      -2.231  12.148  20.732  0.00  0.00    +0.000 C 
ENDROOT
BRANCH  14  15
ATOM     15  C   UNL     1      -3.480  12.367  19.789  0.00  0.00    +0.000 A 
ATOM     16  C   UNL     1      -4.655  13.076  20.097  0.00  0.00    +0.000 A 
ATOM     17  C   UNL     1      -5.837  12.934  19.310  0.00  0.00    +0.000 A 
ATOM     18  C   UNL     1      -5.844  12.117  18.183  0.00  0.00    +0.000 A 
ATOM     19  C   UNL     1      -4.680  11.506  17.775  0.00  0.00    +0.000 A 
ATOM     20  C   UNL     1      -3.506  11.645  18.548  0.00  0.00    +0.000 A 
BRANCH  18  21
ATOM     21  O   UNL     1      -6.972  11.881  17.451  0.00  0.00    +0.000 OA
ATOM     22  H   UNL     1      -7.486  11.157  17.850  0.00  0.00    +0.000 HD
ENDBRANCH  18  21
ENDBRANCH  14  15
BRANCH   9  23
ATOM     23  O   UNL     1       2.207   7.200  20.827  0.00  0.00    +0.000 OA
ATOM     24  H   UNL     1       1.660   6.445  21.102  0.00  0.00    +0.000 HD
ENDBRANCH   9  23
BRANCH   5  25
ATOM     25  C   UNL     1       1.439  13.174  19.766  0.00  0.00    +0.000 C 
BRANCH  25  26
ATOM     26  C   UNL     1       2.290  14.258  19.134  0.00  0.00    +0.000 A 
ATOM     27  C   UNL     1       2.307  15.509  19.801  0.00  0.00    +0.000 A 
ATOM     28  C   UNL     1       3.236  16.505  19.495  0.00  0.00    +0.000 A 
ATOM     29  C   UNL     1       4.178  16.275  18.506  0.00  0.00    +0.000 A 
ATOM     30  C   UNL     1       4.186  15.054  17.837  0.00  0.00    +0.000 A 
ATOM     31  C   UNL     1       3.267  14.042  18.158  0.00  0.00    +0.000 A 
ENDBRANCH  25  26
ENDBRANCH   5  25
TORSDOF 5
ENDMDL
MODEL 7
REMARK VINA RESULT:      -6.2      2.152      2.717
REMARK  Name = 
REMARK  5 active torsions:
REMARK  status: ('A' for Active; 'I' for Inactive)
REMARK    1  A    between atoms: C_5  and  C_6
REMARK    2  A    between atoms: C_6  and  C_7
REMARK    3  A    between atoms: C_16  and  O_17
REMARK    4  A    between atoms: C_22  and  C_23
REMARK    5  A    between atoms: C_26  and  O_27
REMARK                            x       y       z     vdW  Elec       q    Type
REMARK                         _______ _______ _______ _____ _____    ______ ____
ROOT
ATOM      1  O   UNL     1      -1.436  13.748  19.206  0.00  0.00    +0.000 OA
ATOM      2  C   UNL     1      -1.341  13.518  20.409  0.00  0.00    +0.000 C 
ATOM      3  C   UNL     1      -0.485  14.343  21.370  0.00  0.00    +0.000 C 
ATOM      4  C   UNL     1      -0.764  13.945  22.859  0.00  0.00    +0.000 C 
ATOM      5  C   UNL     1      -2.307  13.906  23.065  0.00  0.00    +0.000 C 
ATOM      6  C   UNL     1      -2.944  13.107  24.240  0.00  0.00    +0.000 C 
ATOM      7  C   UNL     1      -4.290  12.770  23.628  0.00  0.00    +0.000 A 
ATOM      8  C   UNL     1      -5.510  12.613  24.283  0.00  0.00    +0.000 A 
ATOM      9  C   UNL     1      -6.669  12.636  23.505  0.00  0.00    +0.000 A 
ATOM     10  C   UNL     1      -6.610  12.816  22.120  0.00  0.00    +0.000 A 
ATOM     11  C   UNL     1      -5.368  12.852  21.463  0.00  0.00    +0.000 A 
ATOM     12  C   UNL     1      -4.207  12.781  22.230  0.00  0.00    +0.000 A 
ATOM     13  C   UNL     1      -2.809  13.047  21.862  0.00  0.00    +0.000 C 
ATOM     14  C   UNL     1      -2.009  12.297  21.024  0.00  0.00    +0.000 C 
ENDROOT
BRANCH  14  15
ATOM     15  C   UNL     1      -0.807  11.291  21.226  0.00  0.00    +0.000 A 
ATOM     16  C   UNL     1       0.139  10.903  20.261  0.00  0.00    +0.000 A 
ATOM     17  C   UNL     1       0.967   9.756  20.451  0.00  0.00    +0.000 A 
ATOM     18  C   UNL     1       0.889   9.011  21.625  0.00  0.00    +0.000 A 
ATOM     19  C   UNL     1       0.067   9.431  22.646  0.00  0.00    +0.000 A 
ATOM     20  C   UNL     1      -0.753  10.568  22.465  0.00  0.00    +0.000 A 
BRANCH  18  21
ATOM     21  O   UNL     1       1.595   7.859  21.815  0.00  0.00    +0.000 OA
ATOM     22  H   UNL     1       1.508   7.560  22.738  0.00  0.00    +0.000 HD
ENDBRANCH  18  21
ENDBRANCH  14  15
BRANCH   9  23
ATOM     23  O   UNL     1      -7.911  12.539  24.072  0.00  0.00    +0.000 OA
ATOM     24  H   UNL     1      -8.384  13.376  23.928  0.00  0.00    +0.000 HD
ENDBRANCH   9  23
BRANCH   5  25
ATOM     25  C   UNL     1      -2.601  15.467  23.272  0.00  0.00    +0.000 C 
BRANCH  25  26
ATOM     26  C   UNL     1      -3.569  16.314  24.074  0.00  0.00    +0.000 A 
ATOM     27  C   UNL     1      -2.999  17.377  24.822  0.00  0.00    +0.000 A 
ATOM     28  C   UNL     1      -3.775  18.389  25.389  0.00  0.00    +0.000 A 
ATOM     29  C   UNL     1      -5.149  18.365  25.224  0.00  0.00    +0.000 A 
ATOM     30  C   UNL     1      -5.735  17.335  24.493  0.00  0.00    +0.000 A 
ATOM     31  C   UNL     1      -4.955  16.328  23.902  0.00  0.00    +0.000 A 
ENDBRANCH  25  26
ENDBRANCH   5  25
TORSDOF 5
ENDMDL
MODEL 8
REMARK VINA RESULT:      -6.2      2.155      6.219
REMARK  Name = 
REMARK  5 active torsions:
REMARK  status: ('A' for Active; 'I' for Inactive)
REMARK    1  A    between atoms: C_5  and  C_6
REMARK    2  A    between atoms: C_6  and  C_7
REMARK    3  A    between atoms: C_16  and  O_17
REMARK    4  A    between atoms: C_22  and  C_23
REMARK    5  A    between atoms: C_26  and  O_27
REMARK                            x       y       z     vdW  Elec       q    Type
REMARK                         _______ _______ _______ _____ _____    ______ ____
ROOT
ATOM      1  O   UNL     1       2.171  13.841  21.466  0.00  0.00    +0.000 OA
ATOM      2  C   UNL     1       1.220  13.869  20.688  0.00  0.00    +0.000 C 
ATOM      3  C   UNL     1       1.194  13.140  19.345  0.00  0.00    +0.000 C 
ATOM      4  C   UNL     1      -0.236  13.177  18.709  0.00  0.00    +0.000 C 
ATOM      5  C   UNL     1      -1.261  12.771  19.808  0.00  0.00    +0.000 C 
ATOM      6  C   UNL     1      -2.767  13.151  19.686  0.00  0.00    +0.000 C 
ATOM      7  C   UNL     1      -3.138  13.226  21.155  0.00  0.00    +0.000 A 
ATOM      8  C   UNL     1      -4.369  12.937  21.740  0.00  0.00    +0.000 A 
ATOM      9  C   UNL     1      -4.399  12.749  23.123  0.00  0.00    +0.000 A 
ATOM     10  C   UNL     1      -3.236  12.842  23.893  0.00  0.00    +0.000 A 
ATOM     11  C   UNL     1      -2.028  13.253  23.305  0.00  0.00    +0.000 A 
ATOM     12  C   UNL     1      -2.003  13.488  21.932  0.00  0.00    +0.000 A 
ATOM     13  C   UNL     1      -0.863  13.669  21.021  0.00  0.00    +0.000 C 
ATOM     14  C   UNL     1       0.006  14.741  20.974  0.00  0.00    +0.000 C 
ENDROOT
BRANCH  14  15
ATOM     15  C   UNL     1       0.212  15.975  20.007  0.00  0.00    +0.000 A 
ATOM     16  C   UNL     1      -0.716  16.484  19.081  0.00  0.00    +0.000 A 
ATOM     17  C   UNL     1      -0.315  17.377  18.042  0.00  0.00    +0.000 A 
ATOM     18  C   UNL     1       1.007  17.804  17.945  0.00  0.00    +0.000 A 
ATOM     19  C   UNL     1       1.918  17.429  18.907  0.00  0.00    +0.000 A 
ATOM     20  C   UNL     1       1.526  16.548  19.939  0.00  0.00    +0.000 A 
BRANCH  18  21
ATOM     21  O   UNL     1       1.456  18.585  16.920  0.00  0.00    +0.000 OA
ATOM     22  H   UNL     1       2.377  18.856  17.082  0.00  0.00    +0.000 HD
ENDBRANCH  18  21
ENDBRANCH  14  15
BRANCH   9  23
ATOM     23  O   UNL     1      -5.556  12.413  23.772  0.00  0.00    +0.000 OA
ATOM     24  H   UNL     1      -5.981  13.227  24.091  0.00  0.00    +0.000 HD
ENDBRANCH   9  23
BRANCH   5  25
ATOM     25  C   UNL     1      -1.116  11.177  19.751  0.00  0.00    +0.000 C 
BRANCH  25  26
ATOM     26  C   UNL     1      -0.393  10.102  20.538  0.00  0.00    +0.000 A 
ATOM     27  C   UNL     1       0.571   9.346  19.824  0.00  0.00    +0.000 A 
ATOM     28  C   UNL     1       1.492   8.515  20.465  0.00  0.00    +0.000 A 
ATOM     29  C   UNL     1       1.472   8.418  21.846  0.00  0.00    +0.000 A 
ATOM     30  C   UNL     1       0.538   9.150  22.572  0.00  0.00    +0.000 A 
ATOM     31  C   UNL     1      -0.375  10.004  21.932  0.00  0.00    +0.000 A 
ENDBRANCH  25  26
ENDBRANCH   5  25
TORSDOF 5
ENDMDL
MODEL 9
REMARK VINA RESULT:      -6.2      1.682      2.313
REMARK  Name = 
REMARK  5 active torsions:
REMARK  status: ('A' for Active; 'I' for Inactive)
REMARK    1  A    between atoms: C_5  and  C_6
REMARK    2  A    between atoms: C_6  and  C_7
REMARK    3  A    between atoms: C_16  and  O_17
REMARK    4  A    between atoms: C_22  and  C_23
REMARK    5  A    between atoms: C_26  and  O_27
REMARK                            x       y       z     vdW  Elec       q    Type
REMARK                         _______ _______ _______ _____ _____    ______ ____
ROOT
ATOM      1  O   UNL     1      -2.329  11.635  17.973  0.00  0.00    +0.000 OA
ATOM      2  C   UNL     1      -1.420  12.047  18.691  0.00  0.00    +0.000 C 
ATOM      3  C   UNL     1      -0.334  13.014  18.221  0.00  0.00    +0.000 C 
ATOM      4  C   UNL     1       0.525  13.527  19.425  0.00  0.00    +0.000 C 
ATOM      5  C   UNL     1      -0.449  13.976  20.554  0.00  0.00    +0.000 C 
ATOM      6  C   UNL     1       0.026  14.084  22.033  0.00  0.00    +0.000 C 
ATOM      7  C   UNL     1      -1.284  13.816  22.750  0.00  0.00    +0.000 A 
ATOM      8  C   UNL     1      -1.704  14.322  23.978  0.00  0.00    +0.000 A 
ATOM      9  C   UNL     1      -3.061  14.218  24.290  0.00  0.00    +0.000 A 
ATOM     10  C   UNL     1      -3.967  13.633  23.400  0.00  0.00    +0.000 A 
ATOM     11  C   UNL     1      -3.508  13.021  22.221  0.00  0.00    +0.000 A 
ATOM     12  C   UNL     1      -2.147  13.080  21.928  0.00  0.00    +0.000 A 
ATOM     13  C   UNL     1      -1.431  12.770  20.682  0.00  0.00    +0.000 C 
ATOM     14  C   UNL     1      -1.252  11.526  20.110  0.00  0.00    +0.000 C 
ENDROOT
BRANCH  14  15
ATOM     15  C   UNL     1      -0.044  10.514  19.983  0.00  0.00    +0.000 A 
ATOM     16  C   UNL     1       0.501   9.996  18.795  0.00  0.00    +0.000 A 
ATOM     17  C   UNL     1       1.356   8.854  18.805  0.00  0.00    +0.000 A 
ATOM     18  C   UNL     1       1.713   8.246  20.006  0.00  0.00    +0.000 A 
ATOM     19  C   UNL     1       1.304   8.799  21.199  0.00  0.00    +0.000 A 
ATOM     20  C   UNL     1       0.459   9.931  21.195  0.00  0.00    +0.000 A 
BRANCH  18  21
ATOM     21  O   UNL     1       2.455   7.102  20.061  0.00  0.00    +0.000 OA
ATOM     22  H   UNL     1       1.911   6.335  19.809  0.00  0.00    +0.000 HD
ENDBRANCH  18  21
ENDBRANCH  14  15
BRANCH   9  23
ATOM     23  O   UNL     1      -3.568  14.733  25.452  0.00  0.00    +0.000 OA
ATOM     24  H   UNL     1      -4.402  14.278  25.656  0.00  0.00    +0.000 HD
ENDBRANCH   9  23
BRANCH   5  25
ATOM     25  C   UNL     1      -0.842  15.435  20.022  0.00  0.00    +0.000 C 
BRANCH  25  26
ATOM     26  C   UNL     1      -0.209  16.505  19.155  0.00  0.00    +0.000 A 
ATOM     27  C   UNL     1       1.209  16.539  19.138  0.00  0.00    +0.000 A 
ATOM     28  C   UNL     1       1.926  17.281  18.198  0.00  0.00    +0.000 A 
ATOM     29  C   UNL     1       1.240  18.016  17.247  0.00  0.00    +0.000 A 
ATOM     30  C   UNL     1      -0.152  18.000  17.239  0.00  0.00    +0.000 A 
ATOM     31  C   UNL     1      -0.876  17.236  18.168  0.00  0.00    +0.000 A 
ENDBRANCH  25  26
ENDBRANCH   5  25
TORSDOF 5
ENDMDL
