MODEL 1
REMARK VINA RESULT:      -8.7      0.000      0.000
REMARK  Name = 
REMARK  4 active torsions:
REMARK  status: ('A' for Active; 'I' for Inactive)
REMARK    1  A    between atoms: C_1  and  C_2
REMARK    2  A    between atoms: C_5  and  N_6
REMARK    3  A    between atoms: N_6  and  C_7
REMARK    4  A    between atoms: C_9  and  C_10
REMARK                            x       y       z     vdW  Elec       q    Type
REMARK                         _______ _______ _______ _____ _____    ______ ____
ROOT
ATOM      1  C   UNL     1       4.355   6.132  18.012  0.00  0.00    +0.000 A 
ATOM      2  C   UNL     1       3.823   7.362  17.632  0.00  0.00    +0.000 A 
ATOM      3  C   UNL     1       2.659   7.816  18.228  0.00  0.00    +0.000 A 
ATOM      4  C   UNL     1       2.129   9.172  17.862  0.00  0.00    +0.000 C 
ATOM      5  N   UNL     1       1.984   7.110  19.163  0.00  0.00    +0.000 NA
ATOM      6  C   UNL     1       2.454   5.909  19.549  0.00  0.00    +0.000 A 
ATOM      7  C   UNL     1       1.716   5.212  20.538  0.00  0.00    +0.000 A 
ATOM      8  C   UNL     1       2.037   3.944  21.087  0.00  0.00    +0.000 A 
ATOM      9  C   UNL     1       3.196   3.453  20.508  0.00  0.00    +0.000 A 
ATOM     10  C   UNL     1       3.768   2.253  20.809  0.00  0.00    +0.000 A 
ATOM     11  N   UNL     1       4.867   2.191  20.002  0.00  0.00    +0.000 N 
ATOM     12  N   UNL     1       5.062   3.285  19.239  0.00  0.00    +0.000 NA
ATOM     13  C   UNL     1       4.012   4.090  19.506  0.00  0.00    +0.000 A 
ATOM     14  C   UNL     1       3.655   5.379  18.992  0.00  0.00    +0.000 A 
ATOM     15  H   UNL     1       5.539   1.436  19.928  0.00  0.00    +0.000 HD
ENDROOT
BRANCH   1  16
ATOM     16  N   UNL     1       5.573   5.682  17.465  0.00  0.00    +0.000 N 
ATOM     17  H   UNL     1       6.368   6.123  17.923  0.00  0.00    +0.000 HD
BRANCH  16  22
ATOM     18  C   UNL     1       6.618   3.552  12.252  0.00  0.00    +0.000 C 
ATOM     19  C   UNL     1       6.341   4.088  13.624  0.00  0.00    +0.000 A 
ATOM     20  C   UNL     1       5.125   3.843  14.270  0.00  0.00    +0.000 A 
ATOM     21  C   UNL     1       4.876   4.377  15.538  0.00  0.00    +0.000 A 
ATOM     22  C   UNL     1       5.838   5.156  16.189  0.00  0.00    +0.000 A 
ATOM     23  C   UNL     1       7.051   5.401  15.531  0.00  0.00    +0.000 A 
ATOM     24  C   UNL     1       7.304   4.868  14.265  0.00  0.00    +0.000 A 
ENDBRANCH  16  22
ENDBRANCH   1  16
TORSDOF 2
ENDMDL
MODEL 2
REMARK VINA RESULT:      -8.7      0.051      1.026
REMARK  Name = 
REMARK  4 active torsions:
REMARK  status: ('A' for Active; 'I' for Inactive)
REMARK    1  A    between atoms: C_1  and  C_2
REMARK    2  A    between atoms: C_5  and  N_6
REMARK    3  A    between atoms: N_6  and  C_7
REMARK    4  A    between atoms: C_9  and  C_10
REMARK                            x       y       z     vdW  Elec       q    Type
REMARK                         _______ _______ _______ _____ _____    ______ ____
ROOT
ATOM      1  C   UNL     1       4.349   6.103  17.979  0.00  0.00    +0.000 A 
ATOM      2  C   UNL     1       3.812   7.329  17.598  0.00  0.00    +0.000 A 
ATOM      3  C   UNL     1       2.652   7.785  18.202  0.00  0.00    +0.000 A 
ATOM      4  C   UNL     1       2.116   9.137  17.833  0.00  0.00    +0.000 C 
ATOM      5  N   UNL     1       1.988   7.083  19.146  0.00  0.00    +0.000 NA
ATOM      6  C   UNL     1       2.463   5.884  19.535  0.00  0.00    +0.000 A 
ATOM      7  C   UNL     1       1.736   5.192  20.535  0.00  0.00    +0.000 A 
ATOM      8  C   UNL     1       2.065   3.928  21.088  0.00  0.00    +0.000 A 
ATOM      9  C   UNL     1       3.219   3.436  20.501  0.00  0.00    +0.000 A 
ATOM     10  C   UNL     1       3.797   2.239  20.804  0.00  0.00    +0.000 A 
ATOM     11  N   UNL     1       4.888   2.174  19.986  0.00  0.00    +0.000 N 
ATOM     12  N   UNL     1       5.074   3.264  19.215  0.00  0.00    +0.000 NA
ATOM     13  C   UNL     1       4.025   4.069  19.488  0.00  0.00    +0.000 A 
ATOM     14  C   UNL     1       3.660   5.354  18.970  0.00  0.00    +0.000 A 
ATOM     15  H   UNL     1       5.562   1.420  19.911  0.00  0.00    +0.000 HD
ENDROOT
BRANCH   1  16
ATOM     16  N   UNL     1       5.563   5.653  17.423  0.00  0.00    +0.000 N 
ATOM     17  H   UNL     1       6.362   6.086  17.881  0.00  0.00    +0.000 HD
BRANCH  16  22
ATOM     18  C   UNL     1       6.649   3.527  12.217  0.00  0.00    +0.000 C 
ATOM     19  C   UNL     1       6.369   4.105  13.571  0.00  0.00    +0.000 A 
ATOM     20  C   UNL     1       7.336   4.841  14.263  0.00  0.00    +0.000 A 
ATOM     21  C   UNL     1       7.064   5.347  15.538  0.00  0.00    +0.000 A 
ATOM     22  C   UNL     1       5.821   5.135  16.142  0.00  0.00    +0.000 A 
ATOM     23  C   UNL     1       4.861   4.391  15.444  0.00  0.00    +0.000 A 
ATOM     24  C   UNL     1       5.128   3.886  14.169  0.00  0.00    +0.000 A 
ENDBRANCH  16  22
ENDBRANCH   1  16
TORSDOF 2
ENDMDL
MODEL 3
REMARK VINA RESULT:      -8.4      1.896      6.467
REMARK  Name = 
REMARK  4 active torsions:
REMARK  status: ('A' for Active; 'I' for Inactive)
REMARK    1  A    between atoms: C_1  and  C_2
REMARK    2  A    between atoms: C_5  and  N_6
REMARK    3  A    between atoms: N_6  and  C_7
REMARK    4  A    between atoms: C_9  and  C_10
REMARK                            x       y       z     vdW  Elec       q    Type
REMARK                         _______ _______ _______ _____ _____    ______ ____
ROOT
ATOM      1  C   UNL     1       2.756   5.775  19.685  0.00  0.00    +0.000 A 
ATOM      2  C   UNL     1       2.043   4.999  20.596  0.00  0.00    +0.000 A 
ATOM      3  C   UNL     1       2.020   3.622  20.449  0.00  0.00    +0.000 A 
ATOM      4  C   UNL     1       1.306   2.788  21.471  0.00  0.00    +0.000 C 
ATOM      5  N   UNL     1       2.646   2.977  19.440  0.00  0.00    +0.000 NA
ATOM      6  C   UNL     1       3.335   3.689  18.527  0.00  0.00    +0.000 A 
ATOM      7  C   UNL     1       3.981   2.967  17.494  0.00  0.00    +0.000 A 
ATOM      8  C   UNL     1       4.759   3.518  16.444  0.00  0.00    +0.000 A 
ATOM      9  C   UNL     1       4.799   4.898  16.554  0.00  0.00    +0.000 A 
ATOM     10  C   UNL     1       5.456   5.728  15.695  0.00  0.00    +0.000 A 
ATOM     11  N   UNL     1       5.216   6.979  16.185  0.00  0.00    +0.000 N 
ATOM     12  N   UNL     1       4.490   7.005  17.320  0.00  0.00    +0.000 NA
ATOM     13  C   UNL     1       4.182   5.715  17.568  0.00  0.00    +0.000 A 
ATOM     14  C   UNL     1       3.417   5.110  18.619  0.00  0.00    +0.000 A 
ATOM     15  H   UNL     1       5.529   7.865  15.802  0.00  0.00    +0.000 HD
ENDROOT
BRANCH   1  16
ATOM     16  N   UNL     1       2.845   7.171  19.855  0.00  0.00    +0.000 N 
ATOM     17  H   UNL     1       3.588   7.416  20.506  0.00  0.00    +0.000 HD
BRANCH  16  22
ATOM     18  C   UNL     1      -1.186  11.168  19.103  0.00  0.00    +0.000 C 
ATOM     19  C   UNL     1      -0.115  10.138  19.292  0.00  0.00    +0.000 A 
ATOM     20  C   UNL     1       0.687   9.717  18.227  0.00  0.00    +0.000 A 
ATOM     21  C   UNL     1       1.662   8.733  18.420  0.00  0.00    +0.000 A 
ATOM     22  C   UNL     1       1.860   8.157  19.679  0.00  0.00    +0.000 A 
ATOM     23  C   UNL     1       1.046   8.580  20.738  0.00  0.00    +0.000 A 
ATOM     24  C   UNL     1       0.073   9.565  20.550  0.00  0.00    +0.000 A 
ENDBRANCH  16  22
ENDBRANCH   1  16
TORSDOF 2
ENDMDL
MODEL 4
REMARK VINA RESULT:      -8.4      1.892      6.444
REMARK  Name = 
REMARK  4 active torsions:
REMARK  status: ('A' for Active; 'I' for Inactive)
REMARK    1  A    between atoms: C_1  and  C_2
REMARK    2  A    between atoms: C_5  and  N_6
REMARK    3  A    between atoms: N_6  and  C_7
REMARK    4  A    between atoms: C_9  and  C_10
REMARK                            x       y       z     vdW  Elec       q    Type
REMARK                         _______ _______ _______ _____ _____    ______ ____
ROOT
ATOM      1  C   UNL     1       2.758   5.771  19.679  0.00  0.00    +0.000 A 
ATOM      2  C   UNL     1       2.048   4.994  20.591  0.00  0.00    +0.000 A 
ATOM      3  C   UNL     1       2.026   3.617  20.445  0.00  0.00    +0.000 A 
ATOM      4  C   UNL     1       1.314   2.782  21.468  0.00  0.00    +0.000 C 
ATOM      5  N   UNL     1       2.651   2.973  19.435  0.00  0.00    +0.000 NA
ATOM      6  C   UNL     1       3.338   3.685  18.521  0.00  0.00    +0.000 A 
ATOM      7  C   UNL     1       3.984   2.963  17.488  0.00  0.00    +0.000 A 
ATOM      8  C   UNL     1       4.760   3.515  16.436  0.00  0.00    +0.000 A 
ATOM      9  C   UNL     1       4.798   4.895  16.546  0.00  0.00    +0.000 A 
ATOM     10  C   UNL     1       5.453   5.726  15.686  0.00  0.00    +0.000 A 
ATOM     11  N   UNL     1       5.212   6.977  16.176  0.00  0.00    +0.000 N 
ATOM     12  N   UNL     1       4.488   7.002  17.312  0.00  0.00    +0.000 NA
ATOM     13  C   UNL     1       4.181   5.711  17.561  0.00  0.00    +0.000 A 
ATOM     14  C   UNL     1       3.419   5.106  18.613  0.00  0.00    +0.000 A 
ATOM     15  H   UNL     1       5.524   7.863  15.793  0.00  0.00    +0.000 HD
ENDROOT
BRANCH   1  16
ATOM     16  N   UNL     1       2.846   7.167  19.849  0.00  0.00    +0.000 N 
ATOM     17  H   UNL     1       3.579   7.412  20.511  0.00  0.00    +0.000 HD
BRANCH  16  22
ATOM     18  C   UNL     1      -1.140  11.208  19.093  0.00  0.00    +0.000 C 
ATOM     19  C   UNL     1      -0.114  10.136  19.298  0.00  0.00    +0.000 A 
ATOM     20  C   UNL     1       0.082   9.545  20.550  0.00  0.00    +0.000 A 
ATOM     21  C   UNL     1       1.065   8.567  20.726  0.00  0.00    +0.000 A 
ATOM     22  C   UNL     1       1.864   8.154  19.655  0.00  0.00    +0.000 A 
ATOM     23  C   UNL     1       1.665   8.756  18.406  0.00  0.00    +0.000 A 
ATOM     24  C   UNL     1       0.682   9.732  18.226  0.00  0.00    +0.000 A 
ENDBRANCH  16  22
ENDBRANCH   1  16
TORSDOF 2
ENDMDL
MODEL 5
REMARK VINA RESULT:      -8.0      1.969      6.315
REMARK  Name = 
REMARK  4 active torsions:
REMARK  status: ('A' for Active; 'I' for Inactive)
REMARK    1  A    between atoms: C_1  and  C_2
REMARK    2  A    between atoms: C_5  and  N_6
REMARK    3  A    between atoms: N_6  and  C_7
REMARK    4  A    between atoms: C_9  and  C_10
REMARK                            x       y       z     vdW  Elec       q    Type
REMARK                         _______ _______ _______ _____ _____    ______ ____
ROOT
ATOM      1  C   UNL     1       2.873   5.333  18.822  0.00  0.00    +0.000 A 
ATOM      2  C   UNL     1       1.833   4.452  19.105  0.00  0.00    +0.000 A 
ATOM      3  C   UNL     1       1.788   3.222  18.470  0.00  0.00    +0.000 A 
ATOM      4  C   UNL     1       0.701   2.252  18.829  0.00  0.00    +0.000 C 
ATOM      5  N   UNL     1       2.704   2.829  17.558  0.00  0.00    +0.000 NA
ATOM      6  C   UNL     1       3.719   3.655  17.243  0.00  0.00    +0.000 A 
ATOM      7  C   UNL     1       4.659   3.193  16.289  0.00  0.00    +0.000 A 
ATOM      8  C   UNL     1       5.799   3.898  15.823  0.00  0.00    +0.000 A 
ATOM      9  C   UNL     1       5.873   5.139  16.433  0.00  0.00    +0.000 A 
ATOM     10  C   UNL     1       6.846   6.065  16.197  0.00  0.00    +0.000 A 
ATOM     11  N   UNL     1       6.513   7.117  17.000  0.00  0.00    +0.000 N 
ATOM     12  N   UNL     1       5.424   6.912  17.766  0.00  0.00    +0.000 NA
ATOM     13  C   UNL     1       4.973   5.689  17.414  0.00  0.00    +0.000 A 
ATOM     14  C   UNL     1       3.842   4.933  17.865  0.00  0.00    +0.000 A 
ATOM     15  H   UNL     1       6.995   8.005  17.089  0.00  0.00    +0.000 HD
ENDROOT
BRANCH   1  16
ATOM     16  N   UNL     1       2.973   6.561  19.506  0.00  0.00    +0.000 N 
ATOM     17  H   UNL     1       3.429   6.446  20.408  0.00  0.00    +0.000 HD
BRANCH  16  22
ATOM     18  C   UNL     1      -0.258  11.260  18.969  0.00  0.00    +0.000 C 
ATOM     19  C   UNL     1       0.607  10.043  19.102  0.00  0.00    +0.000 A 
ATOM     20  C   UNL     1       1.296   9.516  18.005  0.00  0.00    +0.000 A 
ATOM     21  C   UNL     1       2.074   8.362  18.146  0.00  0.00    +0.000 A 
ATOM     22  C   UNL     1       2.185   7.719  19.382  0.00  0.00    +0.000 A 
ATOM     23  C   UNL     1       1.484   8.250  20.473  0.00  0.00    +0.000 A 
ATOM     24  C   UNL     1       0.708   9.404  20.338  0.00  0.00    +0.000 A 
ENDBRANCH  16  22
ENDBRANCH   1  16
TORSDOF 2
ENDMDL
MODEL 6
REMARK VINA RESULT:      -7.9      1.969      6.301
REMARK  Name = 
REMARK  4 active torsions:
REMARK  status: ('A' for Active; 'I' for Inactive)
REMARK    1  A    between atoms: C_1  and  C_2
REMARK    2  A    between atoms: C_5  and  N_6
REMARK    3  A    between atoms: N_6  and  C_7
REMARK    4  A    between atoms: C_9  and  C_10
REMARK                            x       y       z     vdW  Elec       q    Type
REMARK                         _______ _______ _______ _____ _____    ______ ____
ROOT
ATOM      1  C   UNL     1       2.854   5.332  18.834  0.00  0.00    +0.000 A 
ATOM      2  C   UNL     1       1.815   4.451  19.122  0.00  0.00    +0.000 A 
ATOM      3  C   UNL     1       1.770   3.218  18.493  0.00  0.00    +0.000 A 
ATOM      4  C   UNL     1       0.683   2.249  18.857  0.00  0.00    +0.000 C 
ATOM      5  N   UNL     1       2.685   2.821  17.582  0.00  0.00    +0.000 NA
ATOM      6  C   UNL     1       3.700   3.646  17.262  0.00  0.00    +0.000 A 
ATOM      7  C   UNL     1       4.640   3.180  16.310  0.00  0.00    +0.000 A 
ATOM      8  C   UNL     1       5.779   3.883  15.840  0.00  0.00    +0.000 A 
ATOM      9  C   UNL     1       5.853   5.128  16.444  0.00  0.00    +0.000 A 
ATOM     10  C   UNL     1       6.825   6.053  16.203  0.00  0.00    +0.000 A 
ATOM     11  N   UNL     1       6.492   7.108  17.001  0.00  0.00    +0.000 N 
ATOM     12  N   UNL     1       5.403   6.906  17.769  0.00  0.00    +0.000 NA
ATOM     13  C   UNL     1       4.953   5.682  17.423  0.00  0.00    +0.000 A 
ATOM     14  C   UNL     1       3.823   4.927  17.878  0.00  0.00    +0.000 A 
ATOM     15  H   UNL     1       6.974   7.997  17.086  0.00  0.00    +0.000 HD
ENDROOT
BRANCH   1  16
ATOM     16  N   UNL     1       2.954   6.563  19.512  0.00  0.00    +0.000 N 
ATOM     17  H   UNL     1       3.404   6.450  20.418  0.00  0.00    +0.000 HD
BRANCH  16  22
ATOM     18  C   UNL     1      -0.221  11.301  18.997  0.00  0.00    +0.000 C 
ATOM     19  C   UNL     1       0.590  10.050  19.139  0.00  0.00    +0.000 A 
ATOM     20  C   UNL     1       0.705   9.392  20.368  0.00  0.00    +0.000 A 
ATOM     21  C   UNL     1       1.492   8.241  20.484  0.00  0.00    +0.000 A 
ATOM     22  C   UNL     1       2.170   7.722  19.378  0.00  0.00    +0.000 A 
ATOM     23  C   UNL     1       2.054   8.392  18.152  0.00  0.00    +0.000 A 
ATOM     24  C   UNL     1       1.267   9.540  18.031  0.00  0.00    +0.000 A 
ENDBRANCH  16  22
ENDBRANCH   1  16
TORSDOF 2
ENDMDL
MODEL 7
REMARK VINA RESULT:      -7.9      2.189      5.757
REMARK  Name = 
REMARK  4 active torsions:
REMARK  status: ('A' for Active; 'I' for Inactive)
REMARK    1  A    between atoms: C_1  and  C_2
REMARK    2  A    between atoms: C_5  and  N_6
REMARK    3  A    between atoms: N_6  and  C_7
REMARK    4  A    between atoms: C_9  and  C_10
REMARK                            x       y       z     vdW  Elec       q    Type
REMARK                         _______ _______ _______ _____ _____    ______ ____
ROOT
ATOM      1  C   UNL     1       3.452   6.079  18.677  0.00  0.00    +0.000 A 
ATOM      2  C   UNL     1       4.256   6.527  17.632  0.00  0.00    +0.000 A 
ATOM      3  C   UNL     1       4.683   5.632  16.666  0.00  0.00    +0.000 A 
ATOM      4  C   UNL     1       5.494   6.134  15.507  0.00  0.00    +0.000 C 
ATOM      5  N   UNL     1       4.375   4.316  16.692  0.00  0.00    +0.000 NA
ATOM      6  C   UNL     1       3.612   3.835  17.692  0.00  0.00    +0.000 A 
ATOM      7  C   UNL     1       3.308   2.452  17.669  0.00  0.00    +0.000 A 
ATOM      8  C   UNL     1       2.521   1.750  18.617  0.00  0.00    +0.000 A 
ATOM      9  C   UNL     1       2.080   2.614  19.605  0.00  0.00    +0.000 A 
ATOM     10  C   UNL     1       1.308   2.252  20.669  0.00  0.00    +0.000 A 
ATOM     11  N   UNL     1       1.132   3.410  21.369  0.00  0.00    +0.000 N 
ATOM     12  N   UNL     1       1.697   4.495  20.804  0.00  0.00    +0.000 NA
ATOM     13  C   UNL     1       2.331   4.030  19.708  0.00  0.00    +0.000 A 
ATOM     14  C   UNL     1       3.121   4.699  18.716  0.00  0.00    +0.000 A 
ATOM     15  H   UNL     1       0.622   3.539  22.236  0.00  0.00    +0.000 HD
ENDROOT
BRANCH   1  16
ATOM     16  N   UNL     1       2.953   6.987  19.632  0.00  0.00    +0.000 N 
ATOM     17  H   UNL     1       3.028   6.609  20.574  0.00  0.00    +0.000 HD
BRANCH  16  22
ATOM     18  C   UNL     1      -0.874  11.205  19.035  0.00  0.00    +0.000 C 
ATOM     19  C   UNL     1       0.111  10.087  19.199  0.00  0.00    +0.000 A 
ATOM     20  C   UNL     1       0.325   9.482  20.441  0.00  0.00    +0.000 A 
ATOM     21  C   UNL     1       1.269   8.460  20.578  0.00  0.00    +0.000 A 
ATOM     22  C   UNL     1       2.010   8.017  19.478  0.00  0.00    +0.000 A 
ATOM     23  C   UNL     1       1.793   8.634  18.238  0.00  0.00    +0.000 A 
ATOM     24  C   UNL     1       0.849   9.654  18.097  0.00  0.00    +0.000 A 
ENDBRANCH  16  22
ENDBRANCH   1  16
TORSDOF 2
ENDMDL
MODEL 8
REMARK VINA RESULT:      -7.9      2.168      5.744
REMARK  Name = 
REMARK  4 active torsions:
REMARK  status: ('A' for Active; 'I' for Inactive)
REMARK    1  A    between atoms: C_1  and  C_2
REMARK    2  A    between atoms: C_5  and  N_6
REMARK    3  A    between atoms: N_6  and  C_7
REMARK    4  A    between atoms: C_9  and  C_10
REMARK                            x       y       z     vdW  Elec       q    Type
REMARK                         _______ _______ _______ _____ _____    ______ ____
ROOT
ATOM      1  C   UNL     1       3.486   6.060  18.632  0.00  0.00    +0.000 A 
ATOM      2  C   UNL     1       4.302   6.489  17.589  0.00  0.00    +0.000 A 
ATOM      3  C   UNL     1       4.719   5.582  16.630  0.00  0.00    +0.000 A 
ATOM      4  C   UNL     1       5.544   6.064  15.472  0.00  0.00    +0.000 C 
ATOM      5  N   UNL     1       4.388   4.272  16.661  0.00  0.00    +0.000 NA
ATOM      6  C   UNL     1       3.612   3.810  17.660  0.00  0.00    +0.000 A 
ATOM      7  C   UNL     1       3.285   2.431  17.643  0.00  0.00    +0.000 A 
ATOM      8  C   UNL     1       2.481   1.747  18.590  0.00  0.00    +0.000 A 
ATOM      9  C   UNL     1       2.051   2.625  19.572  0.00  0.00    +0.000 A 
ATOM     10  C   UNL     1       1.268   2.281  20.634  0.00  0.00    +0.000 A 
ATOM     11  N   UNL     1       1.108   3.446  21.327  0.00  0.00    +0.000 N 
ATOM     12  N   UNL     1       1.694   4.518  20.759  0.00  0.00    +0.000 NA
ATOM     13  C   UNL     1       2.325   4.036  19.668  0.00  0.00    +0.000 A 
ATOM     14  C   UNL     1       3.131   4.687  18.677  0.00  0.00    +0.000 A 
ATOM     15  H   UNL     1       0.596   3.587  22.191  0.00  0.00    +0.000 HD
ENDROOT
BRANCH   1  16
ATOM     16  N   UNL     1       2.998   6.982  19.580  0.00  0.00    +0.000 N 
ATOM     17  H   UNL     1       3.085   6.618  20.527  0.00  0.00    +0.000 HD
BRANCH  16  22
ATOM     18  C   UNL     1      -0.874  11.147  18.904  0.00  0.00    +0.000 C 
ATOM     19  C   UNL     1       0.156  10.072  19.073  0.00  0.00    +0.000 A 
ATOM     20  C   UNL     1       0.922   9.620  17.994  0.00  0.00    +0.000 A 
ATOM     21  C   UNL     1       1.857   8.595  18.168  0.00  0.00    +0.000 A 
ATOM     22  C   UNL     1       2.052   8.009  19.422  0.00  0.00    +0.000 A 
ATOM     23  C   UNL     1       1.275   8.463  20.496  0.00  0.00    +0.000 A 
ATOM     24  C   UNL     1       0.341   9.488  20.327  0.00  0.00    +0.000 A 
ENDBRANCH  16  22
ENDBRANCH   1  16
TORSDOF 2
ENDMDL
MODEL 9
REMARK VINA RESULT:      -7.7      2.405      5.782
REMARK  Name = 
REMARK  4 active torsions:
REMARK  status: ('A' for Active; 'I' for Inactive)
REMARK    1  A    between atoms: C_1  and  C_2
REMARK    2  A    between atoms: C_5  and  N_6
REMARK    3  A    between atoms: N_6  and  C_7
REMARK    4  A    between atoms: C_9  and  C_10
REMARK                            x       y       z     vdW  Elec       q    Type
REMARK                         _______ _______ _______ _____ _____    ______ ____
ROOT
ATOM      1  C   UNL     1       3.650   6.016  18.264  0.00  0.00    +0.000 A 
ATOM      2  C   UNL     1       4.869   6.468  17.764  0.00  0.00    +0.000 A 
ATOM      3  C   UNL     1       6.011   5.709  17.958  0.00  0.00    +0.000 A 
ATOM      4  C   UNL     1       7.308   6.169  17.360  0.00  0.00    +0.000 C 
ATOM      5  N   UNL     1       6.013   4.540  18.637  0.00  0.00    +0.000 NA
ATOM      6  C   UNL     1       4.860   4.072  19.151  0.00  0.00    +0.000 A 
ATOM      7  C   UNL     1       4.913   2.839  19.845  0.00  0.00    +0.000 A 
ATOM      8  C   UNL     1       3.820   2.170  20.453  0.00  0.00    +0.000 A 
ATOM      9  C   UNL     1       2.658   2.905  20.285  0.00  0.00    +0.000 A 
ATOM     10  C   UNL     1       1.432   2.542  20.759  0.00  0.00    +0.000 A 
ATOM     11  N   UNL     1       0.605   3.555  20.368  0.00  0.00    +0.000 N 
ATOM     12  N   UNL     1       1.206   4.517  19.639  0.00  0.00    +0.000 NA
ATOM     13  C   UNL     1       2.506   4.159  19.592  0.00  0.00    +0.000 A 
ATOM     14  C   UNL     1       3.639   4.790  18.980  0.00  0.00    +0.000 A 
ATOM     15  H   UNL     1      -0.388   3.650  20.551  0.00  0.00    +0.000 HD
ENDROOT
BRANCH   1  16
ATOM     16  N   UNL     1       2.467   6.740  18.019  0.00  0.00    +0.000 N 
ATOM     17  H   UNL     1       2.162   6.634  17.054  0.00  0.00    +0.000 HD
BRANCH  16  22
ATOM     18  C   UNL     1       0.367  11.348  20.695  0.00  0.00    +0.000 C 
ATOM     19  C   UNL     1       0.935  10.155  19.987  0.00  0.00    +0.000 A 
ATOM     20  C   UNL     1       1.138  10.159  18.604  0.00  0.00    +0.000 A 
ATOM     21  C   UNL     1       1.642   9.024  17.959  0.00  0.00    +0.000 A 
ATOM     22  C   UNL     1       1.959   7.871  18.683  0.00  0.00    +0.000 A 
ATOM     23  C   UNL     1       1.745   7.875  20.068  0.00  0.00    +0.000 A 
ATOM     24  C   UNL     1       1.245   9.007  20.716  0.00  0.00    +0.000 A 
ENDBRANCH  16  22
ENDBRANCH   1  16
TORSDOF 2
ENDMDL
