MODEL 1
REMARK VINA RESULT:      -6.9      0.000      0.000
REMARK  Name = 
REMARK  5 active torsions:
REMARK  status: ('A' for Active; 'I' for Inactive)
REMARK    1  A    between atoms: C_1  and  O_2
REMARK    2  A    between atoms: O_2  and  C_3
REMARK    3  A    between atoms: C_8  and  N_9
REMARK    4  A    between atoms: C_10  and  C_12
REMARK    5  A    between atoms: C_12  and  C_13
REMARK                            x       y       z     vdW  Elec       q    Type
REMARK                         _______ _______ _______ _____ _____    ______ ____
ROOT
ATOM      1  N   UNL     1       4.153   5.308  17.564  0.00  0.00    +0.000 N 
ATOM      2  C   UNL     1       3.375   6.431  17.756  0.00  0.00    +0.000 C 
ATOM      3  O   UNL     1       3.814   7.576  17.683  0.00  0.00    +0.000 OA
ATOM      4  H   UNL     1       3.722   4.393  17.580  0.00  0.00    +0.000 HD
ENDROOT
BRANCH   1  10
ATOM      5  C   UNL     1       6.038   4.405  16.182  0.00  0.00    +0.000 C 
ATOM      6  C   UNL     1       7.568   4.478  16.047  0.00  0.00    +0.000 C 
ATOM      7  O   UNL     1       8.220   4.241  17.292  0.00  0.00    +0.000 OA
ATOM      8  C   UNL     1       7.890   5.231  18.264  0.00  0.00    +0.000 C 
ATOM      9  C   UNL     1       6.399   5.194  18.562  0.00  0.00    +0.000 C 
ATOM     10  C   UNL     1       5.589   5.403  17.278  0.00  0.00    +0.000 C 
BRANCH   5  12
ATOM     11  C   UNL     1       5.808   4.007  13.829  0.00  0.00    +0.000 C 
ATOM     12  O   UNL     1       5.367   4.746  14.959  0.00  0.00    +0.000 OA
ENDBRANCH   5  12
ENDBRANCH   1  10
BRANCH   2  13
ATOM     13  C   UNL     1       1.924   6.146  18.100  0.00  0.00    +0.000 C 
BRANCH  13  14
ATOM     14  C   UNL     1       1.732   5.043  19.112  0.00  0.00    +0.000 A 
ATOM     15  C   UNL     1       2.067   5.239  20.463  0.00  0.00    +0.000 A 
ATOM     16  C   UNL     1       1.949   4.194  21.386  0.00  0.00    +0.000 A 
ATOM     17  C   UNL     1       1.500   2.949  20.963  0.00  0.00    +0.000 A 
ATOM     18  F   UNL     1       1.404   1.946  21.848  0.00  0.00    +0.000 F 
ATOM     19  C   UNL     1       1.163   2.744  19.634  0.00  0.00    +0.000 A 
ATOM     20  F   UNL     1       0.736   1.541  19.221  0.00  0.00    +0.000 F 
ATOM     21  C   UNL     1       1.277   3.778  18.706  0.00  0.00    +0.000 A 
ENDBRANCH  13  14
ENDBRANCH   2  13
TORSDOF 4
ENDMDL
MODEL 2
REMARK VINA RESULT:      -6.9      0.974      2.182
REMARK  Name = 
REMARK  5 active torsions:
REMARK  status: ('A' for Active; 'I' for Inactive)
REMARK    1  A    between atoms: C_1  and  O_2
REMARK    2  A    between atoms: O_2  and  C_3
REMARK    3  A    between atoms: C_8  and  N_9
REMARK    4  A    between atoms: C_10  and  C_12
REMARK    5  A    between atoms: C_12  and  C_13
REMARK                            x       y       z     vdW  Elec       q    Type
REMARK                         _______ _______ _______ _____ _____    ______ ____
ROOT
ATOM      1  N   UNL     1       4.009   4.854  17.173  0.00  0.00    +0.000 N 
ATOM      2  C   UNL     1       3.742   6.177  17.461  0.00  0.00    +0.000 C 
ATOM      3  O   UNL     1       4.492   7.099  17.150  0.00  0.00    +0.000 OA
ATOM      4  H   UNL     1       3.326   4.144  17.404  0.00  0.00    +0.000 HD
ENDROOT
BRANCH   1  10
ATOM      5  C   UNL     1       6.510   5.026  17.153  0.00  0.00    +0.000 C 
ATOM      6  C   UNL     1       7.729   4.665  16.291  0.00  0.00    +0.000 C 
ATOM      7  O   UNL     1       7.577   5.114  14.946  0.00  0.00    +0.000 OA
ATOM      8  C   UNL     1       6.471   4.489  14.298  0.00  0.00    +0.000 C 
ATOM      9  C   UNL     1       5.175   4.853  15.007  0.00  0.00    +0.000 C 
ATOM     10  C   UNL     1       5.239   4.447  16.483  0.00  0.00    +0.000 C 
BRANCH   5  12
ATOM     11  C   UNL     1       6.886   5.457  19.482  0.00  0.00    +0.000 C 
ATOM     12  O   UNL     1       6.604   4.489  18.481  0.00  0.00    +0.000 OA
ENDBRANCH   5  12
ENDBRANCH   1  10
BRANCH   2  13
ATOM     13  C   UNL     1       2.454   6.410  18.230  0.00  0.00    +0.000 C 
BRANCH  13  14
ATOM     14  C   UNL     1       2.075   5.285  19.162  0.00  0.00    +0.000 A 
ATOM     15  C   UNL     1       2.516   5.277  20.497  0.00  0.00    +0.000 A 
ATOM     16  C   UNL     1       2.218   4.202  21.340  0.00  0.00    +0.000 A 
ATOM     17  C   UNL     1       1.482   3.128  20.853  0.00  0.00    +0.000 A 
ATOM     18  F   UNL     1       1.213   2.091  21.660  0.00  0.00    +0.000 F 
ATOM     19  C   UNL     1       1.038   3.126  19.539  0.00  0.00    +0.000 A 
ATOM     20  F   UNL     1       0.334   2.088  19.064  0.00  0.00    +0.000 F 
ATOM     21  C   UNL     1       1.330   4.193  18.691  0.00  0.00    +0.000 A 
ENDBRANCH  13  14
ENDBRANCH   2  13
TORSDOF 4
ENDMDL
MODEL 3
REMARK VINA RESULT:      -6.8      4.046      7.297
REMARK  Name = 
REMARK  5 active torsions:
REMARK  status: ('A' for Active; 'I' for Inactive)
REMARK    1  A    between atoms: C_1  and  O_2
REMARK    2  A    between atoms: O_2  and  C_3
REMARK    3  A    between atoms: C_8  and  N_9
REMARK    4  A    between atoms: C_10  and  C_12
REMARK    5  A    between atoms: C_12  and  C_13
REMARK                            x       y       z     vdW  Elec       q    Type
REMARK                         _______ _______ _______ _____ _____    ______ ____
ROOT
ATOM      1  N   UNL     1       4.317   3.721  18.009  0.00  0.00    +0.000 N 
ATOM      2  C   UNL     1       4.868   4.708  17.218  0.00  0.00    +0.000 C 
ATOM      3  O   UNL     1       4.249   5.706  16.858  0.00  0.00    +0.000 OA
ATOM      4  H   UNL     1       4.893   2.951  18.322  0.00  0.00    +0.000 HD
ENDROOT
BRANCH   1  10
ATOM      5  C   UNL     1       2.805   4.202  19.950  0.00  0.00    +0.000 C 
ATOM      6  C   UNL     1       1.330   4.107  20.373  0.00  0.00    +0.000 C 
ATOM      7  O   UNL     1       0.794   2.808  20.135  0.00  0.00    +0.000 OA
ATOM      8  C   UNL     1       0.801   2.475  18.749  0.00  0.00    +0.000 C 
ATOM      9  C   UNL     1       2.228   2.438  18.225  0.00  0.00    +0.000 C 
ATOM     10  C   UNL     1       2.922   3.784  18.463  0.00  0.00    +0.000 C 
BRANCH   5  12
ATOM     11  C   UNL     1       2.410   6.556  19.724  0.00  0.00    +0.000 C 
ATOM     12  O   UNL     1       3.326   5.532  20.086  0.00  0.00    +0.000 OA
ENDBRANCH   5  12
ENDBRANCH   1  10
BRANCH   2  13
ATOM     13  C   UNL     1       6.303   4.453  16.794  0.00  0.00    +0.000 C 
BRANCH  13  14
ATOM     14  C   UNL     1       6.518   4.462  15.300  0.00  0.00    +0.000 A 
ATOM     15  C   UNL     1       5.737   3.655  14.455  0.00  0.00    +0.000 A 
ATOM     16  C   UNL     1       5.982   3.618  13.078  0.00  0.00    +0.000 A 
ATOM     17  C   UNL     1       7.011   4.381  12.540  0.00  0.00    +0.000 A 
ATOM     18  F   UNL     1       7.254   4.329  11.223  0.00  0.00    +0.000 F 
ATOM     19  C   UNL     1       7.788   5.184  13.364  0.00  0.00    +0.000 A 
ATOM     20  F   UNL     1       8.786   5.916  12.849  0.00  0.00    +0.000 F 
ATOM     21  C   UNL     1       7.551   5.229  14.737  0.00  0.00    +0.000 A 
ENDBRANCH  13  14
ENDBRANCH   2  13
TORSDOF 4
ENDMDL
MODEL 4
REMARK VINA RESULT:      -6.8      3.621      6.743
REMARK  Name = 
REMARK  5 active torsions:
REMARK  status: ('A' for Active; 'I' for Inactive)
REMARK    1  A    between atoms: C_1  and  O_2
REMARK    2  A    between atoms: O_2  and  C_3
REMARK    3  A    between atoms: C_8  and  N_9
REMARK    4  A    between atoms: C_10  and  C_12
REMARK    5  A    between atoms: C_12  and  C_13
REMARK                            x       y       z     vdW  Elec       q    Type
REMARK                         _______ _______ _______ _____ _____    ______ ____
ROOT
ATOM      1  N   UNL     1       3.520   5.234  17.491  0.00  0.00    +0.000 N 
ATOM      2  C   UNL     1       4.835   5.090  17.099  0.00  0.00    +0.000 C 
ATOM      3  O   UNL     1       5.631   4.348  17.669  0.00  0.00    +0.000 OA
ATOM      4  H   UNL     1       2.897   5.816  16.948  0.00  0.00    +0.000 HD
ENDROOT
BRANCH   1  10
ATOM      5  C   UNL     1       1.881   3.497  18.252  0.00  0.00    +0.000 C 
ATOM      6  C   UNL     1       1.278   2.897  19.532  0.00  0.00    +0.000 C 
ATOM      7  O   UNL     1       0.781   3.908  20.407  0.00  0.00    +0.000 OA
ATOM      8  C   UNL     1       1.818   4.776  20.861  0.00  0.00    +0.000 C 
ATOM      9  C   UNL     1       2.438   5.512  19.684  0.00  0.00    +0.000 C 
ATOM     10  C   UNL     1       2.977   4.516  18.651  0.00  0.00    +0.000 C 
BRANCH   5  12
ATOM     11  C   UNL     1       3.393   1.644  18.085  0.00  0.00    +0.000 C 
ATOM     12  O   UNL     1       2.478   2.498  17.412  0.00  0.00    +0.000 OA
ENDBRANCH   5  12
ENDBRANCH   1  10
BRANCH   2  13
ATOM     13  C   UNL     1       5.241   5.950  15.916  0.00  0.00    +0.000 C 
BRANCH  13  14
ATOM     14  C   UNL     1       5.831   5.178  14.761  0.00  0.00    +0.000 A 
ATOM     15  C   UNL     1       7.174   5.358  14.386  0.00  0.00    +0.000 A 
ATOM     16  C   UNL     1       7.700   4.689  13.275  0.00  0.00    +0.000 A 
ATOM     17  C   UNL     1       6.887   3.841  12.533  0.00  0.00    +0.000 A 
ATOM     18  F   UNL     1       7.390   3.215  11.459  0.00  0.00    +0.000 F 
ATOM     19  C   UNL     1       5.561   3.653  12.895  0.00  0.00    +0.000 A 
ATOM     20  F   UNL     1       4.772   2.841  12.176  0.00  0.00    +0.000 F 
ATOM     21  C   UNL     1       5.028   4.314  14.000  0.00  0.00    +0.000 A 
ENDBRANCH  13  14
ENDBRANCH   2  13
TORSDOF 4
ENDMDL
MODEL 5
REMARK VINA RESULT:      -6.7      3.695      7.074
REMARK  Name = 
REMARK  5 active torsions:
REMARK  status: ('A' for Active; 'I' for Inactive)
REMARK    1  A    between atoms: C_1  and  O_2
REMARK    2  A    between atoms: O_2  and  C_3
REMARK    3  A    between atoms: C_8  and  N_9
REMARK    4  A    between atoms: C_10  and  C_12
REMARK    5  A    between atoms: C_12  and  C_13
REMARK                            x       y       z     vdW  Elec       q    Type
REMARK                         _______ _______ _______ _____ _____    ______ ____
ROOT
ATOM      1  N   UNL     1       4.440   3.712  17.948  0.00  0.00    +0.000 N 
ATOM      2  C   UNL     1       5.001   4.674  17.134  0.00  0.00    +0.000 C 
ATOM      3  O   UNL     1       4.383   5.653  16.724  0.00  0.00    +0.000 OA
ATOM      4  H   UNL     1       5.016   2.958  18.301  0.00  0.00    +0.000 HD
ENDROOT
BRANCH   1  10
ATOM      5  C   UNL     1       2.883   4.230  19.842  0.00  0.00    +0.000 C 
ATOM      6  C   UNL     1       1.399   4.139  20.234  0.00  0.00    +0.000 C 
ATOM      7  O   UNL     1       0.874   2.832  20.014  0.00  0.00    +0.000 OA
ATOM      8  C   UNL     1       0.914   2.467  18.636  0.00  0.00    +0.000 C 
ATOM      9  C   UNL     1       2.352   2.425  18.146  0.00  0.00    +0.000 C 
ATOM     10  C   UNL     1       3.036   3.779  18.369  0.00  0.00    +0.000 C 
BRANCH   5  12
ATOM     11  C   UNL     1       2.490   6.576  19.535  0.00  0.00    +0.000 C 
ATOM     12  O   UNL     1       3.396   5.566  19.959  0.00  0.00    +0.000 OA
ENDBRANCH   5  12
ENDBRANCH   1  10
BRANCH   2  13
ATOM     13  C   UNL     1       6.447   4.416  16.752  0.00  0.00    +0.000 C 
BRANCH  13  14
ATOM     14  C   UNL     1       6.705   4.421  15.264  0.00  0.00    +0.000 A 
ATOM     15  C   UNL     1       7.675   5.271  14.704  0.00  0.00    +0.000 A 
ATOM     16  C   UNL     1       7.866   5.320  13.319  0.00  0.00    +0.000 A 
ATOM     17  C   UNL     1       7.088   4.523  12.488  0.00  0.00    +0.000 A 
ATOM     18  F   UNL     1       7.262   4.585  11.160  0.00  0.00    +0.000 F 
ATOM     19  C   UNL     1       6.130   3.678  13.028  0.00  0.00    +0.000 A 
ATOM     20  F   UNL     1       5.372   2.914  12.228  0.00  0.00    +0.000 F 
ATOM     21  C   UNL     1       5.932   3.622  14.407  0.00  0.00    +0.000 A 
ENDBRANCH  13  14
ENDBRANCH   2  13
TORSDOF 4
ENDMDL
MODEL 6
REMARK VINA RESULT:      -6.6      3.789      6.785
REMARK  Name = 
REMARK  5 active torsions:
REMARK  status: ('A' for Active; 'I' for Inactive)
REMARK    1  A    between atoms: C_1  and  O_2
REMARK    2  A    between atoms: O_2  and  C_3
REMARK    3  A    between atoms: C_8  and  N_9
REMARK    4  A    between atoms: C_10  and  C_12
REMARK    5  A    between atoms: C_12  and  C_13
REMARK                            x       y       z     vdW  Elec       q    Type
REMARK                         _______ _______ _______ _____ _____    ______ ____
ROOT
ATOM      1  N   UNL     1       4.384   5.240  18.057  0.00  0.00    +0.000 N 
ATOM      2  C   UNL     1       5.727   4.930  17.987  0.00  0.00    +0.000 C 
ATOM      3  O   UNL     1       6.264   4.096  18.712  0.00  0.00    +0.000 OA
ATOM      4  H   UNL     1       3.987   5.893  17.395  0.00  0.00    +0.000 HD
ENDROOT
BRANCH   1  10
ATOM      5  C   UNL     1       2.480   3.640  18.367  0.00  0.00    +0.000 C 
ATOM      6  C   UNL     1       1.507   3.128  19.442  0.00  0.00    +0.000 C 
ATOM      7  O   UNL     1       0.863   4.200  20.125  0.00  0.00    +0.000 OA
ATOM      8  C   UNL     1       1.794   5.017  20.832  0.00  0.00    +0.000 C 
ATOM      9  C   UNL     1       2.764   5.668  19.859  0.00  0.00    +0.000 C 
ATOM     10  C   UNL     1       3.494   4.602  19.034  0.00  0.00    +0.000 C 
BRANCH   5  12
ATOM     11  C   UNL     1       3.619   1.548  18.639  0.00  0.00    +0.000 C 
ATOM     12  O   UNL     1       3.213   2.574  17.744  0.00  0.00    +0.000 OA
ENDBRANCH   5  12
ENDBRANCH   1  10
BRANCH   2  13
ATOM     13  C   UNL     1       6.508   5.726  16.958  0.00  0.00    +0.000 C 
BRANCH  13  14
ATOM     14  C   UNL     1       6.476   5.141  15.566  0.00  0.00    +0.000 A 
ATOM     15  C   UNL     1       5.568   4.120  15.235  0.00  0.00    +0.000 A 
ATOM     16  C   UNL     1       5.584   3.536  13.964  0.00  0.00    +0.000 A 
ATOM     17  C   UNL     1       6.509   3.966  13.020  0.00  0.00    +0.000 A 
ATOM     18  F   UNL     1       6.532   3.392  11.809  0.00  0.00    +0.000 F 
ATOM     19  C   UNL     1       7.407   4.975  13.333  0.00  0.00    +0.000 A 
ATOM     20  F   UNL     1       8.306   5.387  12.427  0.00  0.00    +0.000 F 
ATOM     21  C   UNL     1       7.399   5.564  14.597  0.00  0.00    +0.000 A 
ENDBRANCH  13  14
ENDBRANCH   2  13
TORSDOF 4
ENDMDL
MODEL 7
REMARK VINA RESULT:      -6.6      3.657      6.382
REMARK  Name = 
REMARK  5 active torsions:
REMARK  status: ('A' for Active; 'I' for Inactive)
REMARK    1  A    between atoms: C_1  and  O_2
REMARK    2  A    between atoms: O_2  and  C_3
REMARK    3  A    between atoms: C_8  and  N_9
REMARK    4  A    between atoms: C_10  and  C_12
REMARK    5  A    between atoms: C_12  and  C_13
REMARK                            x       y       z     vdW  Elec       q    Type
REMARK                         _______ _______ _______ _____ _____    ______ ____
ROOT
ATOM      1  N   UNL     1       4.264   3.843  18.616  0.00  0.00    +0.000 N 
ATOM      2  C   UNL     1       4.146   3.811  17.241  0.00  0.00    +0.000 C 
ATOM      3  O   UNL     1       3.107   3.506  16.661  0.00  0.00    +0.000 OA
ATOM      4  H   UNL     1       5.128   4.158  19.036  0.00  0.00    +0.000 HD
ENDROOT
BRANCH   1  10
ATOM      5  C   UNL     1       2.514   4.724  20.179  0.00  0.00    +0.000 C 
ATOM      6  C   UNL     1       1.449   4.246  21.179  0.00  0.00    +0.000 C 
ATOM      7  O   UNL     1       1.988   3.325  22.124  0.00  0.00    +0.000 OA
ATOM      8  C   UNL     1       2.464   2.136  21.498  0.00  0.00    +0.000 C 
ATOM      9  C   UNL     1       3.602   2.466  20.544  0.00  0.00    +0.000 C 
ATOM     10  C   UNL     1       3.145   3.486  19.495  0.00  0.00    +0.000 C 
BRANCH   5  12
ATOM     11  C   UNL     1       2.511   6.879  19.128  0.00  0.00    +0.000 C 
ATOM     12  O   UNL     1       1.962   5.570  19.158  0.00  0.00    +0.000 OA
ENDBRANCH   5  12
ENDBRANCH   1  10
BRANCH   2  13
ATOM     13  C   UNL     1       5.418   4.154  16.488  0.00  0.00    +0.000 C 
BRANCH  13  14
ATOM     14  C   UNL     1       6.273   5.201  17.160  0.00  0.00    +0.000 A 
ATOM     15  C   UNL     1       6.285   6.528  16.696  0.00  0.00    +0.000 A 
ATOM     16  C   UNL     1       7.127   7.481  17.279  0.00  0.00    +0.000 A 
ATOM     17  C   UNL     1       7.964   7.111  18.325  0.00  0.00    +0.000 A 
ATOM     18  F   UNL     1       8.782   8.023  18.871  0.00  0.00    +0.000 F 
ATOM     19  C   UNL     1       7.960   5.806  18.795  0.00  0.00    +0.000 A 
ATOM     20  F   UNL     1       8.772   5.445  19.799  0.00  0.00    +0.000 F 
ATOM     21  C   UNL     1       7.124   4.849  18.220  0.00  0.00    +0.000 A 
ENDBRANCH  13  14
ENDBRANCH   2  13
TORSDOF 4
ENDMDL
MODEL 8
REMARK VINA RESULT:      -6.5      3.984      5.771
REMARK  Name = 
REMARK  5 active torsions:
REMARK  status: ('A' for Active; 'I' for Inactive)
REMARK    1  A    between atoms: C_1  and  O_2
REMARK    2  A    between atoms: O_2  and  C_3
REMARK    3  A    between atoms: C_8  and  N_9
REMARK    4  A    between atoms: C_10  and  C_12
REMARK    5  A    between atoms: C_12  and  C_13
REMARK                            x       y       z     vdW  Elec       q    Type
REMARK                         _______ _______ _______ _____ _____    ______ ____
ROOT
ATOM      1  N   UNL     1       2.151   5.829  18.856  0.00  0.00    +0.000 N 
ATOM      2  C   UNL     1       3.242   6.547  18.412  0.00  0.00    +0.000 C 
ATOM      3  O   UNL     1       4.398   6.142  18.505  0.00  0.00    +0.000 OA
ATOM      4  H   UNL     1       1.218   6.189  18.699  0.00  0.00    +0.000 HD
ENDROOT
BRANCH   1  10
ATOM      5  C   UNL     1       1.298   3.474  18.951  0.00  0.00    +0.000 C 
ATOM      6  C   UNL     1       1.431   2.184  19.776  0.00  0.00    +0.000 C 
ATOM      7  O   UNL     1       1.245   2.425  21.169  0.00  0.00    +0.000 OA
ATOM      8  C   UNL     1       2.240   3.301  21.694  0.00  0.00    +0.000 C 
ATOM      9  C   UNL     1       2.149   4.661  21.022  0.00  0.00    +0.000 C 
ATOM     10  C   UNL     1       2.299   4.520  19.502  0.00  0.00    +0.000 C 
BRANCH   5  12
ATOM     11  C   UNL     1       2.824   2.612  17.316  0.00  0.00    +0.000 C 
ATOM     12  O   UNL     1       1.586   3.264  17.561  0.00  0.00    +0.000 OA
ENDBRANCH   5  12
ENDBRANCH   1  10
BRANCH   2  13
ATOM     13  C   UNL     1       2.909   7.905  17.821  0.00  0.00    +0.000 C 
BRANCH  13  14
ATOM     14  C   UNL     1       1.812   8.646  18.547  0.00  0.00    +0.000 A 
ATOM     15  C   UNL     1       0.957   9.523  17.857  0.00  0.00    +0.000 A 
ATOM     16  C   UNL     1      -0.016  10.256  18.544  0.00  0.00    +0.000 A 
ATOM     17  C   UNL     1      -0.137  10.121  19.922  0.00  0.00    +0.000 A 
ATOM     18  F   UNL     1      -1.060  10.838  20.579  0.00  0.00    +0.000 F 
ATOM     19  C   UNL     1       0.699   9.256  20.613  0.00  0.00    +0.000 A 
ATOM     20  F   UNL     1       0.590   9.128  21.944  0.00  0.00    +0.000 F 
ATOM     21  C   UNL     1       1.672   8.520  19.938  0.00  0.00    +0.000 A 
ENDBRANCH  13  14
ENDBRANCH   2  13
TORSDOF 4
ENDMDL
MODEL 9
REMARK VINA RESULT:      -6.5      4.215      5.812
REMARK  Name = 
REMARK  5 active torsions:
REMARK  status: ('A' for Active; 'I' for Inactive)
REMARK    1  A    between atoms: C_1  and  O_2
REMARK    2  A    between atoms: O_2  and  C_3
REMARK    3  A    between atoms: C_8  and  N_9
REMARK    4  A    between atoms: C_10  and  C_12
REMARK    5  A    between atoms: C_12  and  C_13
REMARK                            x       y       z     vdW  Elec       q    Type
REMARK                         _______ _______ _______ _____ _____    ______ ____
ROOT
ATOM      1  N   UNL     1       2.132   5.874  18.816  0.00  0.00    +0.000 N 
ATOM      2  C   UNL     1       3.211   6.587  18.336  0.00  0.00    +0.000 C 
ATOM      3  O   UNL     1       4.369   6.181  18.400  0.00  0.00    +0.000 OA
ATOM      4  H   UNL     1       1.196   6.233  18.683  0.00  0.00    +0.000 HD
ENDROOT
BRANCH   1  10
ATOM      5  C   UNL     1       1.343   3.496  18.888  0.00  0.00    +0.000 C 
ATOM      6  C   UNL     1       1.486   2.210  19.717  0.00  0.00    +0.000 C 
ATOM      7  O   UNL     1       1.250   2.446  21.104  0.00  0.00    +0.000 OA
ATOM      8  C   UNL     1       2.203   3.350  21.659  0.00  0.00    +0.000 C 
ATOM      9  C   UNL     1       2.095   4.707  20.982  0.00  0.00    +0.000 C 
ATOM     10  C   UNL     1       2.296   4.569  19.469  0.00  0.00    +0.000 C 
BRANCH   5  12
ATOM     11  C   UNL     1       2.992   2.788  17.298  0.00  0.00    +0.000 C 
ATOM     12  O   UNL     1       1.680   3.293  17.507  0.00  0.00    +0.000 OA
ENDBRANCH   5  12
ENDBRANCH   1  10
BRANCH   2  13
ATOM     13  C   UNL     1       2.863   7.940  17.743  0.00  0.00    +0.000 C 
BRANCH  13  14
ATOM     14  C   UNL     1       1.842   8.721  18.536  0.00  0.00    +0.000 A 
ATOM     15  C   UNL     1       1.752   8.577  19.932  0.00  0.00    +0.000 A 
ATOM     16  C   UNL     1       0.763   9.252  20.655  0.00  0.00    +0.000 A 
ATOM     17  C   UNL     1      -0.142  10.069  19.988  0.00  0.00    +0.000 A 
ATOM     18  F   UNL     1      -1.099  10.700  20.683  0.00  0.00    +0.000 F 
ATOM     19  C   UNL     1      -0.061  10.221  18.612  0.00  0.00    +0.000 A 
ATOM     20  F   UNL     1      -0.938  11.002  17.964  0.00  0.00    +0.000 F 
ATOM     21  C   UNL     1       0.921   9.553  17.882  0.00  0.00    +0.000 A 
ENDBRANCH  13  14
ENDBRANCH   2  13
TORSDOF 4
ENDMDL
