MODEL 1
REMARK VINA RESULT:      -7.4      0.000      0.000
REMARK  Name = 
REMARK  5 active torsions:
REMARK  status: ('A' for Active; 'I' for Inactive)
REMARK    1  A    between atoms: C_1  and  O_2
REMARK    2  A    between atoms: O_2  and  C_3
REMARK    3  A    between atoms: C_5  and  N_6
REMARK    4  A    between atoms: C_12  and  N_13
REMARK    5  A    between atoms: C_20  and  C_21
REMARK                            x       y       z     vdW  Elec       q    Type
REMARK                         _______ _______ _______ _____ _____    ______ ____
ROOT
ATOM      1  N   UNL     1       2.113   7.605  20.769  0.00  0.00    +0.000 N 
ATOM      2  C   UNL     1       1.043   8.359  21.234  0.00  0.00    +0.000 C 
ATOM      3  O   UNL     1      -0.122   7.972  21.275  0.00  0.00    +0.000 OA
ATOM      4  N   UNL     1       1.384   9.640  21.622  0.00  0.00    +0.000 N 
ATOM      5  C   UNL     1       0.383  10.536  22.067  0.00  0.00    +0.000 A 
ATOM      6  C   UNL     1      -0.649  10.169  22.938  0.00  0.00    +0.000 A 
ATOM      7  N   UNL     1      -1.641  11.021  23.335  0.00  0.00    +0.000 NA
ATOM      8  C   UNL     1      -1.590  12.260  22.797  0.00  0.00    +0.000 A 
ATOM      9  C   UNL     1      -0.567  12.629  21.933  0.00  0.00    +0.000 A 
ATOM     10  N   UNL     1       0.457  11.796  21.581  0.00  0.00    +0.000 NA
ATOM     11  H   UNL     1       3.039   8.017  20.768  0.00  0.00    +0.000 HD
ATOM     12  H   UNL     1       2.102  10.098  21.083  0.00  0.00    +0.000 HD
ENDROOT
BRANCH   1  19
ATOM     13  C   UNL     1       2.120   6.115  18.806  0.00  0.00    +0.000 A 
ATOM     14  C   UNL     1       1.998   4.828  18.258  0.00  0.00    +0.000 A 
ATOM     15  C   UNL     1       1.730   3.736  19.092  0.00  0.00    +0.000 A 
ATOM     16  C   UNL     1       1.626   3.883  20.464  0.00  0.00    +0.000 A 
ATOM     17 CL   UNL     1       1.245   2.591  21.541  0.00  0.00    +0.000 Cl
ATOM     18  C   UNL     1       1.798   5.158  21.010  0.00  0.00    +0.000 A 
ATOM     19  C   UNL     1       2.023   6.292  20.207  0.00  0.00    +0.000 A 
BRANCH  15  20
ATOM     20  N   UNL     1       1.526   2.449  18.466  0.00  0.00    +0.000 N 
ATOM     21  O   UNL     1       0.354   2.059  18.373  0.00  0.00    +0.000 OA
ATOM     22  O   UNL     1       2.519   1.868  18.014  0.00  0.00    +0.000 OA
ENDBRANCH  15  20
BRANCH  13  24
ATOM     23  C   UNL     1       3.635   7.424  17.527  0.00  0.00    +0.000 C 
ATOM     24  O   UNL     1       2.305   7.237  18.029  0.00  0.00    +0.000 OA
ENDBRANCH  13  24
ENDBRANCH   1  19
BRANCH   8  25
ATOM     25  C   UNL     1      -2.635  13.182  23.153  0.00  0.00    +0.000 C 
ATOM     26  N   UNL     1      -3.513  13.889  23.426  0.00  0.00    +0.000 NA
ENDBRANCH   8  25
TORSDOF 4
ENDMDL
MODEL 2
REMARK VINA RESULT:      -7.1      1.979      2.224
REMARK  Name = 
REMARK  5 active torsions:
REMARK  status: ('A' for Active; 'I' for Inactive)
REMARK    1  A    between atoms: C_1  and  O_2
REMARK    2  A    between atoms: O_2  and  C_3
REMARK    3  A    between atoms: C_5  and  N_6
REMARK    4  A    between atoms: C_12  and  N_13
REMARK    5  A    between atoms: C_20  and  C_21
REMARK                            x       y       z     vdW  Elec       q    Type
REMARK                         _______ _______ _______ _____ _____    ______ ____
ROOT
ATOM      1  N   UNL     1       2.372   7.349  18.711  0.00  0.00    +0.000 N 
ATOM      2  C   UNL     1       1.734   8.186  19.618  0.00  0.00    +0.000 C 
ATOM      3  O   UNL     1       1.546   7.922  20.802  0.00  0.00    +0.000 OA
ATOM      4  N   UNL     1       1.268   9.363  19.065  0.00  0.00    +0.000 N 
ATOM      5  C   UNL     1       0.550  10.286  19.863  0.00  0.00    +0.000 A 
ATOM      6  C   UNL     1       0.927  10.635  21.165  0.00  0.00    +0.000 A 
ATOM      7  N   UNL     1       0.213  11.492  21.953  0.00  0.00    +0.000 NA
ATOM      8  C   UNL     1      -0.928  11.969  21.405  0.00  0.00    +0.000 A 
ATOM      9  C   UNL     1      -1.305  11.627  20.113  0.00  0.00    +0.000 A 
ATOM     10  N   UNL     1      -0.561  10.815  19.303  0.00  0.00    +0.000 NA
ATOM     11  H   UNL     1       2.472   7.654  17.750  0.00  0.00    +0.000 HD
ATOM     12  H   UNL     1       0.913   9.310  18.123  0.00  0.00    +0.000 HD
ENDROOT
BRANCH   1  19
ATOM     13  C   UNL     1       4.119   5.622  18.509  0.00  0.00    +0.000 A 
ATOM     14  C   UNL     1       4.569   4.316  18.758  0.00  0.00    +0.000 A 
ATOM     15  C   UNL     1       3.745   3.410  19.436  0.00  0.00    +0.000 A 
ATOM     16  C   UNL     1       2.500   3.783  19.913  0.00  0.00    +0.000 A 
ATOM     17 CL   UNL     1       1.414   2.703  20.707  0.00  0.00    +0.000 Cl
ATOM     18  C   UNL     1       2.077   5.098  19.707  0.00  0.00    +0.000 A 
ATOM     19  C   UNL     1       2.852   6.030  18.991  0.00  0.00    +0.000 A 
BRANCH  15  20
ATOM     20  N   UNL     1       4.221   2.054  19.587  0.00  0.00    +0.000 N 
ATOM     21  O   UNL     1       3.822   1.231  18.752  0.00  0.00    +0.000 OA
ATOM     22  O   UNL     1       5.037   1.831  20.490  0.00  0.00    +0.000 OA
ENDBRANCH  15  20
BRANCH  13  24
ATOM     23  C   UNL     1       4.989   6.232  16.384  0.00  0.00    +0.000 C 
ATOM     24  O   UNL     1       4.851   6.532  17.780  0.00  0.00    +0.000 OA
ENDBRANCH  13  24
ENDBRANCH   1  19
BRANCH   8  25
ATOM     25  C   UNL     1      -1.735  12.846  22.211  0.00  0.00    +0.000 C 
ATOM     26  N   UNL     1      -2.357  13.593  22.844  0.00  0.00    +0.000 NA
ENDBRANCH   8  25
TORSDOF 4
ENDMDL
MODEL 3
REMARK VINA RESULT:      -6.9      3.358      4.357
REMARK  Name = 
REMARK  5 active torsions:
REMARK  status: ('A' for Active; 'I' for Inactive)
REMARK    1  A    between atoms: C_1  and  O_2
REMARK    2  A    between atoms: O_2  and  C_3
REMARK    3  A    between atoms: C_5  and  N_6
REMARK    4  A    between atoms: C_12  and  N_13
REMARK    5  A    between atoms: C_20  and  C_21
REMARK                            x       y       z     vdW  Elec       q    Type
REMARK                         _______ _______ _______ _____ _____    ______ ____
ROOT
ATOM      1  N   UNL     1       2.971   6.179  19.444  0.00  0.00    +0.000 N 
ATOM      2  C   UNL     1       2.281   7.366  19.653  0.00  0.00    +0.000 C 
ATOM      3  O   UNL     1       2.371   8.364  18.943  0.00  0.00    +0.000 OA
ATOM      4  N   UNL     1       1.487   7.363  20.783  0.00  0.00    +0.000 N 
ATOM      5  C   UNL     1       0.768   8.526  21.148  0.00  0.00    +0.000 A 
ATOM      6  C   UNL     1       0.068   9.319  20.230  0.00  0.00    +0.000 A 
ATOM      7  N   UNL     1      -0.591  10.466  20.572  0.00  0.00    +0.000 NA
ATOM      8  C   UNL     1      -0.498  10.822  21.873  0.00  0.00    +0.000 A 
ATOM      9  C   UNL     1       0.193  10.038  22.787  0.00  0.00    +0.000 A 
ATOM     10  N   UNL     1       0.804   8.860  22.457  0.00  0.00    +0.000 NA
ATOM     11  H   UNL     1       2.835   5.412  20.092  0.00  0.00    +0.000 HD
ATOM     12  H   UNL     1       1.842   6.862  21.583  0.00  0.00    +0.000 HD
ENDROOT
BRANCH   1  19
ATOM     13  C   UNL     1       3.739   4.912  17.474  0.00  0.00    +0.000 A 
ATOM     14  C   UNL     1       4.709   4.671  16.488  0.00  0.00    +0.000 A 
ATOM     15  C   UNL     1       5.890   5.421  16.471  0.00  0.00    +0.000 A 
ATOM     16  C   UNL     1       6.113   6.437  17.384  0.00  0.00    +0.000 A 
ATOM     17 CL   UNL     1       7.568   7.362  17.453  0.00  0.00    +0.000 Cl
ATOM     18  C   UNL     1       5.123   6.708  18.332  0.00  0.00    +0.000 A 
ATOM     19  C   UNL     1       3.940   5.950  18.416  0.00  0.00    +0.000 A 
BRANCH  15  20
ATOM     20  N   UNL     1       6.893   5.071  15.491  0.00  0.00    +0.000 N 
ATOM     21  O   UNL     1       7.870   4.430  15.903  0.00  0.00    +0.000 OA
ATOM     22  O   UNL     1       6.671   5.375  14.313  0.00  0.00    +0.000 OA
ENDBRANCH  15  20
BRANCH  13  24
ATOM     23  C   UNL     1       2.802   2.743  17.721  0.00  0.00    +0.000 C 
ATOM     24  O   UNL     1       2.594   4.155  17.588  0.00  0.00    +0.000 OA
ENDBRANCH  13  24
ENDBRANCH   1  19
BRANCH   8  25
ATOM     25  C   UNL     1      -1.143  12.043  22.275  0.00  0.00    +0.000 C 
ATOM     26  N   UNL     1      -1.681  13.033  22.549  0.00  0.00    +0.000 NA
ENDBRANCH   8  25
TORSDOF 4
ENDMDL
MODEL 4
REMARK VINA RESULT:      -6.8      8.293     11.548
REMARK  Name = 
REMARK  5 active torsions:
REMARK  status: ('A' for Active; 'I' for Inactive)
REMARK    1  A    between atoms: C_1  and  O_2
REMARK    2  A    between atoms: O_2  and  C_3
REMARK    3  A    between atoms: C_5  and  N_6
REMARK    4  A    between atoms: C_12  and  N_13
REMARK    5  A    between atoms: C_20  and  C_21
REMARK                            x       y       z     vdW  Elec       q    Type
REMARK                         _______ _______ _______ _____ _____    ______ ____
ROOT
ATOM      1  N   UNL     1       9.614   9.571  19.225  0.00  0.00    +0.000 N 
ATOM      2  C   UNL     1       8.617   8.822  18.615  0.00  0.00    +0.000 C 
ATOM      3  O   UNL     1       7.790   9.267  17.824  0.00  0.00    +0.000 OA
ATOM      4  N   UNL     1       8.589   7.498  19.006  0.00  0.00    +0.000 N 
ATOM      5  C   UNL     1       7.590   6.630  18.504  0.00  0.00    +0.000 A 
ATOM      6  C   UNL     1       7.193   6.606  17.162  0.00  0.00    +0.000 A 
ATOM      7  N   UNL     1       6.200   5.801  16.683  0.00  0.00    +0.000 NA
ATOM      8  C   UNL     1       5.579   5.033  17.607  0.00  0.00    +0.000 A 
ATOM      9  C   UNL     1       5.971   5.052  18.939  0.00  0.00    +0.000 A 
ATOM     10  N   UNL     1       7.003   5.815  19.409  0.00  0.00    +0.000 NA
ATOM     11  H   UNL     1      10.246   9.113  19.872  0.00  0.00    +0.000 HD
ATOM     12  H   UNL     1       8.818   7.307  19.970  0.00  0.00    +0.000 HD
ENDROOT
BRANCH   1  19
ATOM     13  C   UNL     1       9.294  11.864  20.070  0.00  0.00    +0.000 A 
ATOM     14  C   UNL     1       9.449  13.250  19.908  0.00  0.00    +0.000 A 
ATOM     15  C   UNL     1      10.052  13.756  18.751  0.00  0.00    +0.000 A 
ATOM     16  C   UNL     1      10.548  12.916  17.769  0.00  0.00    +0.000 A 
ATOM     17 CL   UNL     1      11.254  13.474  16.297  0.00  0.00    +0.000 Cl
ATOM     18  C   UNL     1      10.438  11.536  17.958  0.00  0.00    +0.000 A 
ATOM     19  C   UNL     1       9.798  10.983  19.083  0.00  0.00    +0.000 A 
BRANCH  15  20
ATOM     20  N   UNL     1      10.105  15.192  18.595  0.00  0.00    +0.000 N 
ATOM     21  O   UNL     1      11.148  15.750  18.964  0.00  0.00    +0.000 OA
ATOM     22  O   UNL     1       9.143  15.744  18.049  0.00  0.00    +0.000 OA
ENDBRANCH  15  20
BRANCH  13  24
ATOM     23  C   UNL     1       8.730  12.059  22.370  0.00  0.00    +0.000 C 
ATOM     24  O   UNL     1       8.639  11.313  21.149  0.00  0.00    +0.000 OA
ENDBRANCH  13  24
ENDBRANCH   1  19
BRANCH   8  25
ATOM     25  C   UNL     1       4.499   4.196  17.158  0.00  0.00    +0.000 C 
ATOM     26  N   UNL     1       3.595   3.552  16.823  0.00  0.00    +0.000 NA
ENDBRANCH   8  25
TORSDOF 4
ENDMDL
MODEL 5
REMARK VINA RESULT:      -6.7      3.571      4.521
REMARK  Name = 
REMARK  5 active torsions:
REMARK  status: ('A' for Active; 'I' for Inactive)
REMARK    1  A    between atoms: C_1  and  O_2
REMARK    2  A    between atoms: O_2  and  C_3
REMARK    3  A    between atoms: C_5  and  N_6
REMARK    4  A    between atoms: C_12  and  N_13
REMARK    5  A    between atoms: C_20  and  C_21
REMARK                            x       y       z     vdW  Elec       q    Type
REMARK                         _______ _______ _______ _____ _____    ______ ____
ROOT
ATOM      1  N   UNL     1       2.735   6.843  18.893  0.00  0.00    +0.000 N 
ATOM      2  C   UNL     1       2.210   8.123  18.778  0.00  0.00    +0.000 C 
ATOM      3  O   UNL     1       2.552   8.948  17.935  0.00  0.00    +0.000 OA
ATOM      4  N   UNL     1       1.271   8.435  19.742  0.00  0.00    +0.000 N 
ATOM      5  C   UNL     1       0.692   9.726  19.778  0.00  0.00    +0.000 A 
ATOM      6  C   UNL     1       0.261  10.409  18.635  0.00  0.00    +0.000 A 
ATOM      7  N   UNL     1      -0.258  11.672  18.661  0.00  0.00    +0.000 NA
ATOM      8  C   UNL     1      -0.300  12.256  19.880  0.00  0.00    +0.000 A 
ATOM      9  C   UNL     1       0.125  11.582  21.017  0.00  0.00    +0.000 A 
ATOM     10  N   UNL     1       0.591  10.297  20.999  0.00  0.00    +0.000 NA
ATOM     11  H   UNL     1       2.392   6.237  19.629  0.00  0.00    +0.000 HD
ATOM     12  H   UNL     1       1.428   8.056  20.663  0.00  0.00    +0.000 HD
ENDROOT
BRANCH   1  19
ATOM     13  C   UNL     1       3.630   5.052  17.455  0.00  0.00    +0.000 A 
ATOM     14  C   UNL     1       4.686   4.513  16.702  0.00  0.00    +0.000 A 
ATOM     15  C   UNL     1       5.910   5.188  16.632  0.00  0.00    +0.000 A 
ATOM     16  C   UNL     1       6.098   6.410  17.255  0.00  0.00    +0.000 A 
ATOM     17 CL   UNL     1       7.595   7.267  17.252  0.00  0.00    +0.000 Cl
ATOM     18  C   UNL     1       5.029   6.967  17.960  0.00  0.00    +0.000 A 
ATOM     19  C   UNL     1       3.795   6.304  18.096  0.00  0.00    +0.000 A 
BRANCH  15  20
ATOM     20  N   UNL     1       6.990   4.545  15.918  0.00  0.00    +0.000 N 
ATOM     21  O   UNL     1       6.887   4.500  14.684  0.00  0.00    +0.000 OA
ATOM     22  O   UNL     1       7.958   4.152  16.578  0.00  0.00    +0.000 OA
ENDBRANCH  15  20
BRANCH  13  24
ATOM     23  C   UNL     1       2.497   2.966  17.551  0.00  0.00    +0.000 C 
ATOM     24  O   UNL     1       2.431   4.397  17.625  0.00  0.00    +0.000 OA
ENDBRANCH  13  24
ENDBRANCH   1  19
BRANCH   8  25
ATOM     25  C   UNL     1      -0.803  13.602  19.955  0.00  0.00    +0.000 C 
ATOM     26  N   UNL     1      -1.196  14.693  19.964  0.00  0.00    +0.000 NA
ENDBRANCH   8  25
TORSDOF 4
ENDMDL
MODEL 6
REMARK VINA RESULT:      -6.7      3.210      4.066
REMARK  Name = 
REMARK  5 active torsions:
REMARK  status: ('A' for Active; 'I' for Inactive)
REMARK    1  A    between atoms: C_1  and  O_2
REMARK    2  A    between atoms: O_2  and  C_3
REMARK    3  A    between atoms: C_5  and  N_6
REMARK    4  A    between atoms: C_12  and  N_13
REMARK    5  A    between atoms: C_20  and  C_21
REMARK                            x       y       z     vdW  Elec       q    Type
REMARK                         _______ _______ _______ _____ _____    ______ ____
ROOT
ATOM      1  N   UNL     1       2.983   6.241  19.953  0.00  0.00    +0.000 N 
ATOM      2  C   UNL     1       2.235   7.407  19.870  0.00  0.00    +0.000 C 
ATOM      3  O   UNL     1       2.240   8.177  18.913  0.00  0.00    +0.000 OA
ATOM      4  N   UNL     1       1.487   7.677  20.999  0.00  0.00    +0.000 N 
ATOM      5  C   UNL     1       0.718   8.863  21.074  0.00  0.00    +0.000 A 
ATOM      6  C   UNL     1      -0.061   9.344  20.015  0.00  0.00    +0.000 A 
ATOM      7  N   UNL     1      -0.771  10.510  20.068  0.00  0.00    +0.000 NA
ATOM      8  C   UNL     1      -0.648  11.211  21.218  0.00  0.00    +0.000 A 
ATOM      9  C   UNL     1       0.122  10.737  22.272  0.00  0.00    +0.000 A 
ATOM     10  N   UNL     1       0.786   9.542  22.241  0.00  0.00    +0.000 NA
ATOM     11  H   UNL     1       2.917   5.674  20.791  0.00  0.00    +0.000 HD
ATOM     12  H   UNL     1       1.901   7.430  21.885  0.00  0.00    +0.000 HD
ENDROOT
BRANCH   1  19
ATOM     13  C   UNL     1       3.783   4.492  18.411  0.00  0.00    +0.000 A 
ATOM     14  C   UNL     1       4.726   4.036  17.476  0.00  0.00    +0.000 A 
ATOM     15  C   UNL     1       5.826   4.837  17.146  0.00  0.00    +0.000 A 
ATOM     16  C   UNL     1       5.988   6.100  17.688  0.00  0.00    +0.000 A 
ATOM     17 CL   UNL     1       7.346   7.115  17.365  0.00  0.00    +0.000 Cl
ATOM     18  C   UNL     1       5.020   6.570  18.578  0.00  0.00    +0.000 A 
ATOM     19  C   UNL     1       3.923   5.783  18.975  0.00  0.00    +0.000 A 
BRANCH  15  20
ATOM     20  N   UNL     1       6.813   4.283  16.247  0.00  0.00    +0.000 N 
ATOM     21  O   UNL     1       6.435   4.041  15.092  0.00  0.00    +0.000 OA
ATOM     22  O   UNL     1       7.967   4.155  16.673  0.00  0.00    +0.000 OA
ENDBRANCH  15  20
BRANCH  13  24
ATOM     23  C   UNL     1       1.555   3.773  18.005  0.00  0.00    +0.000 C 
ATOM     24  O   UNL     1       2.725   3.718  18.833  0.00  0.00    +0.000 OA
ENDBRANCH  13  24
ENDBRANCH   1  19
BRANCH   8  25
ATOM     25  C   UNL     1      -1.345  12.466  21.309  0.00  0.00    +0.000 C 
ATOM     26  N   UNL     1      -1.903  13.474  21.435  0.00  0.00    +0.000 NA
ENDBRANCH   8  25
TORSDOF 4
ENDMDL
MODEL 7
REMARK VINA RESULT:      -6.5      3.976      9.085
REMARK  Name = 
REMARK  5 active torsions:
REMARK  status: ('A' for Active; 'I' for Inactive)
REMARK    1  A    between atoms: C_1  and  O_2
REMARK    2  A    between atoms: O_2  and  C_3
REMARK    3  A    between atoms: C_5  and  N_6
REMARK    4  A    between atoms: C_12  and  N_13
REMARK    5  A    between atoms: C_20  and  C_21
REMARK                            x       y       z     vdW  Elec       q    Type
REMARK                         _______ _______ _______ _____ _____    ______ ____
ROOT
ATOM      1  N   UNL     1       1.487   8.494  19.801  0.00  0.00    +0.000 N 
ATOM      2  C   UNL     1       2.282   8.079  18.740  0.00  0.00    +0.000 C 
ATOM      3  O   UNL     1       2.393   8.677  17.673  0.00  0.00    +0.000 OA
ATOM      4  N   UNL     1       2.930   6.879  18.958  0.00  0.00    +0.000 N 
ATOM      5  C   UNL     1       3.731   6.311  17.939  0.00  0.00    +0.000 A 
ATOM      6  C   UNL     1       4.622   7.053  17.156  0.00  0.00    +0.000 A 
ATOM      7  N   UNL     1       5.365   6.516  16.143  0.00  0.00    +0.000 NA
ATOM      8  C   UNL     1       5.160   5.199  15.910  0.00  0.00    +0.000 A 
ATOM      9  C   UNL     1       4.279   4.459  16.686  0.00  0.00    +0.000 A 
ATOM     10  N   UNL     1       3.578   4.983  17.736  0.00  0.00    +0.000 NA
ATOM     11  H   UNL     1       1.455   7.926  20.640  0.00  0.00    +0.000 HD
ATOM     12  H   UNL     1       2.426   6.184  19.486  0.00  0.00    +0.000 HD
ENDROOT
BRANCH   1  19
ATOM     13  C   UNL     1       0.472  10.406  20.979  0.00  0.00    +0.000 A 
ATOM     14  C   UNL     1      -0.398  11.508  20.980  0.00  0.00    +0.000 A 
ATOM     15  C   UNL     1      -1.145  11.811  19.836  0.00  0.00    +0.000 A 
ATOM     16  C   UNL     1      -1.015  11.072  18.673  0.00  0.00    +0.000 A 
ATOM     17 CL   UNL     1      -1.943  11.357  17.247  0.00  0.00    +0.000 Cl
ATOM     18  C   UNL     1      -0.110  10.007  18.660  0.00  0.00    +0.000 A 
ATOM     19  C   UNL     1       0.628   9.638  19.800  0.00  0.00    +0.000 A 
BRANCH  15  20
ATOM     20  N   UNL     1      -2.091  12.900  19.921  0.00  0.00    +0.000 N 
ATOM     21  O   UNL     1      -3.290  12.592  19.937  0.00  0.00    +0.000 OA
ATOM     22  O   UNL     1      -1.637  14.044  20.039  0.00  0.00    +0.000 OA
ENDBRANCH  15  20
BRANCH  13  24
ATOM     23  C   UNL     1       0.382   9.435  23.145  0.00  0.00    +0.000 C 
ATOM     24  O   UNL     1       1.173  10.014  22.098  0.00  0.00    +0.000 OA
ENDBRANCH  13  24
ENDBRANCH   1  19
BRANCH   8  25
ATOM     25  C   UNL     1       5.891   4.595  14.828  0.00  0.00    +0.000 C 
ATOM     26  N   UNL     1       6.446   4.068  13.957  0.00  0.00    +0.000 NA
ENDBRANCH   8  25
TORSDOF 4
ENDMDL
MODEL 8
REMARK VINA RESULT:      -6.5      3.250      4.165
REMARK  Name = 
REMARK  5 active torsions:
REMARK  status: ('A' for Active; 'I' for Inactive)
REMARK    1  A    between atoms: C_1  and  O_2
REMARK    2  A    between atoms: O_2  and  C_3
REMARK    3  A    between atoms: C_5  and  N_6
REMARK    4  A    between atoms: C_12  and  N_13
REMARK    5  A    between atoms: C_20  and  C_21
REMARK                            x       y       z     vdW  Elec       q    Type
REMARK                         _______ _______ _______ _____ _____    ______ ____
ROOT
ATOM      1  N   UNL     1       2.873   6.150  19.885  0.00  0.00    +0.000 N 
ATOM      2  C   UNL     1       2.164   7.343  19.827  0.00  0.00    +0.000 C 
ATOM      3  O   UNL     1       2.148   8.102  18.861  0.00  0.00    +0.000 OA
ATOM      4  N   UNL     1       1.486   7.652  20.990  0.00  0.00    +0.000 N 
ATOM      5  C   UNL     1       0.766   8.866  21.089  0.00  0.00    +0.000 A 
ATOM      6  C   UNL     1      -0.049   9.365  20.066  0.00  0.00    +0.000 A 
ATOM      7  N   UNL     1      -0.711  10.557  20.142  0.00  0.00    +0.000 NA
ATOM      8  C   UNL     1      -0.503  11.265  21.276  0.00  0.00    +0.000 A 
ATOM      9  C   UNL     1       0.303  10.773  22.294  0.00  0.00    +0.000 A 
ATOM     10  N   UNL     1       0.920   9.554  22.243  0.00  0.00    +0.000 NA
ATOM     11  H   UNL     1       2.829   5.595  20.732  0.00  0.00    +0.000 HD
ATOM     12  H   UNL     1       1.937   7.398  21.855  0.00  0.00    +0.000 HD
ENDROOT
BRANCH   1  19
ATOM     13  C   UNL     1       4.420   4.419  19.057  0.00  0.00    +0.000 A 
ATOM     14  C   UNL     1       5.297   3.949  18.067  0.00  0.00    +0.000 A 
ATOM     15  C   UNL     1       5.538   4.718  16.922  0.00  0.00    +0.000 A 
ATOM     16  C   UNL     1       4.892   5.925  16.714  0.00  0.00    +0.000 A 
ATOM     17 CL   UNL     1       5.181   6.946  15.354  0.00  0.00    +0.000 Cl
ATOM     18  C   UNL     1       3.981   6.365  17.678  0.00  0.00    +0.000 A 
ATOM     19  C   UNL     1       3.742   5.648  18.865  0.00  0.00    +0.000 A 
BRANCH  15  20
ATOM     20  N   UNL     1       6.517   4.229  15.978  0.00  0.00    +0.000 N 
ATOM     21  O   UNL     1       7.706   4.433  16.259  0.00  0.00    +0.000 OA
ATOM     22  O   UNL     1       6.103   3.589  15.004  0.00  0.00    +0.000 OA
ENDBRANCH  15  20
BRANCH  13  24
ATOM     23  C   UNL     1       4.259   2.315  20.147  0.00  0.00    +0.000 C 
ATOM     24  O   UNL     1       4.205   3.745  20.238  0.00  0.00    +0.000 OA
ENDBRANCH  13  24
ENDBRANCH   1  19
BRANCH   8  25
ATOM     25  C   UNL     1      -1.148  12.546  21.387  0.00  0.00    +0.000 C 
ATOM     26  N   UNL     1      -1.672  13.570  21.529  0.00  0.00    +0.000 NA
ENDBRANCH   8  25
TORSDOF 4
ENDMDL
MODEL 9
REMARK VINA RESULT:      -6.2      2.792      3.478
REMARK  Name = 
REMARK  5 active torsions:
REMARK  status: ('A' for Active; 'I' for Inactive)
REMARK    1  A    between atoms: C_1  and  O_2
REMARK    2  A    between atoms: O_2  and  C_3
REMARK    3  A    between atoms: C_5  and  N_6
REMARK    4  A    between atoms: C_12  and  N_13
REMARK    5  A    between atoms: C_20  and  C_21
REMARK                            x       y       z     vdW  Elec       q    Type
REMARK                         _______ _______ _______ _____ _____    ______ ____
ROOT
ATOM      1  N   UNL     1       1.695   7.194  20.579  0.00  0.00    +0.000 N 
ATOM      2  C   UNL     1       1.217   8.457  20.256  0.00  0.00    +0.000 C 
ATOM      3  O   UNL     1       1.454   9.048  19.206  0.00  0.00    +0.000 OA
ATOM      4  N   UNL     1       0.463   9.045  21.252  0.00  0.00    +0.000 N 
ATOM      5  C   UNL     1      -0.042  10.356  21.079  0.00  0.00    +0.000 A 
ATOM      6  C   UNL     1      -0.623  10.806  19.888  0.00  0.00    +0.000 A 
ATOM      7  N   UNL     1      -1.073  12.083  19.703  0.00  0.00    +0.000 NA
ATOM      8  C   UNL     1      -0.889  12.919  20.750  0.00  0.00    +0.000 A 
ATOM      9  C   UNL     1      -0.315  12.476  21.934  0.00  0.00    +0.000 A 
ATOM     10  N   UNL     1       0.083  11.184  22.140  0.00  0.00    +0.000 NA
ATOM     11  H   UNL     1       1.450   6.792  21.476  0.00  0.00    +0.000 HD
ATOM     12  H   UNL     1       0.751   8.864  22.202  0.00  0.00    +0.000 HD
ENDROOT
BRANCH   1  19
ATOM     13  C   UNL     1       2.948   5.106  20.193  0.00  0.00    +0.000 A 
ATOM     14  C   UNL     1       3.848   4.356  19.419  0.00  0.00    +0.000 A 
ATOM     15  C   UNL     1       4.421   4.918  18.272  0.00  0.00    +0.000 A 
ATOM     16  C   UNL     1       4.087   6.192  17.848  0.00  0.00    +0.000 A 
ATOM     17 CL   UNL     1       4.795   6.963  16.476  0.00  0.00    +0.000 Cl
ATOM     18  C   UNL     1       3.153   6.916  18.593  0.00  0.00    +0.000 A 
ATOM     19  C   UNL     1       2.586   6.411  19.777  0.00  0.00    +0.000 A 
BRANCH  15  20
ATOM     20  N   UNL     1       5.408   4.135  17.564  0.00  0.00    +0.000 N 
ATOM     21  O   UNL     1       5.025   3.565  16.533  0.00  0.00    +0.000 OA
ATOM     22  O   UNL     1       6.566   4.146  17.997  0.00  0.00    +0.000 OA
ENDBRANCH  15  20
BRANCH  13  24
ATOM     23  C   UNL     1       1.669   3.416  21.265  0.00  0.00    +0.000 C 
ATOM     24  O   UNL     1       2.414   4.637  21.372  0.00  0.00    +0.000 OA
ENDBRANCH  13  24
ENDBRANCH   1  19
BRANCH   8  25
ATOM     25  C   UNL     1      -1.311  14.285  20.591  0.00  0.00    +0.000 C 
ATOM     26  N   UNL     1      -1.652  15.391  20.515  0.00  0.00    +0.000 NA
ENDBRANCH   8  25
TORSDOF 4
ENDMDL
