MODEL 1
REMARK VINA RESULT:      -9.4      0.000      0.000
REMARK  Name = 
REMARK  10 active torsions:
REMARK  status: ('A' for Active; 'I' for Inactive)
REMARK    1  A    between atoms: C_1  and  C_2
REMARK    2  A    between atoms: C_5  and  C_6
REMARK    3  A    between atoms: C_6  and  N_7
REMARK    4  A    between atoms: C_8  and  C_9
REMARK    5  A    between atoms: C_14  and  C_15
REMARK    6  A    between atoms: C_15  and  O_17
REMARK    7  A    between atoms: C_22  and  O_23
REMARK    8  A    between atoms: O_23  and  C_24
REMARK    9  A    between atoms: C_24  and  C_25
REMARK   10  A    between atoms: C_28  and  C_29
REMARK                            x       y       z     vdW  Elec       q    Type
REMARK                         _______ _______ _______ _____ _____    ______ ____
ROOT
ATOM      1  N   UNL     1       4.535   5.640  17.976  0.00  0.00    +0.000 N 
ATOM      2  C   UNL     1       4.404   4.540  18.810  0.00  0.00    +0.000 A 
ATOM      3  N   UNL     1       5.527   4.345  19.492  0.00  0.00    +0.000 NA
ATOM      4  C   UNL     1       6.423   5.313  19.033  0.00  0.00    +0.000 A 
ATOM      5  C   UNL     1       7.749   5.644  19.411  0.00  0.00    +0.000 A 
ATOM      6  C   UNL     1       8.394   6.770  18.823  0.00  0.00    +0.000 A 
ATOM      7  C   UNL     1       7.738   7.540  17.869  0.00  0.00    +0.000 A 
ATOM      8  C   UNL     1       6.444   7.213  17.478  0.00  0.00    +0.000 A 
ATOM      9  C   UNL     1       5.826   6.107  18.073  0.00  0.00    +0.000 A 
ENDROOT
BRANCH   2  10
ATOM     10  C   UNL     1       3.072   3.838  18.936  0.00  0.00    +0.000 C 
ATOM     11  C   UNL     1       2.303   3.895  17.603  0.00  0.00    +0.000 C 
ATOM     12  C   UNL     1       0.826   3.614  17.866  0.00  0.00    +0.000 C 
ATOM     13  C   UNL     1       0.652   2.229  18.474  0.00  0.00    +0.000 C 
ATOM     14  C   UNL     1       1.534   2.026  19.708  0.00  0.00    +0.000 C 
ATOM     15  C   UNL     1       3.033   2.411  19.511  0.00  0.00    +0.000 C 
BRANCH  15  16
ATOM     16  C   UNL     1       3.722   2.287  20.868  0.00  0.00    +0.000 C 
ATOM     17  O   UNL     1       3.176   2.504  21.942  0.00  0.00    +0.000 OA
BRANCH  16  18
ATOM     18  O   UNL     1       4.997   1.858  20.819  0.00  0.00    +0.000 OA
ATOM     19  H   UNL     1       5.268   1.473  19.947  0.00  0.00    +0.000 HD
ENDBRANCH  16  18
ENDBRANCH  15  16
ENDBRANCH   2  10
BRANCH   1  20
ATOM     20  C   UNL     1       3.471   6.365  17.299  0.00  0.00    +0.000 C 
BRANCH  20  25
ATOM     21  C   UNL     1       0.311   9.904  20.690  0.00  0.00    +0.000 C 
ATOM     22  C   UNL     1       1.229   9.064  19.854  0.00  0.00    +0.000 A 
ATOM     23  C   UNL     1       1.558   9.456  18.560  0.00  0.00    +0.000 A 
ATOM     24  C   UNL     1       2.326   8.624  17.746  0.00  0.00    +0.000 A 
ATOM     25  C   UNL     1       2.776   7.371  18.197  0.00  0.00    +0.000 A 
ATOM     26  C   UNL     1       2.502   7.017  19.525  0.00  0.00    +0.000 A 
ATOM     27  C   UNL     1       1.720   7.845  20.338  0.00  0.00    +0.000 A 
ENDBRANCH  20  25
ENDBRANCH   1  20
BRANCH   7  28
ATOM     28  O   UNL     1       8.162   8.717  17.319  0.00  0.00    +0.000 OA
BRANCH  28  29
ATOM     29  C   UNL     1       7.609   9.946  17.788  0.00  0.00    +0.000 C 
BRANCH  29  30
ATOM     30  C   UNL     1       8.768  10.801  18.286  0.00  0.00    +0.000 A 
ATOM     31  C   UNL     1       9.040  12.032  17.687  0.00  0.00    +0.000 A 
ATOM     32  C   UNL     1      10.155  12.765  18.100  0.00  0.00    +0.000 A 
ATOM     33  C   UNL     1      10.980  12.258  19.101  0.00  0.00    +0.000 A 
ATOM     34  C   UNL     1      12.217  12.977  19.547  0.00  0.00    +0.000 C 
ATOM     35  C   UNL     1      10.619  11.041  19.666  0.00  0.00    +0.000 A 
ATOM     36  N   UNL     1       9.542  10.308  19.288  0.00  0.00    +0.000 NA
ENDBRANCH  29  30
ENDBRANCH  28  29
ENDBRANCH   7  28
TORSDOF 8
ENDMDL
MODEL 2
REMARK VINA RESULT:      -9.2      5.109      9.818
REMARK  Name = 
REMARK  10 active torsions:
REMARK  status: ('A' for Active; 'I' for Inactive)
REMARK    1  A    between atoms: C_1  and  C_2
REMARK    2  A    between atoms: C_5  and  C_6
REMARK    3  A    between atoms: C_6  and  N_7
REMARK    4  A    between atoms: C_8  and  C_9
REMARK    5  A    between atoms: C_14  and  C_15
REMARK    6  A    between atoms: C_15  and  O_17
REMARK    7  A    between atoms: C_22  and  O_23
REMARK    8  A    between atoms: O_23  and  C_24
REMARK    9  A    between atoms: C_24  and  C_25
REMARK   10  A    between atoms: C_28  and  C_29
REMARK                            x       y       z     vdW  Elec       q    Type
REMARK                         _______ _______ _______ _____ _____    ______ ____
ROOT
ATOM      1  N   UNL     1      -0.944  11.401  20.855  0.00  0.00    +0.000 N 
ATOM      2  C   UNL     1      -1.078  11.596  22.222  0.00  0.00    +0.000 A 
ATOM      3  N   UNL     1      -0.329  10.722  22.885  0.00  0.00    +0.000 NA
ATOM      4  C   UNL     1       0.251   9.904  21.913  0.00  0.00    +0.000 A 
ATOM      5  C   UNL     1       1.179   8.835  21.993  0.00  0.00    +0.000 A 
ATOM      6  C   UNL     1       1.679   8.239  20.801  0.00  0.00    +0.000 A 
ATOM      7  C   UNL     1       1.254   8.688  19.555  0.00  0.00    +0.000 A 
ATOM      8  C   UNL     1       0.330   9.725  19.466  0.00  0.00    +0.000 A 
ATOM      9  C   UNL     1      -0.144  10.300  20.650  0.00  0.00    +0.000 A 
ENDROOT
BRANCH   2  10
ATOM     10  C   UNL     1      -1.880  12.764  22.746  0.00  0.00    +0.000 C 
ATOM     11  C   UNL     1      -2.959  12.281  23.732  0.00  0.00    +0.000 C 
ATOM     12  C   UNL     1      -4.021  13.366  23.881  0.00  0.00    +0.000 C 
ATOM     13  C   UNL     1      -3.399  14.645  24.423  0.00  0.00    +0.000 C 
ATOM     14  C   UNL     1      -2.190  15.093  23.598  0.00  0.00    +0.000 C 
ATOM     15  C   UNL     1      -1.132  13.977  23.329  0.00  0.00    +0.000 C 
BRANCH  15  16
ATOM     16  C   UNL     1      -0.086  14.556  22.380  0.00  0.00    +0.000 C 
ATOM     17  O   UNL     1       1.091  14.218  22.360  0.00  0.00    +0.000 OA
BRANCH  16  18
ATOM     18  O   UNL     1      -0.557  15.457  21.498  0.00  0.00    +0.000 OA
ATOM     19  H   UNL     1       0.101  15.748  20.816  0.00  0.00    +0.000 HD
ENDBRANCH  16  18
ENDBRANCH  15  16
ENDBRANCH   2  10
BRANCH   1  20
ATOM     20  C   UNL     1      -1.342  12.310  19.791  0.00  0.00    +0.000 C 
BRANCH  20  25
ATOM     21  C   UNL     1      -6.819  10.956  18.314  0.00  0.00    +0.000 C 
ATOM     22  C   UNL     1      -5.414  11.395  18.599  0.00  0.00    +0.000 A 
ATOM     23  C   UNL     1      -4.350  10.854  17.884  0.00  0.00    +0.000 A 
ATOM     24  C   UNL     1      -3.036  11.182  18.219  0.00  0.00    +0.000 A 
ATOM     25  C   UNL     1      -2.750  12.051  19.286  0.00  0.00    +0.000 A 
ATOM     26  C   UNL     1      -3.828  12.647  19.953  0.00  0.00    +0.000 A 
ATOM     27  C   UNL     1      -5.146  12.308  19.626  0.00  0.00    +0.000 A 
ENDBRANCH  20  25
ENDBRANCH   1  20
BRANCH   7  28
ATOM     28  O   UNL     1       1.736   8.320  18.331  0.00  0.00    +0.000 OA
BRANCH  28  29
ATOM     29  C   UNL     1       3.074   7.834  18.225  0.00  0.00    +0.000 C 
BRANCH  29  30
ATOM     30  C   UNL     1       3.012   6.314  18.322  0.00  0.00    +0.000 A 
ATOM     31  C   UNL     1       1.913   5.622  17.810  0.00  0.00    +0.000 A 
ATOM     32  C   UNL     1       1.832   4.239  17.980  0.00  0.00    +0.000 A 
ATOM     33  C   UNL     1       2.847   3.569  18.659  0.00  0.00    +0.000 A 
ATOM     34  C   UNL     1       2.788   2.093  18.915  0.00  0.00    +0.000 C 
ATOM     35  C   UNL     1       3.920   4.328  19.109  0.00  0.00    +0.000 A 
ATOM     36  N   UNL     1       4.027   5.672  18.957  0.00  0.00    +0.000 NA
ENDBRANCH  29  30
ENDBRANCH  28  29
ENDBRANCH   7  28
TORSDOF 8
ENDMDL
MODEL 3
REMARK VINA RESULT:      -9.0      5.136      9.313
REMARK  Name = 
REMARK  10 active torsions:
REMARK  status: ('A' for Active; 'I' for Inactive)
REMARK    1  A    between atoms: C_1  and  C_2
REMARK    2  A    between atoms: C_5  and  C_6
REMARK    3  A    between atoms: C_6  and  N_7
REMARK    4  A    between atoms: C_8  and  C_9
REMARK    5  A    between atoms: C_14  and  C_15
REMARK    6  A    between atoms: C_15  and  O_17
REMARK    7  A    between atoms: C_22  and  O_23
REMARK    8  A    between atoms: O_23  and  C_24
REMARK    9  A    between atoms: C_24  and  C_25
REMARK   10  A    between atoms: C_28  and  C_29
REMARK                            x       y       z     vdW  Elec       q    Type
REMARK                         _______ _______ _______ _____ _____    ______ ____
ROOT
ATOM      1  N   UNL     1      -0.939  11.410  20.938  0.00  0.00    +0.000 N 
ATOM      2  C   UNL     1      -1.154  11.624  22.292  0.00  0.00    +0.000 A 
ATOM      3  N   UNL     1      -0.424  10.779  23.011  0.00  0.00    +0.000 NA
ATOM      4  C   UNL     1       0.228   9.959  22.088  0.00  0.00    +0.000 A 
ATOM      5  C   UNL     1       1.174   8.914  22.239  0.00  0.00    +0.000 A 
ATOM      6  C   UNL     1       1.753   8.310  21.087  0.00  0.00    +0.000 A 
ATOM      7  C   UNL     1       1.388   8.728  19.812  0.00  0.00    +0.000 A 
ATOM      8  C   UNL     1       0.449   9.741  19.653  0.00  0.00    +0.000 A 
ATOM      9  C   UNL     1      -0.104  10.325  20.798  0.00  0.00    +0.000 A 
ENDROOT
BRANCH   2  10
ATOM     10  C   UNL     1      -2.010  12.782  22.749  0.00  0.00    +0.000 C 
ATOM     11  C   UNL     1      -3.101  12.298  23.722  0.00  0.00    +0.000 C 
ATOM     12  C   UNL     1      -4.203  13.350  23.799  0.00  0.00    +0.000 C 
ATOM     13  C   UNL     1      -3.641  14.668  24.312  0.00  0.00    +0.000 C 
ATOM     14  C   UNL     1      -2.424  15.128  23.505  0.00  0.00    +0.000 C 
ATOM     15  C   UNL     1      -1.322  14.041  23.308  0.00  0.00    +0.000 C 
BRANCH  15  16
ATOM     16  C   UNL     1      -0.268  14.621  22.368  0.00  0.00    +0.000 C 
ATOM     17  O   UNL     1      -0.447  15.593  21.644  0.00  0.00    +0.000 OA
BRANCH  16  18
ATOM     18  O   UNL     1       0.933  14.015  22.420  0.00  0.00    +0.000 OA
ATOM     19  H   UNL     1       1.674  14.596  22.728  0.00  0.00    +0.000 HD
ENDBRANCH  16  18
ENDBRANCH  15  16
ENDBRANCH   2  10
BRANCH   1  20
ATOM     20  C   UNL     1      -1.297  12.291  19.838  0.00  0.00    +0.000 C 
BRANCH  20  25
ATOM     21  C   UNL     1      -6.757  10.973  18.271  0.00  0.00    +0.000 C 
ATOM     22  C   UNL     1      -5.355  11.403  18.579  0.00  0.00    +0.000 A 
ATOM     23  C   UNL     1      -4.283  10.854  17.882  0.00  0.00    +0.000 A 
ATOM     24  C   UNL     1      -2.973  11.174  18.239  0.00  0.00    +0.000 A 
ATOM     25  C   UNL     1      -2.698  12.041  19.310  0.00  0.00    +0.000 A 
ATOM     26  C   UNL     1      -3.783  12.646  19.958  0.00  0.00    +0.000 A 
ATOM     27  C   UNL     1      -5.098  12.315  19.609  0.00  0.00    +0.000 A 
ENDBRANCH  20  25
ENDBRANCH   1  20
BRANCH   7  28
ATOM     28  O   UNL     1       1.947   8.350  18.623  0.00  0.00    +0.000 OA
BRANCH  28  29
ATOM     29  C   UNL     1       2.015   6.964  18.293  0.00  0.00    +0.000 C 
BRANCH  29  30
ATOM     30  C   UNL     1       3.488   6.574  18.282  0.00  0.00    +0.000 A 
ATOM     31  C   UNL     1       4.333   7.046  17.277  0.00  0.00    +0.000 A 
ATOM     32  C   UNL     1       5.660   6.614  17.235  0.00  0.00    +0.000 A 
ATOM     33  C   UNL     1       6.122   5.717  18.195  0.00  0.00    +0.000 A 
ATOM     34  C   UNL     1       7.521   5.180  18.167  0.00  0.00    +0.000 C 
ATOM     35  C   UNL     1       5.225   5.321  19.179  0.00  0.00    +0.000 A 
ATOM     36  N   UNL     1       3.932   5.726  19.247  0.00  0.00    +0.000 NA
ENDBRANCH  29  30
ENDBRANCH  28  29
ENDBRANCH   7  28
TORSDOF 8
ENDMDL
MODEL 4
REMARK VINA RESULT:      -8.8      1.403      1.867
REMARK  Name = 
REMARK  10 active torsions:
REMARK  status: ('A' for Active; 'I' for Inactive)
REMARK    1  A    between atoms: C_1  and  C_2
REMARK    2  A    between atoms: C_5  and  C_6
REMARK    3  A    between atoms: C_6  and  N_7
REMARK    4  A    between atoms: C_8  and  C_9
REMARK    5  A    between atoms: C_14  and  C_15
REMARK    6  A    between atoms: C_15  and  O_17
REMARK    7  A    between atoms: C_22  and  O_23
REMARK    8  A    between atoms: O_23  and  C_24
REMARK    9  A    between atoms: C_24  and  C_25
REMARK   10  A    between atoms: C_28  and  C_29
REMARK                            x       y       z     vdW  Elec       q    Type
REMARK                         _______ _______ _______ _____ _____    ______ ____
ROOT
ATOM      1  N   UNL     1       4.478   5.384  18.345  0.00  0.00    +0.000 N 
ATOM      2  C   UNL     1       4.445   4.394  19.317  0.00  0.00    +0.000 A 
ATOM      3  N   UNL     1       5.606   4.344  19.960  0.00  0.00    +0.000 NA
ATOM      4  C   UNL     1       6.426   5.288  19.338  0.00  0.00    +0.000 A 
ATOM      5  C   UNL     1       7.747   5.729  19.604  0.00  0.00    +0.000 A 
ATOM      6  C   UNL     1       8.302   6.800  18.847  0.00  0.00    +0.000 A 
ATOM      7  C   UNL     1       7.564   7.409  17.838  0.00  0.00    +0.000 A 
ATOM      8  C   UNL     1       6.274   6.971  17.558  0.00  0.00    +0.000 A 
ATOM      9  C   UNL     1       5.745   5.922  18.317  0.00  0.00    +0.000 A 
ENDROOT
BRANCH   2  10
ATOM     10  C   UNL     1       3.160   3.650  19.598  0.00  0.00    +0.000 C 
ATOM     11  C   UNL     1       2.390   4.317  20.753  0.00  0.00    +0.000 C 
ATOM     12  C   UNL     1       1.378   3.324  21.316  0.00  0.00    +0.000 C 
ATOM     13  C   UNL     1       0.384   2.914  20.238  0.00  0.00    +0.000 C 
ATOM     14  C   UNL     1       1.082   2.411  18.972  0.00  0.00    +0.000 C 
ATOM     15  C   UNL     1       2.205   3.348  18.429  0.00  0.00    +0.000 C 
BRANCH  15  16
ATOM     16  C   UNL     1       2.882   2.627  17.265  0.00  0.00    +0.000 C 
ATOM     17  O   UNL     1       3.744   1.766  17.393  0.00  0.00    +0.000 OA
BRANCH  16  18
ATOM     18  O   UNL     1       2.425   2.966  16.045  0.00  0.00    +0.000 OA
ATOM     19  H   UNL     1       3.068   3.482  15.494  0.00  0.00    +0.000 HD
ENDBRANCH  16  18
ENDBRANCH  15  16
ENDBRANCH   2  10
BRANCH   1  20
ATOM     20  C   UNL     1       3.348   5.963  17.637  0.00  0.00    +0.000 C 
BRANCH  20  25
ATOM     21  C   UNL     1       0.524  10.282  20.353  0.00  0.00    +0.000 C 
ATOM     22  C   UNL     1       1.362   9.233  19.687  0.00  0.00    +0.000 A 
ATOM     23  C   UNL     1       1.785   9.401  18.373  0.00  0.00    +0.000 A 
ATOM     24  C   UNL     1       2.474   8.380  17.718  0.00  0.00    +0.000 A 
ATOM     25  C   UNL     1       2.748   7.158  18.355  0.00  0.00    +0.000 A 
ATOM     26  C   UNL     1       2.383   7.025  19.702  0.00  0.00    +0.000 A 
ATOM     27  C   UNL     1       1.680   8.044  20.355  0.00  0.00    +0.000 A 
ENDBRANCH  20  25
ENDBRANCH   1  20
BRANCH   7  28
ATOM     28  O   UNL     1       7.897   8.525  17.123  0.00  0.00    +0.000 OA
BRANCH  28  29
ATOM     29  C   UNL     1       7.469   9.804  17.587  0.00  0.00    +0.000 C 
BRANCH  29  30
ATOM     30  C   UNL     1       8.692  10.510  18.160  0.00  0.00    +0.000 A 
ATOM     31  C   UNL     1       9.235  10.097  19.377  0.00  0.00    +0.000 A 
ATOM     32  C   UNL     1      10.305  10.806  19.929  0.00  0.00    +0.000 A 
ATOM     33  C   UNL     1      10.813  11.915  19.257  0.00  0.00    +0.000 A 
ATOM     34  C   UNL     1      11.925  12.743  19.827  0.00  0.00    +0.000 C 
ATOM     35  C   UNL     1      10.235  12.240  18.037  0.00  0.00    +0.000 A 
ATOM     36  N   UNL     1       9.198  11.569  17.475  0.00  0.00    +0.000 NA
ENDBRANCH  29  30
ENDBRANCH  28  29
ENDBRANCH   7  28
TORSDOF 8
ENDMDL
MODEL 5
REMARK VINA RESULT:      -8.8      4.995      9.392
REMARK  Name = 
REMARK  10 active torsions:
REMARK  status: ('A' for Active; 'I' for Inactive)
REMARK    1  A    between atoms: C_1  and  C_2
REMARK    2  A    between atoms: C_5  and  C_6
REMARK    3  A    between atoms: C_6  and  N_7
REMARK    4  A    between atoms: C_8  and  C_9
REMARK    5  A    between atoms: C_14  and  C_15
REMARK    6  A    between atoms: C_15  and  O_17
REMARK    7  A    between atoms: C_22  and  O_23
REMARK    8  A    between atoms: O_23  and  C_24
REMARK    9  A    between atoms: C_24  and  C_25
REMARK   10  A    between atoms: C_28  and  C_29
REMARK                            x       y       z     vdW  Elec       q    Type
REMARK                         _______ _______ _______ _____ _____    ______ ____
ROOT
ATOM      1  N   UNL     1      -0.679  11.293  20.761  0.00  0.00    +0.000 N 
ATOM      2  C   UNL     1      -0.893  11.736  22.058  0.00  0.00    +0.000 A 
ATOM      3  N   UNL     1      -0.222  10.978  22.918  0.00  0.00    +0.000 NA
ATOM      4  C   UNL     1       0.389   9.983  22.151  0.00  0.00    +0.000 A 
ATOM      5  C   UNL     1       1.268   8.923  22.486  0.00  0.00    +0.000 A 
ATOM      6  C   UNL     1       1.822   8.108  21.458  0.00  0.00    +0.000 A 
ATOM      7  C   UNL     1       1.495   8.335  20.125  0.00  0.00    +0.000 A 
ATOM      8  C   UNL     1       0.619   9.362  19.787  0.00  0.00    +0.000 A 
ATOM      9  C   UNL     1       0.092  10.154  20.813  0.00  0.00    +0.000 A 
ENDROOT
BRANCH   2  10
ATOM     10  C   UNL     1      -1.682  13.000  22.307  0.00  0.00    +0.000 C 
ATOM     11  C   UNL     1      -2.856  12.725  23.266  0.00  0.00    +0.000 C 
ATOM     12  C   UNL     1      -3.879  13.850  23.138  0.00  0.00    +0.000 C 
ATOM     13  C   UNL     1      -3.247  15.184  23.507  0.00  0.00    +0.000 C 
ATOM     14  C   UNL     1      -1.959  15.449  22.724  0.00  0.00    +0.000 C 
ATOM     15  C   UNL     1      -0.932  14.273  22.737  0.00  0.00    +0.000 C 
BRANCH  15  16
ATOM     16  C   UNL     1       0.210  14.649  21.797  0.00  0.00    +0.000 C 
ATOM     17  O   UNL     1       0.058  15.177  20.702  0.00  0.00    +0.000 OA
BRANCH  16  18
ATOM     18  O   UNL     1       1.444  14.407  22.278  0.00  0.00    +0.000 OA
ATOM     19  H   UNL     1       1.948  15.218  22.543  0.00  0.00    +0.000 HD
ENDBRANCH  16  18
ENDBRANCH  15  16
ENDBRANCH   2  10
BRANCH   1  20
ATOM     20  C   UNL     1      -0.972  12.004  19.527  0.00  0.00    +0.000 C 
BRANCH  20  25
ATOM     21  C   UNL     1      -6.538  10.900  18.181  0.00  0.00    +0.000 C 
ATOM     22  C   UNL     1      -5.103  11.261  18.421  0.00  0.00    +0.000 A 
ATOM     23  C   UNL     1      -4.085  10.549  17.794  0.00  0.00    +0.000 A 
ATOM     24  C   UNL     1      -2.749  10.816  18.098  0.00  0.00    +0.000 A 
ATOM     25  C   UNL     1      -2.396  11.792  19.045  0.00  0.00    +0.000 A 
ATOM     26  C   UNL     1      -3.424  12.553  19.616  0.00  0.00    +0.000 A 
ATOM     27  C   UNL     1      -4.765  12.277  19.322  0.00  0.00    +0.000 A 
ENDBRANCH  20  25
ENDBRANCH   1  20
BRANCH   7  28
ATOM     28  O   UNL     1       2.042   7.739  19.024  0.00  0.00    +0.000 OA
BRANCH  28  29
ATOM     29  C   UNL     1       2.233   6.325  19.019  0.00  0.00    +0.000 C 
BRANCH  29  30
ATOM     30  C   UNL     1       3.331   6.022  18.005  0.00  0.00    +0.000 A 
ATOM     31  C   UNL     1       4.033   7.064  17.398  0.00  0.00    +0.000 A 
ATOM     32  C   UNL     1       4.978   6.773  16.411  0.00  0.00    +0.000 A 
ATOM     33  C   UNL     1       5.206   5.448  16.047  0.00  0.00    +0.000 A 
ATOM     34  C   UNL     1       6.170   5.082  14.960  0.00  0.00    +0.000 C 
ATOM     35  C   UNL     1       4.488   4.470  16.724  0.00  0.00    +0.000 A 
ATOM     36  N   UNL     1       3.566   4.723  17.687  0.00  0.00    +0.000 NA
ENDBRANCH  29  30
ENDBRANCH  28  29
ENDBRANCH   7  28
TORSDOF 8
ENDMDL
MODEL 6
REMARK VINA RESULT:      -8.7      1.331      1.902
REMARK  Name = 
REMARK  10 active torsions:
REMARK  status: ('A' for Active; 'I' for Inactive)
REMARK    1  A    between atoms: C_1  and  C_2
REMARK    2  A    between atoms: C_5  and  C_6
REMARK    3  A    between atoms: C_6  and  N_7
REMARK    4  A    between atoms: C_8  and  C_9
REMARK    5  A    between atoms: C_14  and  C_15
REMARK    6  A    between atoms: C_15  and  O_17
REMARK    7  A    between atoms: C_22  and  O_23
REMARK    8  A    between atoms: O_23  and  C_24
REMARK    9  A    between atoms: C_24  and  C_25
REMARK   10  A    between atoms: C_28  and  C_29
REMARK                            x       y       z     vdW  Elec       q    Type
REMARK                         _______ _______ _______ _____ _____    ______ ____
ROOT
ATOM      1  N   UNL     1       4.276   5.596  18.350  0.00  0.00    +0.000 N 
ATOM      2  C   UNL     1       3.953   4.341  17.854  0.00  0.00    +0.000 A 
ATOM      3  N   UNL     1       4.823   3.980  16.918  0.00  0.00    +0.000 NA
ATOM      4  C   UNL     1       5.691   5.063  16.767  0.00  0.00    +0.000 A 
ATOM      5  C   UNL     1       6.844   5.260  15.967  0.00  0.00    +0.000 A 
ATOM      6  C   UNL     1       7.603   6.458  16.098  0.00  0.00    +0.000 A 
ATOM      7  C   UNL     1       7.213   7.445  16.996  0.00  0.00    +0.000 A 
ATOM      8  C   UNL     1       6.073   7.269  17.773  0.00  0.00    +0.000 A 
ATOM      9  C   UNL     1       5.346   6.082  17.634  0.00  0.00    +0.000 A 
ENDROOT
BRANCH   2  10
ATOM     10  C   UNL     1       2.831   3.545  18.480  0.00  0.00    +0.000 C 
ATOM     11  C   UNL     1       1.483   3.904  17.826  0.00  0.00    +0.000 C 
ATOM     12  C   UNL     1       0.349   3.466  18.748  0.00  0.00    +0.000 C 
ATOM     13  C   UNL     1       0.400   1.961  18.971  0.00  0.00    +0.000 C 
ATOM     14  C   UNL     1       1.778   1.495  19.447  0.00  0.00    +0.000 C 
ATOM     15  C   UNL     1       2.976   2.017  18.592  0.00  0.00    +0.000 C 
BRANCH  15  16
ATOM     16  C   UNL     1       4.262   1.581  19.290  0.00  0.00    +0.000 C 
ATOM     17  O   UNL     1       4.827   2.227  20.164  0.00  0.00    +0.000 OA
BRANCH  16  18
ATOM     18  O   UNL     1       4.730   0.376  18.914  0.00  0.00    +0.000 OA
ATOM     19  H   UNL     1       5.639   0.166  19.248  0.00  0.00    +0.000 HD
ENDBRANCH  16  18
ENDBRANCH  15  16
ENDBRANCH   2  10
BRANCH   1  20
ATOM     20  C   UNL     1       3.778   6.219  19.566  0.00  0.00    +0.000 C 
BRANCH  20  25
ATOM     21  C   UNL     1       0.106  10.629  18.530  0.00  0.00    +0.000 C 
ATOM     22  C   UNL     1       0.948   9.414  18.779  0.00  0.00    +0.000 A 
ATOM     23  C   UNL     1       1.023   8.861  20.054  0.00  0.00    +0.000 A 
ATOM     24  C   UNL     1       1.887   7.796  20.309  0.00  0.00    +0.000 A 
ATOM     25  C   UNL     1       2.709   7.263  19.301  0.00  0.00    +0.000 A 
ATOM     26  C   UNL     1       2.573   7.778  18.005  0.00  0.00    +0.000 A 
ATOM     27  C   UNL     1       1.716   8.856  17.751  0.00  0.00    +0.000 A 
ENDBRANCH  20  25
ENDBRANCH   1  20
BRANCH   7  28
ATOM     28  O   UNL     1       7.901   8.576  17.336  0.00  0.00    +0.000 OA
BRANCH  28  29
ATOM     29  C   UNL     1       8.558   8.639  18.601  0.00  0.00    +0.000 C 
BRANCH  29  30
ATOM     30  C   UNL     1       8.995  10.085  18.810  0.00  0.00    +0.000 A 
ATOM     31  C   UNL     1       9.571  10.477  20.019  0.00  0.00    +0.000 A 
ATOM     32  C   UNL     1       9.889  11.821  20.225  0.00  0.00    +0.000 A 
ATOM     33  C   UNL     1       9.627  12.751  19.222  0.00  0.00    +0.000 A 
ATOM     34  C   UNL     1       9.901  14.213  19.408  0.00  0.00    +0.000 C 
ATOM     35  C   UNL     1       9.082  12.272  18.037  0.00  0.00    +0.000 A 
ATOM     36  N   UNL     1       8.765  10.973  17.808  0.00  0.00    +0.000 NA
ENDBRANCH  29  30
ENDBRANCH  28  29
ENDBRANCH   7  28
TORSDOF 8
ENDMDL
MODEL 7
REMARK VINA RESULT:      -8.7      5.446      9.864
REMARK  Name = 
REMARK  10 active torsions:
REMARK  status: ('A' for Active; 'I' for Inactive)
REMARK    1  A    between atoms: C_1  and  C_2
REMARK    2  A    between atoms: C_5  and  C_6
REMARK    3  A    between atoms: C_6  and  N_7
REMARK    4  A    between atoms: C_8  and  C_9
REMARK    5  A    between atoms: C_14  and  C_15
REMARK    6  A    between atoms: C_15  and  O_17
REMARK    7  A    between atoms: C_22  and  O_23
REMARK    8  A    between atoms: O_23  and  C_24
REMARK    9  A    between atoms: C_24  and  C_25
REMARK   10  A    between atoms: C_28  and  C_29
REMARK                            x       y       z     vdW  Elec       q    Type
REMARK                         _______ _______ _______ _____ _____    ______ ____
ROOT
ATOM      1  N   UNL     1      -1.367  11.656  20.800  0.00  0.00    +0.000 N 
ATOM      2  C   UNL     1      -2.031  12.128  21.924  0.00  0.00    +0.000 A 
ATOM      3  N   UNL     1      -1.646  11.453  23.001  0.00  0.00    +0.000 NA
ATOM      4  C   UNL     1      -0.756  10.480  22.542  0.00  0.00    +0.000 A 
ATOM      5  C   UNL     1       0.020   9.502  23.213  0.00  0.00    +0.000 A 
ATOM      6  C   UNL     1       0.934   8.694  22.477  0.00  0.00    +0.000 A 
ATOM      7  C   UNL     1       1.062   8.848  21.101  0.00  0.00    +0.000 A 
ATOM      8  C   UNL     1       0.293   9.793  20.431  0.00  0.00    +0.000 A 
ATOM      9  C   UNL     1      -0.595  10.580  21.173  0.00  0.00    +0.000 A 
ENDROOT
BRANCH   2  10
ATOM     10  C   UNL     1      -2.931  13.337  21.820  0.00  0.00    +0.000 C 
ATOM     11  C   UNL     1      -4.410  12.911  21.799  0.00  0.00    +0.000 C 
ATOM     12  C   UNL     1      -5.251  14.054  21.238  0.00  0.00    +0.000 C 
ATOM     13  C   UNL     1      -5.111  15.292  22.113  0.00  0.00    +0.000 C 
ATOM     14  C   UNL     1      -3.646  15.675  22.339  0.00  0.00    +0.000 C 
ATOM     15  C   UNL     1      -2.728  14.502  22.806  0.00  0.00    +0.000 C 
BRANCH  15  16
ATOM     16  C   UNL     1      -1.294  15.025  22.837  0.00  0.00    +0.000 C 
ATOM     17  O   UNL     1      -0.504  14.824  23.751  0.00  0.00    +0.000 OA
BRANCH  16  18
ATOM     18  O   UNL     1      -0.914  15.704  21.737  0.00  0.00    +0.000 OA
ATOM     19  H   UNL     1      -1.004  15.197  20.890  0.00  0.00    +0.000 HD
ENDBRANCH  16  18
ENDBRANCH  15  16
ENDBRANCH   2  10
BRANCH   1  20
ATOM     20  C   UNL     1      -1.270  12.298  19.499  0.00  0.00    +0.000 C 
BRANCH  20  25
ATOM     21  C   UNL     1      -4.031   9.873  14.971  0.00  0.00    +0.000 C 
ATOM     22  C   UNL     1      -3.376  10.403  16.210  0.00  0.00    +0.000 A 
ATOM     23  C   UNL     1      -4.050  11.302  17.032  0.00  0.00    +0.000 A 
ATOM     24  C   UNL     1      -3.403  11.876  18.127  0.00  0.00    +0.000 A 
ATOM     25  C   UNL     1      -2.062  11.579  18.422  0.00  0.00    +0.000 A 
ATOM     26  C   UNL     1      -1.415  10.618  17.633  0.00  0.00    +0.000 A 
ATOM     27  C   UNL     1      -2.059  10.052  16.527  0.00  0.00    +0.000 A 
ENDBRANCH  20  25
ENDBRANCH   1  20
BRANCH   7  28
ATOM     28  O   UNL     1       1.981   8.255  20.282  0.00  0.00    +0.000 OA
BRANCH  28  29
ATOM     29  C   UNL     1       1.861   8.412  18.869  0.00  0.00    +0.000 C 
BRANCH  29  30
ATOM     30  C   UNL     1       2.625   7.264  18.221  0.00  0.00    +0.000 A 
ATOM     31  C   UNL     1       2.189   5.948  18.384  0.00  0.00    +0.000 A 
ATOM     32  C   UNL     1       2.947   4.902  17.854  0.00  0.00    +0.000 A 
ATOM     33  C   UNL     1       4.127   5.185  17.170  0.00  0.00    +0.000 A 
ATOM     34  C   UNL     1       5.005   4.100  16.625  0.00  0.00    +0.000 C 
ATOM     35  C   UNL     1       4.472   6.523  17.025  0.00  0.00    +0.000 A 
ATOM     36  N   UNL     1       3.756   7.559  17.527  0.00  0.00    +0.000 NA
ENDBRANCH  29  30
ENDBRANCH  28  29
ENDBRANCH   7  28
TORSDOF 8
ENDMDL
MODEL 8
REMARK VINA RESULT:      -8.6      5.620     10.475
REMARK  Name = 
REMARK  10 active torsions:
REMARK  status: ('A' for Active; 'I' for Inactive)
REMARK    1  A    between atoms: C_1  and  C_2
REMARK    2  A    between atoms: C_5  and  C_6
REMARK    3  A    between atoms: C_6  and  N_7
REMARK    4  A    between atoms: C_8  and  C_9
REMARK    5  A    between atoms: C_14  and  C_15
REMARK    6  A    between atoms: C_15  and  O_17
REMARK    7  A    between atoms: C_22  and  O_23
REMARK    8  A    between atoms: O_23  and  C_24
REMARK    9  A    between atoms: C_24  and  C_25
REMARK   10  A    between atoms: C_28  and  C_29
REMARK                            x       y       z     vdW  Elec       q    Type
REMARK                         _______ _______ _______ _____ _____    ______ ____
ROOT
ATOM      1  N   UNL     1      -1.452  11.750  21.087  0.00  0.00    +0.000 N 
ATOM      2  C   UNL     1      -1.800  12.143  22.371  0.00  0.00    +0.000 A 
ATOM      3  N   UNL     1      -1.157  11.403  23.267  0.00  0.00    +0.000 NA
ATOM      4  C   UNL     1      -0.424  10.468  22.534  0.00  0.00    +0.000 A 
ATOM      5  C   UNL     1       0.489   9.454  22.918  0.00  0.00    +0.000 A 
ATOM      6  C   UNL     1       1.176   8.703  21.922  0.00  0.00    +0.000 A 
ATOM      7  C   UNL     1       0.947   8.946  20.572  0.00  0.00    +0.000 A 
ATOM      8  C   UNL     1       0.040   9.927  20.184  0.00  0.00    +0.000 A 
ATOM      9  C   UNL     1      -0.619  10.657  21.179  0.00  0.00    +0.000 A 
ENDROOT
BRANCH   2  10
ATOM     10  C   UNL     1      -2.684  13.350  22.580  0.00  0.00    +0.000 C 
ATOM     11  C   UNL     1      -4.170  12.957  22.473  0.00  0.00    +0.000 C 
ATOM     12  C   UNL     1      -5.001  14.212  22.223  0.00  0.00    +0.000 C 
ATOM     13  C   UNL     1      -4.836  15.194  23.374  0.00  0.00    +0.000 C 
ATOM     14  C   UNL     1      -3.364  15.495  23.669  0.00  0.00    +0.000 C 
ATOM     15  C   UNL     1      -2.457  14.233  23.820  0.00  0.00    +0.000 C 
BRANCH  15  16
ATOM     16  C   UNL     1      -1.016  14.718  23.961  0.00  0.00    +0.000 C 
ATOM     17  O   UNL     1      -0.194  14.718  23.053  0.00  0.00    +0.000 OA
BRANCH  16  18
ATOM     18  O   UNL     1      -0.701  15.213  25.173  0.00  0.00    +0.000 OA
ATOM     19  H   UNL     1      -1.428  15.725  25.610  0.00  0.00    +0.000 HD
ENDBRANCH  16  18
ENDBRANCH  15  16
ENDBRANCH   2  10
BRANCH   1  20
ATOM     20  C   UNL     1      -1.685  12.475  19.849  0.00  0.00    +0.000 C 
BRANCH  20  25
ATOM     21  C   UNL     1       1.905  16.850  18.441  0.00  0.00    +0.000 C 
ATOM     22  C   UNL     1       1.042  15.723  18.920  0.00  0.00    +0.000 A 
ATOM     23  C   UNL     1       1.474  14.405  18.798  0.00  0.00    +0.000 A 
ATOM     24  C   UNL     1       0.628  13.352  19.147  0.00  0.00    +0.000 A 
ATOM     25  C   UNL     1      -0.676  13.585  19.613  0.00  0.00    +0.000 A 
ATOM     26  C   UNL     1      -1.077  14.915  19.801  0.00  0.00    +0.000 A 
ATOM     27  C   UNL     1      -0.234  15.972  19.439  0.00  0.00    +0.000 A 
ENDBRANCH  20  25
ENDBRANCH   1  20
BRANCH   7  28
ATOM     28  O   UNL     1       1.619   8.414  19.508  0.00  0.00    +0.000 OA
BRANCH  28  29
ATOM     29  C   UNL     1       2.674   7.481  19.744  0.00  0.00    +0.000 C 
BRANCH  29  30
ATOM     30  C   UNL     1       2.110   6.089  19.485  0.00  0.00    +0.000 A 
ATOM     31  C   UNL     1       1.615   5.324  20.542  0.00  0.00    +0.000 A 
ATOM     32  C   UNL     1       1.179   4.019  20.300  0.00  0.00    +0.000 A 
ATOM     33  C   UNL     1       1.246   3.499  19.010  0.00  0.00    +0.000 A 
ATOM     34  C   UNL     1       0.840   2.090  18.703  0.00  0.00    +0.000 C 
ATOM     35  C   UNL     1       1.722   4.339  18.010  0.00  0.00    +0.000 A 
ATOM     36  N   UNL     1       2.150   5.610  18.214  0.00  0.00    +0.000 NA
ENDBRANCH  29  30
ENDBRANCH  28  29
ENDBRANCH   7  28
TORSDOF 8
ENDMDL
MODEL 9
REMARK VINA RESULT:      -8.6      5.496      9.766
REMARK  Name = 
REMARK  10 active torsions:
REMARK  status: ('A' for Active; 'I' for Inactive)
REMARK    1  A    between atoms: C_1  and  C_2
REMARK    2  A    between atoms: C_5  and  C_6
REMARK    3  A    between atoms: C_6  and  N_7
REMARK    4  A    between atoms: C_8  and  C_9
REMARK    5  A    between atoms: C_14  and  C_15
REMARK    6  A    between atoms: C_15  and  O_17
REMARK    7  A    between atoms: C_22  and  O_23
REMARK    8  A    between atoms: O_23  and  C_24
REMARK    9  A    between atoms: C_24  and  C_25
REMARK   10  A    between atoms: C_28  and  C_29
REMARK                            x       y       z     vdW  Elec       q    Type
REMARK                         _______ _______ _______ _____ _____    ______ ____
ROOT
ATOM      1  N   UNL     1      -1.304  11.770  21.148  0.00  0.00    +0.000 N 
ATOM      2  C   UNL     1      -1.824  12.201  22.360  0.00  0.00    +0.000 A 
ATOM      3  N   UNL     1      -1.371  11.440  23.350  0.00  0.00    +0.000 NA
ATOM      4  C   UNL     1      -0.588  10.454  22.745  0.00  0.00    +0.000 A 
ATOM      5  C   UNL     1       0.194   9.397  23.272  0.00  0.00    +0.000 A 
ATOM      6  C   UNL     1       0.983   8.594  22.400  0.00  0.00    +0.000 A 
ATOM      7  C   UNL     1       0.980   8.829  21.030  0.00  0.00    +0.000 A 
ATOM      8  C   UNL     1       0.202   9.853  20.499  0.00  0.00    +0.000 A 
ATOM      9  C   UNL     1      -0.560  10.634  21.375  0.00  0.00    +0.000 A 
ENDROOT
BRANCH   2  10
ATOM     10  C   UNL     1      -2.659  13.458  22.422  0.00  0.00    +0.000 C 
ATOM     11  C   UNL     1      -4.145  13.133  22.180  0.00  0.00    +0.000 C 
ATOM     12  C   UNL     1      -4.878  14.412  21.788  0.00  0.00    +0.000 C 
ATOM     13  C   UNL     1      -4.778  15.442  22.905  0.00  0.00    +0.000 C 
ATOM     14  C   UNL     1      -3.330  15.685  23.337  0.00  0.00    +0.000 C 
ATOM     15  C   UNL     1      -2.511  14.391  23.638  0.00  0.00    +0.000 C 
BRANCH  15  16
ATOM     16  C   UNL     1      -1.068  14.812  23.905  0.00  0.00    +0.000 C 
ATOM     17  O   UNL     1      -0.188  14.844  23.054  0.00  0.00    +0.000 OA
BRANCH  16  18
ATOM     18  O   UNL     1      -0.819  15.210  25.167  0.00  0.00    +0.000 OA
ATOM     19  H   UNL     1      -1.568  15.067  25.799  0.00  0.00    +0.000 HD
ENDBRANCH  16  18
ENDBRANCH  15  16
ENDBRANCH   2  10
BRANCH   1  20
ATOM     20  C   UNL     1      -1.301  12.489  19.884  0.00  0.00    +0.000 C 
BRANCH  20  25
ATOM     21  C   UNL     1      -4.044  10.129  15.310  0.00  0.00    +0.000 C 
ATOM     22  C   UNL     1      -3.371  10.627  16.553  0.00  0.00    +0.000 A 
ATOM     23  C   UNL     1      -4.101  11.306  17.524  0.00  0.00    +0.000 A 
ATOM     24  C   UNL     1      -3.457  11.861  18.630  0.00  0.00    +0.000 A 
ATOM     25  C   UNL     1      -2.064  11.765  18.789  0.00  0.00    +0.000 A 
ATOM     26  C   UNL     1      -1.347  11.018  17.845  0.00  0.00    +0.000 A 
ATOM     27  C   UNL     1      -1.990  10.472  16.729  0.00  0.00    +0.000 A 
ENDBRANCH  20  25
ENDBRANCH   1  20
BRANCH   7  28
ATOM     28  O   UNL     1       1.778   8.245  20.086  0.00  0.00    +0.000 OA
BRANCH  28  29
ATOM     29  C   UNL     1       2.004   6.837  20.139  0.00  0.00    +0.000 C 
BRANCH  29  30
ATOM     30  C   UNL     1       3.099   6.518  19.127  0.00  0.00    +0.000 A 
ATOM     31  C   UNL     1       3.231   7.287  17.970  0.00  0.00    +0.000 A 
ATOM     32  C   UNL     1       4.185   6.930  17.014  0.00  0.00    +0.000 A 
ATOM     33  C   UNL     1       4.989   5.813  17.227  0.00  0.00    +0.000 A 
ATOM     34  C   UNL     1       5.993   5.356  16.213  0.00  0.00    +0.000 C 
ATOM     35  C   UNL     1       4.814   5.122  18.419  0.00  0.00    +0.000 A 
ATOM     36  N   UNL     1       3.898   5.445  19.367  0.00  0.00    +0.000 NA
ENDBRANCH  29  30
ENDBRANCH  28  29
ENDBRANCH   7  28
TORSDOF 8
ENDMDL
