MODEL 1
REMARK VINA RESULT:      -8.5      0.000      0.000
REMARK  Name = 
REMARK  7 active torsions:
REMARK  status: ('A' for Active; 'I' for Inactive)
REMARK    1  A    between atoms: C_1  and  C_2
REMARK    2  A    between atoms: C_2  and  O_3
REMARK    3  A    between atoms: O_3  and  C_4
REMARK    4  A    between atoms: C_4  and  C_6
REMARK    5  A    between atoms: C_6  and  C_7
REMARK    6  A    between atoms: C_7  and  C_8
REMARK    7  A    between atoms: N_19  and  C_20
REMARK                            x       y       z     vdW  Elec       q    Type
REMARK                         _______ _______ _______ _____ _____    ______ ____
ROOT
ATOM      1  C   UNL     1       5.494   5.477  18.515  0.00  0.00    +0.000 C 
ATOM      2  C   UNL     1       5.214   6.595  17.478  0.00  0.00    +0.000 C 
ATOM      3  C   UNL     1       6.434   7.302  16.887  0.00  0.00    +0.000 C 
ATOM      4  N   UNL     1       7.481   7.535  17.861  0.00  0.00    +0.000 N 
ATOM      5  C   UNL     1       7.903   8.852  18.081  0.00  0.00    +0.000 C 
ATOM      6  O   UNL     1       7.361   9.781  17.484  0.00  0.00    +0.000 OA
ATOM      7  N   UNL     1       8.957   9.025  18.956  0.00  0.00    +0.000 N 
ATOM      8  C   UNL     1       7.961   6.306  18.485  0.00  0.00    +0.000 C 
ATOM      9  C   UNL     1       6.834   5.659  19.285  0.00  0.00    +0.000 C 
ATOM     10  H   UNL     1       9.506   8.212  19.175  0.00  0.00    +0.000 HD
ENDROOT
BRANCH   7  11
ATOM     11  C   UNL     1       9.526  10.267  19.355  0.00  0.00    +0.000 A 
ATOM     12  C   UNL     1       9.354  10.824  20.638  0.00  0.00    +0.000 A 
ATOM     13  C   UNL     1       9.893  12.070  20.976  0.00  0.00    +0.000 A 
ATOM     14  C   UNL     1      10.604  12.743  20.012  0.00  0.00    +0.000 A 
ATOM     15  C   UNL     1      10.808  12.203  18.765  0.00  0.00    +0.000 A 
ATOM     16  C   UNL     1      10.299  10.968  18.409  0.00  0.00    +0.000 A 
ATOM     17  O   UNL     1      11.536  13.030  17.963  0.00  0.00    +0.000 OA
ATOM     18  C   UNL     1      11.694  14.178  18.826  0.00  0.00    +0.000 C 
ATOM     19  O   UNL     1      11.171  13.970  20.153  0.00  0.00    +0.000 OA
ENDBRANCH   7  11
BRANCH   1  20
ATOM     20  C   UNL     1       5.549   4.141  17.724  0.00  0.00    +0.000 C 
ATOM     21  O   UNL     1       4.916   3.133  18.005  0.00  0.00    +0.000 OA
BRANCH  20  22
ATOM     22  O   UNL     1       6.418   4.241  16.672  0.00  0.00    +0.000 OA
BRANCH  22  24
ATOM     23  C   UNL     1       6.653   4.563  14.264  0.00  0.00    +0.000 C 
ATOM     24  C   UNL     1       5.974   3.790  15.380  0.00  0.00    +0.000 C 
ENDBRANCH  22  24
ENDBRANCH  20  22
ENDBRANCH   1  20
BRANCH   1  25
ATOM     25  C   UNL     1       4.304   5.339  19.545  0.00  0.00    +0.000 C 
BRANCH  25  26
ATOM     26  C   UNL     1       2.879   5.807  19.132  0.00  0.00    +0.000 C 
ATOM     27  C   UNL     1       1.906   5.890  20.309  0.00  0.00    +0.000 C 
ATOM     28  C   UNL     1       1.442   4.517  20.758  0.00  0.00    +0.000 C 
ATOM     29  C   UNL     1       0.837   3.756  19.595  0.00  0.00    +0.000 C 
ATOM     30  C   UNL     1       1.623   3.873  18.294  0.00  0.00    +0.000 C 
ATOM     31  O   UNL     1       2.288   5.109  18.045  0.00  0.00    +0.000 OA
ENDBRANCH  25  26
ENDBRANCH   1  25
TORSDOF 6
ENDMDL
MODEL 2
REMARK VINA RESULT:      -8.2      0.968      1.723
REMARK  Name = 
REMARK  7 active torsions:
REMARK  status: ('A' for Active; 'I' for Inactive)
REMARK    1  A    between atoms: C_1  and  C_2
REMARK    2  A    between atoms: C_2  and  O_3
REMARK    3  A    between atoms: O_3  and  C_4
REMARK    4  A    between atoms: C_4  and  C_6
REMARK    5  A    between atoms: C_6  and  C_7
REMARK    6  A    between atoms: C_7  and  C_8
REMARK    7  A    between atoms: N_19  and  C_20
REMARK                            x       y       z     vdW  Elec       q    Type
REMARK                         _______ _______ _______ _____ _____    ______ ____
ROOT
ATOM      1  C   UNL     1       5.275   5.433  18.683  0.00  0.00    +0.000 C 
ATOM      2  C   UNL     1       5.039   6.450  17.538  0.00  0.00    +0.000 C 
ATOM      3  C   UNL     1       6.284   7.054  16.890  0.00  0.00    +0.000 C 
ATOM      4  N   UNL     1       7.333   7.348  17.846  0.00  0.00    +0.000 N 
ATOM      5  C   UNL     1       7.799   8.666  17.937  0.00  0.00    +0.000 C 
ATOM      6  O   UNL     1       7.291   9.548  17.246  0.00  0.00    +0.000 OA
ATOM      7  N   UNL     1       8.854   8.890  18.800  0.00  0.00    +0.000 N 
ATOM      8  C   UNL     1       7.768   6.172  18.593  0.00  0.00    +0.000 C 
ATOM      9  C   UNL     1       6.616   5.646  19.443  0.00  0.00    +0.000 C 
ATOM     10  H   UNL     1       9.374   8.086  19.103  0.00  0.00    +0.000 HD
ENDROOT
BRANCH   7  11
ATOM     11  C   UNL     1       9.462  10.146  19.078  0.00  0.00    +0.000 A 
ATOM     12  C   UNL     1       9.492  10.728  20.361  0.00  0.00    +0.000 A 
ATOM     13  C   UNL     1      10.061  11.986  20.584  0.00  0.00    +0.000 A 
ATOM     14  C   UNL     1      10.598  12.647  19.505  0.00  0.00    +0.000 A 
ATOM     15  C   UNL     1      10.605  12.083  18.252  0.00  0.00    +0.000 A 
ATOM     16  C   UNL     1      10.062  10.836  18.006  0.00  0.00    +0.000 A 
ATOM     17  O   UNL     1      11.182  12.901  17.328  0.00  0.00    +0.000 OA
ATOM     18  C   UNL     1      11.461  14.068  18.133  0.00  0.00    +0.000 C 
ATOM     19  O   UNL     1      11.163  13.883  19.531  0.00  0.00    +0.000 OA
ENDBRANCH   7  11
BRANCH   1  20
ATOM     20  C   UNL     1       5.289   4.023  18.030  0.00  0.00    +0.000 C 
ATOM     21  O   UNL     1       5.135   3.802  16.837  0.00  0.00    +0.000 OA
BRANCH  20  22
ATOM     22  O   UNL     1       5.485   3.056  18.977  0.00  0.00    +0.000 OA
BRANCH  22  24
ATOM     23  C   UNL     1       4.315   1.924  20.796  0.00  0.00    +0.000 C 
ATOM     24  C   UNL     1       4.382   2.192  19.303  0.00  0.00    +0.000 C 
ENDBRANCH  22  24
ENDBRANCH  20  22
ENDBRANCH   1  20
BRANCH   1  25
ATOM     25  C   UNL     1       4.075   5.438  19.712  0.00  0.00    +0.000 C 
BRANCH  25  26
ATOM     26  C   UNL     1       2.643   5.781  19.211  0.00  0.00    +0.000 C 
ATOM     27  C   UNL     1       1.583   5.695  20.311  0.00  0.00    +0.000 C 
ATOM     28  C   UNL     1       1.236   4.257  20.652  0.00  0.00    +0.000 C 
ATOM     29  C   UNL     1       0.802   3.508  19.407  0.00  0.00    +0.000 C 
ATOM     30  C   UNL     1       1.665   3.781  18.181  0.00  0.00    +0.000 C 
ATOM     31  O   UNL     1       2.211   5.090  18.047  0.00  0.00    +0.000 OA
ENDBRANCH  25  26
ENDBRANCH   1  25
TORSDOF 6
ENDMDL
MODEL 3
REMARK VINA RESULT:      -7.8      1.132      2.154
REMARK  Name = 
REMARK  7 active torsions:
REMARK  status: ('A' for Active; 'I' for Inactive)
REMARK    1  A    between atoms: C_1  and  C_2
REMARK    2  A    between atoms: C_2  and  O_3
REMARK    3  A    between atoms: O_3  and  C_4
REMARK    4  A    between atoms: C_4  and  C_6
REMARK    5  A    between atoms: C_6  and  C_7
REMARK    6  A    between atoms: C_7  and  C_8
REMARK    7  A    between atoms: N_19  and  C_20
REMARK                            x       y       z     vdW  Elec       q    Type
REMARK                         _______ _______ _______ _____ _____    ______ ____
ROOT
ATOM      1  C   UNL     1       5.290   5.375  18.723  0.00  0.00    +0.000 C 
ATOM      2  C   UNL     1       5.035   6.343  17.539  0.00  0.00    +0.000 C 
ATOM      3  C   UNL     1       6.269   6.945  16.868  0.00  0.00    +0.000 C 
ATOM      4  N   UNL     1       7.313   7.295  17.811  0.00  0.00    +0.000 N 
ATOM      5  C   UNL     1       7.754   8.624  17.852  0.00  0.00    +0.000 C 
ATOM      6  O   UNL     1       7.230   9.469  17.128  0.00  0.00    +0.000 OA
ATOM      7  N   UNL     1       8.804   8.900  18.705  0.00  0.00    +0.000 N 
ATOM      8  C   UNL     1       7.770   6.157  18.602  0.00  0.00    +0.000 C 
ATOM      9  C   UNL     1       6.627   5.642  19.472  0.00  0.00    +0.000 C 
ATOM     10  H   UNL     1       9.339   8.118  19.038  0.00  0.00    +0.000 HD
ENDROOT
BRANCH   7  11
ATOM     11  C   UNL     1       9.389  10.177  18.934  0.00  0.00    +0.000 A 
ATOM     12  C   UNL     1      10.238  10.820  18.011  0.00  0.00    +0.000 A 
ATOM     13  C   UNL     1      10.829  12.056  18.294  0.00  0.00    +0.000 A 
ATOM     14  C   UNL     1      10.555  12.634  19.510  0.00  0.00    +0.000 A 
ATOM     15  C   UNL     1       9.706  12.037  20.411  0.00  0.00    +0.000 A 
ATOM     16  C   UNL     1       9.098  10.823  20.152  0.00  0.00    +0.000 A 
ATOM     17  O   UNL     1       9.571  12.773  21.550  0.00  0.00    +0.000 OA
ATOM     18  C   UNL     1      10.493  13.854  21.287  0.00  0.00    +0.000 C 
ATOM     19  O   UNL     1      11.061  13.811  19.963  0.00  0.00    +0.000 OA
ENDBRANCH   7  11
BRANCH   1  20
ATOM     20  C   UNL     1       5.331   3.942  18.123  0.00  0.00    +0.000 C 
ATOM     21  O   UNL     1       5.213   3.676  16.935  0.00  0.00    +0.000 OA
BRANCH  20  22
ATOM     22  O   UNL     1       5.504   3.013  19.112  0.00  0.00    +0.000 OA
BRANCH  22  24
ATOM     23  C   UNL     1       4.410   1.736  20.881  0.00  0.00    +0.000 C 
ATOM     24  C   UNL     1       4.408   2.133  19.416  0.00  0.00    +0.000 C 
ENDBRANCH  22  24
ENDBRANCH  20  22
ENDBRANCH   1  20
BRANCH   1  25
ATOM     25  C   UNL     1       4.091   5.397  19.751  0.00  0.00    +0.000 C 
BRANCH  25  26
ATOM     26  C   UNL     1       2.662   5.749  19.248  0.00  0.00    +0.000 C 
ATOM     27  C   UNL     1       1.597   5.655  20.343  0.00  0.00    +0.000 C 
ATOM     28  C   UNL     1       1.244   4.215  20.667  0.00  0.00    +0.000 C 
ATOM     29  C   UNL     1       0.814   3.480  19.413  0.00  0.00    +0.000 C 
ATOM     30  C   UNL     1       1.682   3.763  18.193  0.00  0.00    +0.000 C 
ATOM     31  O   UNL     1       2.232   5.072  18.075  0.00  0.00    +0.000 OA
ENDBRANCH  25  26
ENDBRANCH   1  25
TORSDOF 6
ENDMDL
MODEL 4
REMARK VINA RESULT:      -7.7      0.733      1.349
REMARK  Name = 
REMARK  7 active torsions:
REMARK  status: ('A' for Active; 'I' for Inactive)
REMARK    1  A    between atoms: C_1  and  C_2
REMARK    2  A    between atoms: C_2  and  O_3
REMARK    3  A    between atoms: O_3  and  C_4
REMARK    4  A    between atoms: C_4  and  C_6
REMARK    5  A    between atoms: C_6  and  C_7
REMARK    6  A    between atoms: C_7  and  C_8
REMARK    7  A    between atoms: N_19  and  C_20
REMARK                            x       y       z     vdW  Elec       q    Type
REMARK                         _______ _______ _______ _____ _____    ______ ____
ROOT
ATOM      1  C   UNL     1       5.240   5.478  18.626  0.00  0.00    +0.000 C 
ATOM      2  C   UNL     1       4.925   6.502  17.506  0.00  0.00    +0.000 C 
ATOM      3  C   UNL     1       6.124   7.136  16.801  0.00  0.00    +0.000 C 
ATOM      4  N   UNL     1       7.216   7.440  17.703  0.00  0.00    +0.000 N 
ATOM      5  C   UNL     1       7.661   8.766  17.786  0.00  0.00    +0.000 C 
ATOM      6  O   UNL     1       7.102   9.645  17.132  0.00  0.00    +0.000 OA
ATOM      7  N   UNL     1       8.756   9.001  18.595  0.00  0.00    +0.000 N 
ATOM      8  C   UNL     1       7.711   6.265  18.414  0.00  0.00    +0.000 C 
ATOM      9  C   UNL     1       6.615   5.708  19.317  0.00  0.00    +0.000 C 
ATOM     10  H   UNL     1       9.306   8.204  18.861  0.00  0.00    +0.000 HD
ENDROOT
BRANCH   7  11
ATOM     11  C   UNL     1       9.355  10.265  18.855  0.00  0.00    +0.000 A 
ATOM     12  C   UNL     1      10.221  10.915  17.953  0.00  0.00    +0.000 A 
ATOM     13  C   UNL     1      10.825  12.137  18.265  0.00  0.00    +0.000 A 
ATOM     14  C   UNL     1      10.546  12.695  19.490  0.00  0.00    +0.000 A 
ATOM     15  C   UNL     1       9.681  12.092  20.371  0.00  0.00    +0.000 A 
ATOM     16  C   UNL     1       9.060  10.891  20.082  0.00  0.00    +0.000 A 
ATOM     17  O   UNL     1       9.544  12.807  21.522  0.00  0.00    +0.000 OA
ATOM     18  C   UNL     1      10.482  13.881  21.290  0.00  0.00    +0.000 C 
ATOM     19  O   UNL     1      11.063  13.856  19.971  0.00  0.00    +0.000 OA
ENDBRANCH   7  11
BRANCH   1  20
ATOM     20  C   UNL     1       5.246   4.076  17.957  0.00  0.00    +0.000 C 
ATOM     21  O   UNL     1       5.439   3.020  18.543  0.00  0.00    +0.000 OA
BRANCH  20  22
ATOM     22  O   UNL     1       5.019   4.184  16.612  0.00  0.00    +0.000 OA
BRANCH  22  24
ATOM     23  C   UNL     1       6.856   4.464  15.029  0.00  0.00    +0.000 C 
ATOM     24  C   UNL     1       5.909   3.496  15.715  0.00  0.00    +0.000 C 
ENDBRANCH  22  24
ENDBRANCH  20  22
ENDBRANCH   1  20
BRANCH   1  25
ATOM     25  C   UNL     1       4.097   5.449  19.716  0.00  0.00    +0.000 C 
BRANCH  25  26
ATOM     26  C   UNL     1       2.627   5.723  19.287  0.00  0.00    +0.000 C 
ATOM     27  C   UNL     1       1.631   5.617  20.443  0.00  0.00    +0.000 C 
ATOM     28  C   UNL     1       1.363   4.173  20.829  0.00  0.00    +0.000 C 
ATOM     29  C   UNL     1       0.896   3.381  19.624  0.00  0.00    +0.000 C 
ATOM     30  C   UNL     1       1.680   3.663  18.348  0.00  0.00    +0.000 C 
ATOM     31  O   UNL     1       2.163   4.990  18.161  0.00  0.00    +0.000 OA
ENDBRANCH  25  26
ENDBRANCH   1  25
TORSDOF 6
ENDMDL
MODEL 5
REMARK VINA RESULT:      -7.7      5.735      9.710
REMARK  Name = 
REMARK  7 active torsions:
REMARK  status: ('A' for Active; 'I' for Inactive)
REMARK    1  A    between atoms: C_1  and  C_2
REMARK    2  A    between atoms: C_2  and  O_3
REMARK    3  A    between atoms: O_3  and  C_4
REMARK    4  A    between atoms: C_4  and  C_6
REMARK    5  A    between atoms: C_6  and  C_7
REMARK    6  A    between atoms: C_7  and  C_8
REMARK    7  A    between atoms: N_19  and  C_20
REMARK                            x       y       z     vdW  Elec       q    Type
REMARK                         _______ _______ _______ _____ _____    ______ ____
ROOT
ATOM      1  C   UNL     1      -0.363  10.505  19.456  0.00  0.00    +0.000 C 
ATOM      2  C   UNL     1      -0.168   9.791  20.818  0.00  0.00    +0.000 C 
ATOM      3  C   UNL     1       1.171   9.087  21.037  0.00  0.00    +0.000 C 
ATOM      4  N   UNL     1       1.659   8.416  19.849  0.00  0.00    +0.000 N 
ATOM      5  C   UNL     1       1.908   7.039  19.918  0.00  0.00    +0.000 C 
ATOM      6  O   UNL     1       1.674   6.422  20.956  0.00  0.00    +0.000 OA
ATOM      7  N   UNL     1       2.449   6.452  18.791  0.00  0.00    +0.000 N 
ATOM      8  C   UNL     1       1.832   9.319  18.715  0.00  0.00    +0.000 C 
ATOM      9  C   UNL     1       0.480   9.891  18.301  0.00  0.00    +0.000 C 
ATOM     10  H   UNL     1       2.857   7.065  18.109  0.00  0.00    +0.000 HD
ENDROOT
BRANCH   7  11
ATOM     11  C   UNL     1       2.749   5.071  18.623  0.00  0.00    +0.000 A 
ATOM     12  C   UNL     1       2.075   4.235  17.710  0.00  0.00    +0.000 A 
ATOM     13  C   UNL     1       2.370   2.872  17.607  0.00  0.00    +0.000 A 
ATOM     14  C   UNL     1       3.347   2.364  18.429  0.00  0.00    +0.000 A 
ATOM     15  C   UNL     1       4.036   3.169  19.305  0.00  0.00    +0.000 A 
ATOM     16  C   UNL     1       3.774   4.521  19.417  0.00  0.00    +0.000 A 
ATOM     17  O   UNL     1       4.958   2.469  20.023  0.00  0.00    +0.000 OA
ATOM     18  C   UNL     1       4.710   1.126  19.553  0.00  0.00    +0.000 C 
ATOM     19  O   UNL     1       3.742   1.064  18.486  0.00  0.00    +0.000 OA
ENDBRANCH   7  11
BRANCH   1  20
ATOM     20  C   UNL     1       0.073  11.982  19.662  0.00  0.00    +0.000 C 
ATOM     21  O   UNL     1      -0.128  12.637  20.675  0.00  0.00    +0.000 OA
BRANCH  20  22
ATOM     22  O   UNL     1       0.703  12.457  18.545  0.00  0.00    +0.000 OA
BRANCH  22  24
ATOM     23  C   UNL     1       3.022  13.154  18.237  0.00  0.00    +0.000 C 
ATOM     24  C   UNL     1       1.631  13.546  18.701  0.00  0.00    +0.000 C 
ENDBRANCH  22  24
ENDBRANCH  20  22
ENDBRANCH   1  20
BRANCH   1  25
ATOM     25  C   UNL     1      -1.887  10.541  19.040  0.00  0.00    +0.000 C 
BRANCH  25  26
ATOM     26  C   UNL     1      -2.412  11.719  18.171  0.00  0.00    +0.000 C 
ATOM     27  C   UNL     1      -3.929  11.902  18.256  0.00  0.00    +0.000 C 
ATOM     28  C   UNL     1      -4.673  10.844  17.462  0.00  0.00    +0.000 C 
ATOM     29  C   UNL     1      -4.198  10.830  16.023  0.00  0.00    +0.000 C 
ATOM     30  C   UNL     1      -2.686  10.937  15.861  0.00  0.00    +0.000 C 
ATOM     31  O   UNL     1      -1.984  11.729  16.816  0.00  0.00    +0.000 OA
ENDBRANCH  25  26
ENDBRANCH   1  25
TORSDOF 6
ENDMDL
MODEL 6
REMARK VINA RESULT:      -7.5      6.039      9.860
REMARK  Name = 
REMARK  7 active torsions:
REMARK  status: ('A' for Active; 'I' for Inactive)
REMARK    1  A    between atoms: C_1  and  C_2
REMARK    2  A    between atoms: C_2  and  O_3
REMARK    3  A    between atoms: O_3  and  C_4
REMARK    4  A    between atoms: C_4  and  C_6
REMARK    5  A    between atoms: C_6  and  C_7
REMARK    6  A    between atoms: C_7  and  C_8
REMARK    7  A    between atoms: N_19  and  C_20
REMARK                            x       y       z     vdW  Elec       q    Type
REMARK                         _______ _______ _______ _____ _____    ______ ____
ROOT
ATOM      1  C   UNL     1      -0.158  11.326  19.289  0.00  0.00    +0.000 C 
ATOM      2  C   UNL     1      -0.353  10.512  20.593  0.00  0.00    +0.000 C 
ATOM      3  C   UNL     1       0.835   9.671  21.061  0.00  0.00    +0.000 C 
ATOM      4  N   UNL     1       1.542   9.034  19.969  0.00  0.00    +0.000 N 
ATOM      5  C   UNL     1       1.659   7.637  19.978  0.00  0.00    +0.000 C 
ATOM      6  O   UNL     1       1.134   6.981  20.876  0.00  0.00    +0.000 OA
ATOM      7  N   UNL     1       2.409   7.074  18.964  0.00  0.00    +0.000 N 
ATOM      8  C   UNL     1       2.053   9.986  18.988  0.00  0.00    +0.000 C 
ATOM      9  C   UNL     1       0.890  10.710  18.317  0.00  0.00    +0.000 C 
ATOM     10  H   UNL     1       3.017   7.688  18.451  0.00  0.00    +0.000 HD
ENDROOT
BRANCH   7  11
ATOM     11  C   UNL     1       2.633   5.684  18.755  0.00  0.00    +0.000 A 
ATOM     12  C   UNL     1       1.831   4.885  17.917  0.00  0.00    +0.000 A 
ATOM     13  C   UNL     1       2.057   3.513  17.773  0.00  0.00    +0.000 A 
ATOM     14  C   UNL     1       3.097   2.958  18.480  0.00  0.00    +0.000 A 
ATOM     15  C   UNL     1       3.909   3.725  19.279  0.00  0.00    +0.000 A 
ATOM     16  C   UNL     1       3.716   5.086  19.428  0.00  0.00    +0.000 A 
ATOM     17  O   UNL     1       4.876   2.983  19.888  0.00  0.00    +0.000 OA
ATOM     18  C   UNL     1       4.524   1.655  19.438  0.00  0.00    +0.000 C 
ATOM     19  O   UNL     1       3.443   1.643  18.484  0.00  0.00    +0.000 OA
ENDBRANCH   7  11
BRANCH   1  20
ATOM     20  C   UNL     1       0.329  12.739  19.716  0.00  0.00    +0.000 C 
ATOM     21  O   UNL     1       0.602  13.069  20.862  0.00  0.00    +0.000 OA
BRANCH  20  22
ATOM     22  O   UNL     1       0.397  13.571  18.633  0.00  0.00    +0.000 OA
BRANCH  22  24
ATOM     23  C   UNL     1       1.208  15.864  18.837  0.00  0.00    +0.000 C 
ATOM     24  C   UNL     1       0.001  14.944  18.806  0.00  0.00    +0.000 C 
ENDBRANCH  22  24
ENDBRANCH  20  22
ENDBRANCH   1  20
BRANCH   1  25
ATOM     25  C   UNL     1      -1.528  11.534  18.531  0.00  0.00    +0.000 C 
BRANCH  25  26
ATOM     26  C   UNL     1      -2.352  10.290  18.091  0.00  0.00    +0.000 C 
ATOM     27  C   UNL     1      -2.030   9.826  16.669  0.00  0.00    +0.000 C 
ATOM     28  C   UNL     1      -2.645  10.738  15.623  0.00  0.00    +0.000 C 
ATOM     29  C   UNL     1      -4.140  10.859  15.839  0.00  0.00    +0.000 C 
ATOM     30  C   UNL     1      -4.549  11.038  17.296  0.00  0.00    +0.000 C 
ATOM     31  O   UNL     1      -3.758  10.379  18.280  0.00  0.00    +0.000 OA
ENDBRANCH  25  26
ENDBRANCH   1  25
TORSDOF 6
ENDMDL
MODEL 7
REMARK VINA RESULT:      -7.4      5.615      9.286
REMARK  Name = 
REMARK  7 active torsions:
REMARK  status: ('A' for Active; 'I' for Inactive)
REMARK    1  A    between atoms: C_1  and  C_2
REMARK    2  A    between atoms: C_2  and  O_3
REMARK    3  A    between atoms: O_3  and  C_4
REMARK    4  A    between atoms: C_4  and  C_6
REMARK    5  A    between atoms: C_6  and  C_7
REMARK    6  A    between atoms: C_7  and  C_8
REMARK    7  A    between atoms: N_19  and  C_20
REMARK                            x       y       z     vdW  Elec       q    Type
REMARK                         _______ _______ _______ _____ _____    ______ ____
ROOT
ATOM      1  C   UNL     1      -0.486  10.347  19.701  0.00  0.00    +0.000 C 
ATOM      2  C   UNL     1      -0.288   9.146  20.660  0.00  0.00    +0.000 C 
ATOM      3  C   UNL     1       1.142   8.633  20.830  0.00  0.00    +0.000 C 
ATOM      4  N   UNL     1       1.895   8.637  19.593  0.00  0.00    +0.000 N 
ATOM      5  C   UNL     1       2.436   7.426  19.139  0.00  0.00    +0.000 C 
ATOM      6  O   UNL     1       2.232   6.388  19.766  0.00  0.00    +0.000 OA
ATOM      7  N   UNL     1       3.215   7.485  18.001  0.00  0.00    +0.000 N 
ATOM      8  C   UNL     1       1.987   9.961  18.986  0.00  0.00    +0.000 C 
ATOM      9  C   UNL     1       0.596  10.442  18.586  0.00  0.00    +0.000 C 
ATOM     10  H   UNL     1       3.549   8.391  17.723  0.00  0.00    +0.000 HD
ENDROOT
BRANCH   7  11
ATOM     11  C   UNL     1       3.832   6.383  17.344  0.00  0.00    +0.000 A 
ATOM     12  C   UNL     1       3.501   5.039  17.606  0.00  0.00    +0.000 A 
ATOM     13  C   UNL     1       4.163   3.983  16.971  0.00  0.00    +0.000 A 
ATOM     14  C   UNL     1       5.156   4.296  16.075  0.00  0.00    +0.000 A 
ATOM     15  C   UNL     1       5.473   5.601  15.784  0.00  0.00    +0.000 A 
ATOM     16  C   UNL     1       4.826   6.663  16.386  0.00  0.00    +0.000 A 
ATOM     17  O   UNL     1       6.482   5.690  14.873  0.00  0.00    +0.000 OA
ATOM     18  C   UNL     1       6.809   4.295  14.689  0.00  0.00    +0.000 C 
ATOM     19  O   UNL     1       5.920   3.403  15.391  0.00  0.00    +0.000 OA
ENDBRANCH   7  11
BRANCH   1  20
ATOM     20  C   UNL     1      -0.415  11.630  20.575  0.00  0.00    +0.000 C 
ATOM     21  O   UNL     1       0.289  12.602  20.338  0.00  0.00    +0.000 OA
BRANCH  20  22
ATOM     22  O   UNL     1      -1.243  11.519  21.658  0.00  0.00    +0.000 OA
BRANCH  22  24
ATOM     23  C   UNL     1      -3.362  12.529  22.328  0.00  0.00    +0.000 C 
ATOM     24  C   UNL     1      -1.864  12.715  22.163  0.00  0.00    +0.000 C 
ENDBRANCH  22  24
ENDBRANCH  20  22
ENDBRANCH   1  20
BRANCH   1  25
ATOM     25  C   UNL     1      -1.924  10.329  19.046  0.00  0.00    +0.000 C 
BRANCH  25  26
ATOM     26  C   UNL     1      -2.454  11.607  18.336  0.00  0.00    +0.000 C 
ATOM     27  C   UNL     1      -3.940  11.866  18.592  0.00  0.00    +0.000 C 
ATOM     28  C   UNL     1      -4.825  10.925  17.794  0.00  0.00    +0.000 C 
ATOM     29  C   UNL     1      -4.495  11.014  16.317  0.00  0.00    +0.000 C 
ATOM     30  C   UNL     1      -3.002  11.051  16.011  0.00  0.00    +0.000 C 
ATOM     31  O   UNL     1      -2.161  11.714  16.950  0.00  0.00    +0.000 OA
ENDBRANCH  25  26
ENDBRANCH   1  25
TORSDOF 6
ENDMDL
MODEL 8
REMARK VINA RESULT:      -7.4      1.288      1.927
REMARK  Name = 
REMARK  7 active torsions:
REMARK  status: ('A' for Active; 'I' for Inactive)
REMARK    1  A    between atoms: C_1  and  C_2
REMARK    2  A    between atoms: C_2  and  O_3
REMARK    3  A    between atoms: O_3  and  C_4
REMARK    4  A    between atoms: C_4  and  C_6
REMARK    5  A    between atoms: C_6  and  C_7
REMARK    6  A    between atoms: C_7  and  C_8
REMARK    7  A    between atoms: N_19  and  C_20
REMARK                            x       y       z     vdW  Elec       q    Type
REMARK                         _______ _______ _______ _____ _____    ______ ____
ROOT
ATOM      1  C   UNL     1       6.333   5.779  18.369  0.00  0.00    +0.000 C 
ATOM      2  C   UNL     1       6.134   6.890  17.305  0.00  0.00    +0.000 C 
ATOM      3  C   UNL     1       7.355   7.747  16.974  0.00  0.00    +0.000 C 
ATOM      4  N   UNL     1       8.157   8.065  18.137  0.00  0.00    +0.000 N 
ATOM      5  C   UNL     1       8.373   9.415  18.447  0.00  0.00    +0.000 C 
ATOM      6  O   UNL     1       7.854  10.295  17.762  0.00  0.00    +0.000 OA
ATOM      7  N   UNL     1       9.208   9.678  19.515  0.00  0.00    +0.000 N 
ATOM      8  C   UNL     1       8.645   6.880  18.835  0.00  0.00    +0.000 C 
ATOM      9  C   UNL     1       7.467   6.086  19.390  0.00  0.00    +0.000 C 
ATOM     10  H   UNL     1       9.794   8.926  19.831  0.00  0.00    +0.000 HD
ENDROOT
BRANCH   7  11
ATOM     11  C   UNL     1       9.540  10.963  20.028  0.00  0.00    +0.000 A 
ATOM     12  C   UNL     1      10.610  11.740  19.543  0.00  0.00    +0.000 A 
ATOM     13  C   UNL     1      10.932  12.980  20.105  0.00  0.00    +0.000 A 
ATOM     14  C   UNL     1      10.165  13.426  21.155  0.00  0.00    +0.000 A 
ATOM     15  C   UNL     1       9.099  12.696  21.622  0.00  0.00    +0.000 A 
ATOM     16  C   UNL     1       8.751  11.475  21.077  0.00  0.00    +0.000 A 
ATOM     17  O   UNL     1       8.474  13.314  22.663  0.00  0.00    +0.000 OA
ATOM     18  C   UNL     1       9.321  14.472  22.841  0.00  0.00    +0.000 C 
ATOM     19  O   UNL     1      10.350  14.586  21.838  0.00  0.00    +0.000 OA
ENDBRANCH   7  11
BRANCH   1  20
ATOM     20  C   UNL     1       6.697   4.483  17.594  0.00  0.00    +0.000 C 
ATOM     21  O   UNL     1       7.750   3.871  17.707  0.00  0.00    +0.000 OA
BRANCH  20  22
ATOM     22  O   UNL     1       5.679   4.124  16.753  0.00  0.00    +0.000 OA
BRANCH  22  24
ATOM     23  C   UNL     1       6.511   4.719  14.537  0.00  0.00    +0.000 C 
ATOM     24  C   UNL     1       6.021   3.612  15.453  0.00  0.00    +0.000 C 
ENDBRANCH  22  24
ENDBRANCH  20  22
ENDBRANCH   1  20
BRANCH   1  25
ATOM     25  C   UNL     1       4.989   5.477  19.142  0.00  0.00    +0.000 C 
BRANCH  25  26
ATOM     26  C   UNL     1       3.646   6.026  18.580  0.00  0.00    +0.000 C 
ATOM     27  C   UNL     1       2.656   6.433  19.673  0.00  0.00    +0.000 C 
ATOM     28  C   UNL     1       2.012   5.226  20.331  0.00  0.00    +0.000 C 
ATOM     29  C   UNL     1       1.353   4.344  19.289  0.00  0.00    +0.000 C 
ATOM     30  C   UNL     1       2.186   4.133  18.030  0.00  0.00    +0.000 C 
ATOM     31  O   UNL     1       3.006   5.217  17.603  0.00  0.00    +0.000 OA
ENDBRANCH  25  26
ENDBRANCH   1  25
TORSDOF 6
ENDMDL
MODEL 9
REMARK VINA RESULT:      -7.4      5.171      6.925
REMARK  Name = 
REMARK  7 active torsions:
REMARK  status: ('A' for Active; 'I' for Inactive)
REMARK    1  A    between atoms: C_1  and  C_2
REMARK    2  A    between atoms: C_2  and  O_3
REMARK    3  A    between atoms: O_3  and  C_4
REMARK    4  A    between atoms: C_4  and  C_6
REMARK    5  A    between atoms: C_6  and  C_7
REMARK    6  A    between atoms: C_7  and  C_8
REMARK    7  A    between atoms: N_19  and  C_20
REMARK                            x       y       z     vdW  Elec       q    Type
REMARK                         _______ _______ _______ _____ _____    ______ ____
ROOT
ATOM      1  C   UNL     1       2.713   6.545  18.822  0.00  0.00    +0.000 C 
ATOM      2  C   UNL     1       2.344   7.069  20.234  0.00  0.00    +0.000 C 
ATOM      3  C   UNL     1       1.206   8.085  20.311  0.00  0.00    +0.000 C 
ATOM      4  N   UNL     1       1.224   9.041  19.223  0.00  0.00    +0.000 N 
ATOM      5  C   UNL     1       1.306  10.404  19.537  0.00  0.00    +0.000 C 
ATOM      6  O   UNL     1       1.400  10.762  20.710  0.00  0.00    +0.000 OA
ATOM      7  N   UNL     1       1.240  11.287  18.477  0.00  0.00    +0.000 N 
ATOM      8  C   UNL     1       1.144   8.410  17.909  0.00  0.00    +0.000 C 
ATOM      9  C   UNL     1       2.377   7.544  17.677  0.00  0.00    +0.000 C 
ATOM     10  H   UNL     1       0.890  10.929  17.606  0.00  0.00    +0.000 HD
ENDROOT
BRANCH   7  11
ATOM     11  C   UNL     1       1.337  12.705  18.554  0.00  0.00    +0.000 A 
ATOM     12  C   UNL     1       0.262  13.538  18.919  0.00  0.00    +0.000 A 
ATOM     13  C   UNL     1       0.386  14.932  18.940  0.00  0.00    +0.000 A 
ATOM     14  C   UNL     1       1.600  15.472  18.591  0.00  0.00    +0.000 A 
ATOM     15  C   UNL     1       2.670  14.674  18.261  0.00  0.00    +0.000 A 
ATOM     16  C   UNL     1       2.579  13.295  18.246  0.00  0.00    +0.000 A 
ATOM     17  O   UNL     1       3.775  15.407  17.949  0.00  0.00    +0.000 OA
ATOM     18  C   UNL     1       3.250  16.749  18.046  0.00  0.00    +0.000 C 
ATOM     19  O   UNL     1       1.892  16.798  18.528  0.00  0.00    +0.000 OA
ENDBRANCH   7  11
BRANCH   1  20
ATOM     20  C   UNL     1       1.895   5.242  18.604  0.00  0.00    +0.000 C 
ATOM     21  O   UNL     1       1.569   4.793  17.514  0.00  0.00    +0.000 OA
BRANCH  20  22
ATOM     22  O   UNL     1       1.574   4.670  19.804  0.00  0.00    +0.000 OA
BRANCH  22  24
ATOM     23  C   UNL     1       1.872   3.003  21.562  0.00  0.00    +0.000 C 
ATOM     24  C   UNL     1       2.146   3.388  20.119  0.00  0.00    +0.000 C 
ENDBRANCH  22  24
ENDBRANCH  20  22
ENDBRANCH   1  20
BRANCH   1  25
ATOM     25  C   UNL     1       4.237   6.136  18.741  0.00  0.00    +0.000 C 
BRANCH  25  26
ATOM     26  C   UNL     1       5.048   6.469  17.457  0.00  0.00    +0.000 C 
ATOM     27  C   UNL     1       4.970   5.373  16.392  0.00  0.00    +0.000 C 
ATOM     28  C   UNL     1       5.827   4.173  16.752  0.00  0.00    +0.000 C 
ATOM     29  C   UNL     1       7.260   4.600  17.000  0.00  0.00    +0.000 C 
ATOM     30  C   UNL     1       7.399   5.872  17.828  0.00  0.00    +0.000 C 
ATOM     31  O   UNL     1       6.396   6.871  17.661  0.00  0.00    +0.000 OA
ENDBRANCH  25  26
ENDBRANCH   1  25
TORSDOF 6
ENDMDL
