MODEL 1
REMARK VINA RESULT:      -7.5      0.000      0.000
REMARK  Name = 
REMARK  7 active torsions:
REMARK  status: ('A' for Active; 'I' for Inactive)
REMARK    1  A    between atoms: C_1  and  C_2
REMARK    2  A    between atoms: C_2  and  C_3
REMARK    3  A    between atoms: C_2  and  O_4
REMARK    4  A    between atoms: O_4  and  C_5
REMARK    5  A    between atoms: C_5  and  C_7
REMARK    6  A    between atoms: C_8  and  C_9
REMARK    7  A    between atoms: C_12  and  C_13
REMARK                            x       y       z     vdW  Elec       q    Type
REMARK                         _______ _______ _______ _____ _____    ______ ____
ROOT
ATOM      1  C   UNL     1       4.022   4.587  17.950  0.00  0.00    +0.000 A 
ATOM      2  N   UNL     1       4.475   4.540  19.204  0.00  0.00    +0.000 NA
ATOM      3  N   UNL     1       3.906   5.644  19.721  0.00  0.00    +0.000 N 
ATOM      4  C   UNL     1       3.051   6.248  18.835  0.00  0.00    +0.000 A 
ATOM      5  N   UNL     1       3.090   5.558  17.709  0.00  0.00    +0.000 NA
ATOM      6  H   UNL     1       4.162   5.934  20.657  0.00  0.00    +0.000 HD
ENDROOT
BRANCH   4   7
ATOM      7  C   UNL     1       2.273   7.461  19.079  0.00  0.00    +0.000 A 
ATOM      8  C   UNL     1       2.062   8.358  18.017  0.00  0.00    +0.000 A 
ATOM      9  C   UNL     1       1.328   9.533  18.198  0.00  0.00    +0.000 A 
ATOM     10  C   UNL     1       0.798   9.832  19.449  0.00  0.00    +0.000 A 
ATOM     11  C   UNL     1       1.012   8.957  20.512  0.00  0.00    +0.000 A 
ATOM     12 CL   UNL     1       0.370   9.332  22.065  0.00  0.00    +0.000 Cl
ATOM     13  C   UNL     1       1.742   7.779  20.336  0.00  0.00    +0.000 A 
ENDBRANCH   4   7
BRANCH   1  15
ATOM     14  C   UNL     1       5.319   4.368  15.889  0.00  0.00    +0.000 C 
ATOM     15  C   UNL     1       4.517   3.857  16.839  0.00  0.00    +0.000 C 
BRANCH  14  16
ATOM     16  C   UNL     1       5.854   5.746  15.965  0.00  0.00    +0.000 C 
ATOM     17  O   UNL     1       5.300   6.749  15.540  0.00  0.00    +0.000 OA
BRANCH  16  18
ATOM     18  O   UNL     1       7.046   5.729  16.619  0.00  0.00    +0.000 OA
BRANCH  18  20
ATOM     19  C   UNL     1       7.775   5.767  18.931  0.00  0.00    +0.000 C 
ATOM     20  C   UNL     1       7.052   6.527  17.821  0.00  0.00    +0.000 C 
ATOM     21  C   UNL     1       7.750   7.847  17.530  0.00  0.00    +0.000 C 
ENDBRANCH  18  20
ENDBRANCH  16  18
ENDBRANCH  14  16
ENDBRANCH   1  15
TORSDOF 5
ENDMDL
MODEL 2
REMARK VINA RESULT:      -7.2      4.358      7.166
REMARK  Name = 
REMARK  7 active torsions:
REMARK  status: ('A' for Active; 'I' for Inactive)
REMARK    1  A    between atoms: C_1  and  C_2
REMARK    2  A    between atoms: C_2  and  C_3
REMARK    3  A    between atoms: C_2  and  O_4
REMARK    4  A    between atoms: O_4  and  C_5
REMARK    5  A    between atoms: C_5  and  C_7
REMARK    6  A    between atoms: C_8  and  C_9
REMARK    7  A    between atoms: C_12  and  C_13
REMARK                            x       y       z     vdW  Elec       q    Type
REMARK                         _______ _______ _______ _____ _____    ______ ____
ROOT
ATOM      1  C   UNL     1       5.008   5.504  17.616  0.00  0.00    +0.000 A 
ATOM      2  N   UNL     1       5.908   4.654  18.114  0.00  0.00    +0.000 NA
ATOM      3  N   UNL     1       6.470   4.188  16.985  0.00  0.00    +0.000 N 
ATOM      4  C   UNL     1       6.001   4.835  15.870  0.00  0.00    +0.000 A 
ATOM      5  N   UNL     1       5.090   5.706  16.265  0.00  0.00    +0.000 NA
ATOM      6  H   UNL     1       7.134   3.426  17.046  0.00  0.00    +0.000 HD
ENDROOT
BRANCH   4   7
ATOM      7  C   UNL     1       6.405   4.574  14.489  0.00  0.00    +0.000 A 
ATOM      8  C   UNL     1       7.442   5.340  13.929  0.00  0.00    +0.000 A 
ATOM      9  C   UNL     1       7.865   5.134  12.613  0.00  0.00    +0.000 A 
ATOM     10  C   UNL     1       7.250   4.157  11.835  0.00  0.00    +0.000 A 
ATOM     11  C   UNL     1       6.214   3.401  12.375  0.00  0.00    +0.000 A 
ATOM     12 CL   UNL     1       5.441   2.203  11.409  0.00  0.00    +0.000 Cl
ATOM     13  C   UNL     1       5.789   3.601  13.691  0.00  0.00    +0.000 A 
ENDBRANCH   4   7
BRANCH   1  15
ATOM     14  C   UNL     1       2.731   5.457  18.505  0.00  0.00    +0.000 C 
ATOM     15  C   UNL     1       3.907   6.077  18.303  0.00  0.00    +0.000 C 
BRANCH  14  16
ATOM     16  C   UNL     1       2.502   4.049  18.108  0.00  0.00    +0.000 C 
ATOM     17  O   UNL     1       2.132   3.672  17.006  0.00  0.00    +0.000 OA
BRANCH  16  18
ATOM     18  O   UNL     1       2.808   3.233  19.151  0.00  0.00    +0.000 OA
BRANCH  18  20
ATOM     19  C   UNL     1       0.592   3.081  20.126  0.00  0.00    +0.000 C 
ATOM     20  C   UNL     1       2.042   3.512  20.341  0.00  0.00    +0.000 C 
ATOM     21  C   UNL     1       2.658   2.757  21.510  0.00  0.00    +0.000 C 
ENDBRANCH  18  20
ENDBRANCH  16  18
ENDBRANCH  14  16
ENDBRANCH   1  15
TORSDOF 5
ENDMDL
MODEL 3
REMARK VINA RESULT:      -7.0      2.556      3.834
REMARK  Name = 
REMARK  7 active torsions:
REMARK  status: ('A' for Active; 'I' for Inactive)
REMARK    1  A    between atoms: C_1  and  C_2
REMARK    2  A    between atoms: C_2  and  C_3
REMARK    3  A    between atoms: C_2  and  O_4
REMARK    4  A    between atoms: O_4  and  C_5
REMARK    5  A    between atoms: C_5  and  C_7
REMARK    6  A    between atoms: C_8  and  C_9
REMARK    7  A    between atoms: C_12  and  C_13
REMARK                            x       y       z     vdW  Elec       q    Type
REMARK                         _______ _______ _______ _____ _____    ______ ____
ROOT
ATOM      1  C   UNL     1       3.910   4.991  17.353  0.00  0.00    +0.000 A 
ATOM      2  N   UNL     1       4.918   5.832  17.115  0.00  0.00    +0.000 NA
ATOM      3  N   UNL     1       4.381   6.996  17.523  0.00  0.00    +0.000 N 
ATOM      4  C   UNL     1       3.146   6.821  18.096  0.00  0.00    +0.000 A 
ATOM      5  N   UNL     1       2.850   5.536  18.025  0.00  0.00    +0.000 NA
ATOM      6  H   UNL     1       4.890   7.855  17.359  0.00  0.00    +0.000 HD
ENDROOT
BRANCH   4   7
ATOM      7  C   UNL     1       2.294   7.876  18.643  0.00  0.00    +0.000 A 
ATOM      8  C   UNL     1       1.885   8.924  17.801  0.00  0.00    +0.000 A 
ATOM      9  C   UNL     1       1.074   9.959  18.274  0.00  0.00    +0.000 A 
ATOM     10  C   UNL     1       0.663   9.961  19.603  0.00  0.00    +0.000 A 
ATOM     11  C   UNL     1       1.071   8.934  20.451  0.00  0.00    +0.000 A 
ATOM     12 CL   UNL     1       0.577   8.944  22.100  0.00  0.00    +0.000 Cl
ATOM     13  C   UNL     1       1.881   7.896  19.981  0.00  0.00    +0.000 A 
ENDBRANCH   4   7
BRANCH   1  15
ATOM     14  C   UNL     1       3.793   2.563  17.612  0.00  0.00    +0.000 C 
ATOM     15  C   UNL     1       3.766   3.672  16.852  0.00  0.00    +0.000 C 
BRANCH  14  16
ATOM     16  C   UNL     1       3.878   2.619  19.089  0.00  0.00    +0.000 C 
ATOM     17  O   UNL     1       4.874   2.912  19.733  0.00  0.00    +0.000 OA
BRANCH  16  18
ATOM     18  O   UNL     1       2.659   2.333  19.620  0.00  0.00    +0.000 OA
BRANCH  18  20
ATOM     19  C   UNL     1       0.867   3.875  20.158  0.00  0.00    +0.000 C 
ATOM     20  C   UNL     1       2.215   3.302  20.592  0.00  0.00    +0.000 C 
ATOM     21  C   UNL     1       2.098   2.619  21.946  0.00  0.00    +0.000 C 
ENDBRANCH  18  20
ENDBRANCH  16  18
ENDBRANCH  14  16
ENDBRANCH   1  15
TORSDOF 5
ENDMDL
MODEL 4
REMARK VINA RESULT:      -7.0      1.038      1.502
REMARK  Name = 
REMARK  7 active torsions:
REMARK  status: ('A' for Active; 'I' for Inactive)
REMARK    1  A    between atoms: C_1  and  C_2
REMARK    2  A    between atoms: C_2  and  C_3
REMARK    3  A    between atoms: C_2  and  O_4
REMARK    4  A    between atoms: O_4  and  C_5
REMARK    5  A    between atoms: C_5  and  C_7
REMARK    6  A    between atoms: C_8  and  C_9
REMARK    7  A    between atoms: C_12  and  C_13
REMARK                            x       y       z     vdW  Elec       q    Type
REMARK                         _______ _______ _______ _____ _____    ______ ____
ROOT
ATOM      1  C   UNL     1       3.957   4.572  17.973  0.00  0.00    +0.000 A 
ATOM      2  N   UNL     1       4.515   4.424  19.177  0.00  0.00    +0.000 NA
ATOM      3  N   UNL     1       3.960   5.453  19.842  0.00  0.00    +0.000 N 
ATOM      4  C   UNL     1       3.016   6.105  19.089  0.00  0.00    +0.000 A 
ATOM      5  N   UNL     1       2.980   5.526  17.903  0.00  0.00    +0.000 NA
ATOM      6  H   UNL     1       4.284   5.664  20.777  0.00  0.00    +0.000 HD
ENDROOT
BRANCH   4   7
ATOM      7  C   UNL     1       2.225   7.260  19.512  0.00  0.00    +0.000 A 
ATOM      8  C   UNL     1       1.587   7.225  20.764  0.00  0.00    +0.000 A 
ATOM      9  C   UNL     1       0.818   8.300  21.215  0.00  0.00    +0.000 A 
ATOM     10  C   UNL     1       0.671   9.429  20.414  0.00  0.00    +0.000 A 
ATOM     11  C   UNL     1       1.289   9.471  19.166  0.00  0.00    +0.000 A 
ATOM     12 CL   UNL     1       1.096  10.859  18.167  0.00  0.00    +0.000 Cl
ATOM     13  C   UNL     1       2.062   8.398  18.712  0.00  0.00    +0.000 A 
ENDBRANCH   4   7
BRANCH   1  15
ATOM     14  C   UNL     1       5.148   4.570  15.838  0.00  0.00    +0.000 C 
ATOM     15  C   UNL     1       4.378   3.967  16.761  0.00  0.00    +0.000 C 
BRANCH  14  16
ATOM     16  C   UNL     1       5.726   5.917  16.049  0.00  0.00    +0.000 C 
ATOM     17  O   UNL     1       5.192   6.974  15.747  0.00  0.00    +0.000 OA
BRANCH  16  18
ATOM     18  O   UNL     1       6.929   5.797  16.670  0.00  0.00    +0.000 OA
BRANCH  18  20
ATOM     19  C   UNL     1       7.794   5.777  18.935  0.00  0.00    +0.000 C 
ATOM     20  C   UNL     1       7.030   6.575  17.880  0.00  0.00    +0.000 C 
ATOM     21  C   UNL     1       7.751   7.878  17.566  0.00  0.00    +0.000 C 
ENDBRANCH  18  20
ENDBRANCH  16  18
ENDBRANCH  14  16
ENDBRANCH   1  15
TORSDOF 5
ENDMDL
MODEL 5
REMARK VINA RESULT:      -6.9      4.096      6.648
REMARK  Name = 
REMARK  7 active torsions:
REMARK  status: ('A' for Active; 'I' for Inactive)
REMARK    1  A    between atoms: C_1  and  C_2
REMARK    2  A    between atoms: C_2  and  C_3
REMARK    3  A    between atoms: C_2  and  O_4
REMARK    4  A    between atoms: O_4  and  C_5
REMARK    5  A    between atoms: C_5  and  C_7
REMARK    6  A    between atoms: C_8  and  C_9
REMARK    7  A    between atoms: C_12  and  C_13
REMARK                            x       y       z     vdW  Elec       q    Type
REMARK                         _______ _______ _______ _____ _____    ______ ____
ROOT
ATOM      1  C   UNL     1       3.167   2.922  18.803  0.00  0.00    +0.000 A 
ATOM      2  N   UNL     1       4.241   2.831  19.590  0.00  0.00    +0.000 NA
ATOM      3  N   UNL     1       5.215   3.178  18.730  0.00  0.00    +0.000 N 
ATOM      4  C   UNL     1       4.715   3.578  17.517  0.00  0.00    +0.000 A 
ATOM      5  N   UNL     1       3.401   3.453  17.565  0.00  0.00    +0.000 NA
ATOM      6  H   UNL     1       6.181   3.094  19.024  0.00  0.00    +0.000 HD
ENDROOT
BRANCH   4   7
ATOM      7  C   UNL     1       5.500   4.020  16.365  0.00  0.00    +0.000 A 
ATOM      8  C   UNL     1       6.524   4.962  16.563  0.00  0.00    +0.000 A 
ATOM      9  C   UNL     1       7.302   5.420  15.496  0.00  0.00    +0.000 A 
ATOM     10  C   UNL     1       7.062   4.944  14.211  0.00  0.00    +0.000 A 
ATOM     11  C   UNL     1       6.042   4.019  14.001  0.00  0.00    +0.000 A 
ATOM     12 CL   UNL     1       5.732   3.439  12.409  0.00  0.00    +0.000 Cl
ATOM     13  C   UNL     1       5.263   3.555  15.065  0.00  0.00    +0.000 A 
ENDBRANCH   4   7
BRANCH   1  15
ATOM     14  C   UNL     1       1.097   2.754  20.094  0.00  0.00    +0.000 C 
ATOM     15  C   UNL     1       1.877   2.390  19.061  0.00  0.00    +0.000 C 
BRANCH  14  16
ATOM     16  C   UNL     1       1.476   3.840  21.025  0.00  0.00    +0.000 C 
ATOM     17  O   UNL     1       2.145   3.706  22.040  0.00  0.00    +0.000 OA
BRANCH  16  18
ATOM     18  O   UNL     1       0.997   5.022  20.556  0.00  0.00    +0.000 OA
BRANCH  18  20
ATOM     19  C   UNL     1       2.571   6.309  19.234  0.00  0.00    +0.000 C 
ATOM     20  C   UNL     1       1.958   6.096  20.617  0.00  0.00    +0.000 C 
ATOM     21  C   UNL     1       1.254   7.358  21.092  0.00  0.00    +0.000 C 
ENDBRANCH  18  20
ENDBRANCH  16  18
ENDBRANCH  14  16
ENDBRANCH   1  15
TORSDOF 5
ENDMDL
MODEL 6
REMARK VINA RESULT:      -6.9      3.626      6.018
REMARK  Name = 
REMARK  7 active torsions:
REMARK  status: ('A' for Active; 'I' for Inactive)
REMARK    1  A    between atoms: C_1  and  C_2
REMARK    2  A    between atoms: C_2  and  C_3
REMARK    3  A    between atoms: C_2  and  O_4
REMARK    4  A    between atoms: O_4  and  C_5
REMARK    5  A    between atoms: C_5  and  C_7
REMARK    6  A    between atoms: C_8  and  C_9
REMARK    7  A    between atoms: C_12  and  C_13
REMARK                            x       y       z     vdW  Elec       q    Type
REMARK                         _______ _______ _______ _____ _____    ______ ____
ROOT
ATOM      1  C   UNL     1       3.666   2.489  19.996  0.00  0.00    +0.000 A 
ATOM      2  N   UNL     1       3.367   1.657  18.996  0.00  0.00    +0.000 NA
ATOM      3  N   UNL     1       3.982   2.265  17.966  0.00  0.00    +0.000 N 
ATOM      4  C   UNL     1       4.720   3.347  18.373  0.00  0.00    +0.000 A 
ATOM      5  N   UNL     1       4.555   3.479  19.676  0.00  0.00    +0.000 NA
ATOM      6  H   UNL     1       3.836   1.909  17.030  0.00  0.00    +0.000 HD
ENDROOT
BRANCH   4   7
ATOM      7  C   UNL     1       5.511   4.223  17.509  0.00  0.00    +0.000 A 
ATOM      8  C   UNL     1       5.597   3.926  16.137  0.00  0.00    +0.000 A 
ATOM      9  C   UNL     1       6.341   4.728  15.269  0.00  0.00    +0.000 A 
ATOM     10  C   UNL     1       7.016   5.840  15.762  0.00  0.00    +0.000 A 
ATOM     11  C   UNL     1       6.948   6.138  17.121  0.00  0.00    +0.000 A 
ATOM     12 CL   UNL     1       7.796   7.504  17.737  0.00  0.00    +0.000 Cl
ATOM     13  C   UNL     1       6.203   5.340  17.994  0.00  0.00    +0.000 A 
ENDBRANCH   4   7
BRANCH   1  15
ATOM     14  C   UNL     1       1.895   3.178  21.533  0.00  0.00    +0.000 C 
ATOM     15  C   UNL     1       3.050   2.542  21.272  0.00  0.00    +0.000 C 
BRANCH  14  16
ATOM     16  C   UNL     1       1.086   3.815  20.469  0.00  0.00    +0.000 C 
ATOM     17  O   UNL     1       0.481   3.225  19.586  0.00  0.00    +0.000 OA
BRANCH  16  18
ATOM     18  O   UNL     1       1.088   5.162  20.650  0.00  0.00    +0.000 OA
BRANCH  18  20
ATOM     19  C   UNL     1       1.982   5.538  18.427  0.00  0.00    +0.000 C 
ATOM     20  C   UNL     1       2.130   5.838  19.918  0.00  0.00    +0.000 C 
ATOM     21  C   UNL     1       2.022   7.333  20.177  0.00  0.00    +0.000 C 
ENDBRANCH  18  20
ENDBRANCH  16  18
ENDBRANCH  14  16
ENDBRANCH   1  15
TORSDOF 5
ENDMDL
MODEL 7
REMARK VINA RESULT:      -6.8      4.444      7.271
REMARK  Name = 
REMARK  7 active torsions:
REMARK  status: ('A' for Active; 'I' for Inactive)
REMARK    1  A    between atoms: C_1  and  C_2
REMARK    2  A    between atoms: C_2  and  C_3
REMARK    3  A    between atoms: C_2  and  O_4
REMARK    4  A    between atoms: O_4  and  C_5
REMARK    5  A    between atoms: C_5  and  C_7
REMARK    6  A    between atoms: C_8  and  C_9
REMARK    7  A    between atoms: C_12  and  C_13
REMARK                            x       y       z     vdW  Elec       q    Type
REMARK                         _______ _______ _______ _____ _____    ______ ____
ROOT
ATOM      1  C   UNL     1       5.316   5.602  17.641  0.00  0.00    +0.000 A 
ATOM      2  N   UNL     1       5.040   6.809  17.143  0.00  0.00    +0.000 NA
ATOM      3  N   UNL     1       5.421   6.649  15.863  0.00  0.00    +0.000 N 
ATOM      4  C   UNL     1       5.791   5.355  15.593  0.00  0.00    +0.000 A 
ATOM      5  N   UNL     1       5.692   4.668  16.716  0.00  0.00    +0.000 NA
ATOM      6  H   UNL     1       5.428   7.454  15.250  0.00  0.00    +0.000 HD
ENDROOT
BRANCH   4   7
ATOM      7  C   UNL     1       6.253   4.843  14.304  0.00  0.00    +0.000 A 
ATOM      8  C   UNL     1       7.412   5.395  13.731  0.00  0.00    +0.000 A 
ATOM      9  C   UNL     1       7.895   4.945  12.499  0.00  0.00    +0.000 A 
ATOM     10  C   UNL     1       7.220   3.936  11.819  0.00  0.00    +0.000 A 
ATOM     11  C   UNL     1       6.064   3.391  12.371  0.00  0.00    +0.000 A 
ATOM     12 CL   UNL     1       5.217   2.153  11.523  0.00  0.00    +0.000 Cl
ATOM     13  C   UNL     1       5.578   3.836  13.604  0.00  0.00    +0.000 A 
ENDBRANCH   4   7
BRANCH   1  15
ATOM     14  C   UNL     1       4.353   5.011  19.809  0.00  0.00    +0.000 C 
ATOM     15  C   UNL     1       5.409   5.249  19.012  0.00  0.00    +0.000 C 
BRANCH  14  16
ATOM     16  C   UNL     1       2.964   4.996  19.297  0.00  0.00    +0.000 C 
ATOM     17  O   UNL     1       2.284   5.983  19.057  0.00  0.00    +0.000 OA
BRANCH  16  18
ATOM     18  O   UNL     1       2.573   3.710  19.094  0.00  0.00    +0.000 OA
BRANCH  18  20
ATOM     19  C   UNL     1       0.635   2.287  18.781  0.00  0.00    +0.000 C 
ATOM     20  C   UNL     1       1.249   3.427  19.591  0.00  0.00    +0.000 C 
ATOM     21  C   UNL     1       1.347   3.050  21.061  0.00  0.00    +0.000 C 
ENDBRANCH  18  20
ENDBRANCH  16  18
ENDBRANCH  14  16
ENDBRANCH   1  15
TORSDOF 5
ENDMDL
MODEL 8
REMARK VINA RESULT:      -6.8      4.004      6.221
REMARK  Name = 
REMARK  7 active torsions:
REMARK  status: ('A' for Active; 'I' for Inactive)
REMARK    1  A    between atoms: C_1  and  C_2
REMARK    2  A    between atoms: C_2  and  C_3
REMARK    3  A    between atoms: C_2  and  O_4
REMARK    4  A    between atoms: O_4  and  C_5
REMARK    5  A    between atoms: C_5  and  C_7
REMARK    6  A    between atoms: C_8  and  C_9
REMARK    7  A    between atoms: C_12  and  C_13
REMARK                            x       y       z     vdW  Elec       q    Type
REMARK                         _______ _______ _______ _____ _____    ______ ____
ROOT
ATOM      1  C   UNL     1       7.224   6.731  17.520  0.00  0.00    +0.000 A 
ATOM      2  N   UNL     1       7.863   6.300  18.609  0.00  0.00    +0.000 NA
ATOM      3  N   UNL     1       8.506   7.419  18.987  0.00  0.00    +0.000 N 
ATOM      4  C   UNL     1       8.156   8.499  18.217  0.00  0.00    +0.000 A 
ATOM      5  N   UNL     1       7.307   8.078  17.297  0.00  0.00    +0.000 NA
ATOM      6  H   UNL     1       9.174   7.368  19.746  0.00  0.00    +0.000 HD
ENDROOT
BRANCH   4   7
ATOM      7  C   UNL     1       8.666   9.862  18.363  0.00  0.00    +0.000 A 
ATOM      8  C   UNL     1       8.158  10.870  17.525  0.00  0.00    +0.000 A 
ATOM      9  C   UNL     1       8.614  12.188  17.621  0.00  0.00    +0.000 A 
ATOM     10  C   UNL     1       9.591  12.515  18.556  0.00  0.00    +0.000 A 
ATOM     11  C   UNL     1      10.110  11.522  19.383  0.00  0.00    +0.000 A 
ATOM     12 CL   UNL     1      11.330  11.922  20.530  0.00  0.00    +0.000 Cl
ATOM     13  C   UNL     1       9.656  10.203  19.293  0.00  0.00    +0.000 A 
ENDBRANCH   4   7
BRANCH   1  15
ATOM     14  C   UNL     1       5.308   5.647  16.456  0.00  0.00    +0.000 C 
ATOM     15  C   UNL     1       6.621   5.931  16.516  0.00  0.00    +0.000 C 
BRANCH  14  16
ATOM     16  C   UNL     1       4.329   6.237  17.398  0.00  0.00    +0.000 C 
ATOM     17  O   UNL     1       3.847   7.357  17.313  0.00  0.00    +0.000 OA
BRANCH  16  18
ATOM     18  O   UNL     1       4.017   5.322  18.353  0.00  0.00    +0.000 OA
BRANCH  18  20
ATOM     19  C   UNL     1       1.848   4.425  17.742  0.00  0.00    +0.000 C 
ATOM     20  C   UNL     1       2.620   5.319  18.711  0.00  0.00    +0.000 C 
ATOM     21  C   UNL     1       2.480   4.811  20.138  0.00  0.00    +0.000 C 
ENDBRANCH  18  20
ENDBRANCH  16  18
ENDBRANCH  14  16
ENDBRANCH   1  15
TORSDOF 5
ENDMDL
MODEL 9
REMARK VINA RESULT:      -6.7      3.594      6.096
REMARK  Name = 
REMARK  7 active torsions:
REMARK  status: ('A' for Active; 'I' for Inactive)
REMARK    1  A    between atoms: C_1  and  C_2
REMARK    2  A    between atoms: C_2  and  C_3
REMARK    3  A    between atoms: C_2  and  O_4
REMARK    4  A    between atoms: O_4  and  C_5
REMARK    5  A    between atoms: C_5  and  C_7
REMARK    6  A    between atoms: C_8  and  C_9
REMARK    7  A    between atoms: C_12  and  C_13
REMARK                            x       y       z     vdW  Elec       q    Type
REMARK                         _______ _______ _______ _____ _____    ______ ____
ROOT
ATOM      1  C   UNL     1       2.399   2.520  18.574  0.00  0.00    +0.000 A 
ATOM      2  N   UNL     1       3.185   1.442  18.584  0.00  0.00    +0.000 NA
ATOM      3  N   UNL     1       4.243   1.891  17.887  0.00  0.00    +0.000 N 
ATOM      4  C   UNL     1       4.134   3.226  17.587  0.00  0.00    +0.000 A 
ATOM      5  N   UNL     1       2.973   3.647  18.054  0.00  0.00    +0.000 NA
ATOM      6  H   UNL     1       4.976   1.240  17.635  0.00  0.00    +0.000 HD
ENDROOT
BRANCH   4   7
ATOM      7  C   UNL     1       5.109   4.023  16.845  0.00  0.00    +0.000 A 
ATOM      8  C   UNL     1       5.403   3.671  15.516  0.00  0.00    +0.000 A 
ATOM      9  C   UNL     1       6.329   4.398  14.763  0.00  0.00    +0.000 A 
ATOM     10  C   UNL     1       6.980   5.488  15.332  0.00  0.00    +0.000 A 
ATOM     11  C   UNL     1       6.706   5.839  16.652  0.00  0.00    +0.000 A 
ATOM     12 CL   UNL     1       7.521   7.178  17.364  0.00  0.00    +0.000 Cl
ATOM     13  C   UNL     1       5.778   5.117  17.409  0.00  0.00    +0.000 A 
ENDBRANCH   4   7
BRANCH   1  15
ATOM     14  C   UNL     1       0.493   3.300  19.891  0.00  0.00    +0.000 C 
ATOM     15  C   UNL     1       1.017   2.569  18.892  0.00  0.00    +0.000 C 
BRANCH  14  16
ATOM     16  C   UNL     1       1.312   4.221  20.711  0.00  0.00    +0.000 C 
ATOM     17  O   UNL     1       2.234   3.892  21.443  0.00  0.00    +0.000 OA
BRANCH  16  18
ATOM     18  O   UNL     1       0.906   5.499  20.492  0.00  0.00    +0.000 OA
BRANCH  18  20
ATOM     19  C   UNL     1       2.576   6.638  19.152  0.00  0.00    +0.000 C 
ATOM     20  C   UNL     1       1.980   6.460  20.547  0.00  0.00    +0.000 C 
ATOM     21  C   UNL     1       1.431   7.780  21.068  0.00  0.00    +0.000 C 
ENDBRANCH  18  20
ENDBRANCH  16  18
ENDBRANCH  14  16
ENDBRANCH   1  15
TORSDOF 5
ENDMDL
