MODEL 1
REMARK VINA RESULT:      -7.9      0.000      0.000
REMARK  Name = 
REMARK  9 active torsions:
REMARK  status: ('A' for Active; 'I' for Inactive)
REMARK    1  A    between atoms: C_1  and  O_2
REMARK    2  A    between atoms: O_2  and  C_3
REMARK    3  A    between atoms: C_5  and  C_6
REMARK    4  A    between atoms: N_7  and  N_8
REMARK    5  A    between atoms: C_9  and  C_11
REMARK    6  A    between atoms: N_13  and  C_14
REMARK    7  A    between atoms: C_22  and  O_23
REMARK    8  A    between atoms: O_23  and  C_24
REMARK    9  A    between atoms: C_25  and  O_26
REMARK                            x       y       z     vdW  Elec       q    Type
REMARK                         _______ _______ _______ _____ _____    ______ ____
ROOT
ATOM      1  N   UNL     1       1.474   8.880  17.874  0.00  0.00    +0.000 N 
ATOM      2  C   UNL     1       1.069   9.556  19.018  0.00  0.00    +0.000 C 
ATOM      3  O   UNL     1       1.707   9.769  20.038  0.00  0.00    +0.000 OA
ATOM      4  H   UNL     1       0.814   8.802  17.104  0.00  0.00    +0.000 HD
ENDROOT
BRANCH   2   5
ATOM      5  C   UNL     1      -0.372  10.102  18.910  0.00  0.00    +0.000 C 
ATOM      6  O   UNL     1      -0.946  10.432  19.938  0.00  0.00    +0.000 OA
ATOM      7  N   UNL     1      -0.846  10.102  17.606  0.00  0.00    +0.000 N 
ATOM      8  H   UNL     1      -0.205   9.699  16.924  0.00  0.00    +0.000 HD
BRANCH   7   9
ATOM      9  C   UNL     1      -2.125  10.498  17.169  0.00  0.00    +0.000 A 
ATOM     10  C   UNL     1      -2.575  10.310  15.859  0.00  0.00    +0.000 A 
ATOM     11  C   UNL     1      -3.844  10.754  15.468  0.00  0.00    +0.000 A 
ATOM     12  C   UNL     1      -4.672  11.397  16.384  0.00  0.00    +0.000 A 
ATOM     13  C   UNL     1      -4.234  11.571  17.694  0.00  0.00    +0.000 A 
ATOM     14 CL   UNL     1      -5.251  12.381  18.825  0.00  0.00    +0.000 Cl
ATOM     15  C   UNL     1      -2.976  11.111  18.095  0.00  0.00    +0.000 A 
ENDBRANCH   7   9
ENDBRANCH   2   5
BRANCH   1  17
ATOM     16  C   UNL     1       2.767   7.041  18.085  0.00  0.00    +0.000 C 
ATOM     17  N   UNL     1       2.709   8.303  17.803  0.00  0.00    +0.000 NA
BRANCH  16  20
ATOM     18  C   UNL     1       5.344   4.332  18.712  0.00  0.00    +0.000 A 
ATOM     19  C   UNL     1       4.141   5.051  18.715  0.00  0.00    +0.000 A 
ATOM     20  C   UNL     1       4.045   6.291  18.083  0.00  0.00    +0.000 A 
ATOM     21  C   UNL     1       5.165   6.833  17.449  0.00  0.00    +0.000 A 
ATOM     22  C   UNL     1       6.379   6.130  17.432  0.00  0.00    +0.000 A 
ATOM     23  C   UNL     1       6.466   4.876  18.063  0.00  0.00    +0.000 A 
BRANCH  18  25
ATOM     24  C   UNL     1       3.975   2.715  19.846  0.00  0.00    +0.000 C 
ATOM     25  O   UNL     1       5.251   3.162  19.417  0.00  0.00    +0.000 OA
ENDBRANCH  18  25
BRANCH  22  26
ATOM     26  O   UNL     1       7.422   6.825  16.872  0.00  0.00    +0.000 OA
ATOM     27  C   UNL     1       7.842   8.026  17.516  0.00  0.00    +0.000 C 
ENDBRANCH  22  26
BRANCH  23  28
ATOM     28  O   UNL     1       7.661   4.215  18.102  0.00  0.00    +0.000 OA
ATOM     29  H   UNL     1       7.482   3.357  18.522  0.00  0.00    +0.000 HD
ENDBRANCH  23  28
ENDBRANCH  16  20
ENDBRANCH   1  17
TORSDOF 7
ENDMDL
MODEL 2
REMARK VINA RESULT:      -7.7      6.270      8.787
REMARK  Name = 
REMARK  9 active torsions:
REMARK  status: ('A' for Active; 'I' for Inactive)
REMARK    1  A    between atoms: C_1  and  O_2
REMARK    2  A    between atoms: O_2  and  C_3
REMARK    3  A    between atoms: C_5  and  C_6
REMARK    4  A    between atoms: N_7  and  N_8
REMARK    5  A    between atoms: C_9  and  C_11
REMARK    6  A    between atoms: N_13  and  C_14
REMARK    7  A    between atoms: C_22  and  O_23
REMARK    8  A    between atoms: O_23  and  C_24
REMARK    9  A    between atoms: C_25  and  O_26
REMARK                            x       y       z     vdW  Elec       q    Type
REMARK                         _______ _______ _______ _____ _____    ______ ____
ROOT
ATOM      1  N   UNL     1       7.547   7.621  17.827  0.00  0.00    +0.000 N 
ATOM      2  C   UNL     1       7.410   6.345  18.359  0.00  0.00    +0.000 C 
ATOM      3  O   UNL     1       8.092   5.804  19.217  0.00  0.00    +0.000 OA
ATOM      4  H   UNL     1       6.879   7.920  17.120  0.00  0.00    +0.000 HD
ENDROOT
BRANCH   2   5
ATOM      5  C   UNL     1       6.208   5.577  17.766  0.00  0.00    +0.000 C 
ATOM      6  O   UNL     1       6.030   5.622  16.558  0.00  0.00    +0.000 OA
ATOM      7  N   UNL     1       5.444   4.949  18.739  0.00  0.00    +0.000 N 
ATOM      8  H   UNL     1       5.750   5.125  19.695  0.00  0.00    +0.000 HD
BRANCH   7   9
ATOM      9  C   UNL     1       4.267   4.202  18.541  0.00  0.00    +0.000 A 
ATOM     10  C   UNL     1       4.108   3.295  17.489  0.00  0.00    +0.000 A 
ATOM     11  C   UNL     1       2.903   2.603  17.319  0.00  0.00    +0.000 A 
ATOM     12  C   UNL     1       1.843   2.818  18.195  0.00  0.00    +0.000 A 
ATOM     13  C   UNL     1       2.003   3.709  19.253  0.00  0.00    +0.000 A 
ATOM     14 CL   UNL     1       0.687   3.989  20.329  0.00  0.00    +0.000 Cl
ATOM     15  C   UNL     1       3.211   4.386  19.441  0.00  0.00    +0.000 A 
ENDBRANCH   7   9
ENDBRANCH   2   5
BRANCH   1  17
ATOM     16  C   UNL     1       8.279   9.681  18.393  0.00  0.00    +0.000 C 
ATOM     17  N   UNL     1       8.574   8.433  18.212  0.00  0.00    +0.000 NA
BRANCH  16  20
ATOM     18  C   UNL     1      10.321  12.121  20.454  0.00  0.00    +0.000 A 
ATOM     19  C   UNL     1       9.353  11.178  20.080  0.00  0.00    +0.000 A 
ATOM     20  C   UNL     1       9.300  10.684  18.777  0.00  0.00    +0.000 A 
ATOM     21  C   UNL     1      10.213  11.143  17.826  0.00  0.00    +0.000 A 
ATOM     22  C   UNL     1      11.191  12.085  18.178  0.00  0.00    +0.000 A 
ATOM     23  C   UNL     1      11.245  12.572  19.496  0.00  0.00    +0.000 A 
BRANCH  18  25
ATOM     24  C   UNL     1       9.140  13.405  22.108  0.00  0.00    +0.000 C 
ATOM     25  O   UNL     1      10.185  12.513  21.760  0.00  0.00    +0.000 OA
ENDBRANCH  18  25
BRANCH  22  26
ATOM     26  O   UNL     1      11.949  12.529  17.123  0.00  0.00    +0.000 OA
ATOM     27  C   UNL     1      11.514  13.702  16.441  0.00  0.00    +0.000 C 
ENDBRANCH  22  26
BRANCH  23  28
ATOM     28  O   UNL     1      12.155  13.535  19.831  0.00  0.00    +0.000 OA
ATOM     29  H   UNL     1      13.014  13.085  19.896  0.00  0.00    +0.000 HD
ENDBRANCH  23  28
ENDBRANCH  16  20
ENDBRANCH   1  17
TORSDOF 7
ENDMDL
MODEL 3
REMARK VINA RESULT:      -7.7      6.118      9.117
REMARK  Name = 
REMARK  9 active torsions:
REMARK  status: ('A' for Active; 'I' for Inactive)
REMARK    1  A    between atoms: C_1  and  O_2
REMARK    2  A    between atoms: O_2  and  C_3
REMARK    3  A    between atoms: C_5  and  C_6
REMARK    4  A    between atoms: N_7  and  N_8
REMARK    5  A    between atoms: C_9  and  C_11
REMARK    6  A    between atoms: N_13  and  C_14
REMARK    7  A    between atoms: C_22  and  O_23
REMARK    8  A    between atoms: O_23  and  C_24
REMARK    9  A    between atoms: C_25  and  O_26
REMARK                            x       y       z     vdW  Elec       q    Type
REMARK                         _______ _______ _______ _____ _____    ______ ____
ROOT
ATOM      1  N   UNL     1       7.387   7.996  17.209  0.00  0.00    +0.000 N 
ATOM      2  C   UNL     1       7.542   6.835  17.955  0.00  0.00    +0.000 C 
ATOM      3  O   UNL     1       8.338   6.614  18.855  0.00  0.00    +0.000 OA
ATOM      4  H   UNL     1       6.659   8.016  16.497  0.00  0.00    +0.000 HD
ENDROOT
BRANCH   2   5
ATOM      5  C   UNL     1       6.531   5.735  17.564  0.00  0.00    +0.000 C 
ATOM      6  O   UNL     1       6.829   4.970  16.658  0.00  0.00    +0.000 OA
ATOM      7  N   UNL     1       5.360   5.799  18.304  0.00  0.00    +0.000 N 
ATOM      8  H   UNL     1       5.313   6.583  18.953  0.00  0.00    +0.000 HD
BRANCH   7   9
ATOM      9  C   UNL     1       4.228   4.971  18.173  0.00  0.00    +0.000 A 
ATOM     10  C   UNL     1       2.949   5.466  17.901  0.00  0.00    +0.000 A 
ATOM     11  C   UNL     1       1.851   4.602  17.814  0.00  0.00    +0.000 A 
ATOM     12  C   UNL     1       2.022   3.234  18.006  0.00  0.00    +0.000 A 
ATOM     13  C   UNL     1       3.297   2.735  18.260  0.00  0.00    +0.000 A 
ATOM     14 CL   UNL     1       3.508   1.044  18.514  0.00  0.00    +0.000 Cl
ATOM     15  C   UNL     1       4.400   3.591  18.327  0.00  0.00    +0.000 A 
ENDBRANCH   7   9
ENDBRANCH   2   5
BRANCH   1  17
ATOM     16  C   UNL     1       8.485   9.369  18.627  0.00  0.00    +0.000 C 
ATOM     17  N   UNL     1       8.214   9.065  17.397  0.00  0.00    +0.000 NA
BRANCH  16  20
ATOM     18  C   UNL     1      11.042  12.156  18.376  0.00  0.00    +0.000 A 
ATOM     19  C   UNL     1      10.235  11.057  18.052  0.00  0.00    +0.000 A 
ATOM     20  C   UNL     1       9.340  10.526  18.982  0.00  0.00    +0.000 A 
ATOM     21  C   UNL     1       9.255  11.086  20.258  0.00  0.00    +0.000 A 
ATOM     22  C   UNL     1      10.052  12.187  20.604  0.00  0.00    +0.000 A 
ATOM     23  C   UNL     1      10.945  12.724  19.659  0.00  0.00    +0.000 A 
BRANCH  18  25
ATOM     24  C   UNL     1      11.517  13.577  16.497  0.00  0.00    +0.000 C 
ATOM     25  O   UNL     1      11.880  12.505  17.350  0.00  0.00    +0.000 OA
ENDBRANCH  18  25
BRANCH  22  26
ATOM     26  O   UNL     1       9.947  12.565  21.919  0.00  0.00    +0.000 OA
ATOM     27  C   UNL     1       8.802  13.323  22.302  0.00  0.00    +0.000 C 
ENDBRANCH  22  26
BRANCH  23  28
ATOM     28  O   UNL     1      11.768  13.757  20.009  0.00  0.00    +0.000 OA
ATOM     29  H   UNL     1      12.646  13.535  19.657  0.00  0.00    +0.000 HD
ENDBRANCH  23  28
ENDBRANCH  16  20
ENDBRANCH   1  17
TORSDOF 7
ENDMDL
MODEL 4
REMARK VINA RESULT:      -7.7      1.245      1.556
REMARK  Name = 
REMARK  9 active torsions:
REMARK  status: ('A' for Active; 'I' for Inactive)
REMARK    1  A    between atoms: C_1  and  O_2
REMARK    2  A    between atoms: O_2  and  C_3
REMARK    3  A    between atoms: C_5  and  C_6
REMARK    4  A    between atoms: N_7  and  N_8
REMARK    5  A    between atoms: C_9  and  C_11
REMARK    6  A    between atoms: N_13  and  C_14
REMARK    7  A    between atoms: C_22  and  O_23
REMARK    8  A    between atoms: O_23  and  C_24
REMARK    9  A    between atoms: C_25  and  O_26
REMARK                            x       y       z     vdW  Elec       q    Type
REMARK                         _______ _______ _______ _____ _____    ______ ____
ROOT
ATOM      1  N   UNL     1       1.262   8.852  18.707  0.00  0.00    +0.000 N 
ATOM      2  C   UNL     1       0.767   9.626  19.749  0.00  0.00    +0.000 C 
ATOM      3  O   UNL     1       1.222   9.761  20.875  0.00  0.00    +0.000 OA
ATOM      4  H   UNL     1       0.761   8.862  17.821  0.00  0.00    +0.000 HD
ENDROOT
BRANCH   2   5
ATOM      5  C   UNL     1      -0.507  10.407  19.359  0.00  0.00    +0.000 C 
ATOM      6  O   UNL     1      -0.919  11.265  20.126  0.00  0.00    +0.000 OA
ATOM      7  N   UNL     1      -1.051   9.975  18.158  0.00  0.00    +0.000 N 
ATOM      8  H   UNL     1      -0.569   9.182  17.737  0.00  0.00    +0.000 HD
BRANCH   7   9
ATOM      9  C   UNL     1      -2.225  10.448  17.540  0.00  0.00    +0.000 A 
ATOM     10  C   UNL     1      -3.200  11.186  18.219  0.00  0.00    +0.000 A 
ATOM     11  C   UNL     1      -4.365  11.602  17.565  0.00  0.00    +0.000 A 
ATOM     12  C   UNL     1      -4.570  11.278  16.227  0.00  0.00    +0.000 A 
ATOM     13  C   UNL     1      -3.594  10.558  15.543  0.00  0.00    +0.000 A 
ATOM     14 CL   UNL     1      -3.853  10.142  13.891  0.00  0.00    +0.000 Cl
ATOM     15  C   UNL     1      -2.419  10.157  16.185  0.00  0.00    +0.000 A 
ENDBRANCH   7   9
ENDBRANCH   2   5
BRANCH   1  17
ATOM     16  C   UNL     1       2.845   7.512  17.814  0.00  0.00    +0.000 C 
ATOM     17  N   UNL     1       2.367   8.070  18.880  0.00  0.00    +0.000 NA
BRANCH  16  20
ATOM     18  C   UNL     1       5.016   4.471  18.455  0.00  0.00    +0.000 A 
ATOM     19  C   UNL     1       3.913   5.335  18.417  0.00  0.00    +0.000 A 
ATOM     20  C   UNL     1       4.019   6.608  17.857  0.00  0.00    +0.000 A 
ATOM     21  C   UNL     1       5.243   7.036  17.340  0.00  0.00    +0.000 A 
ATOM     22  C   UNL     1       6.359   6.188  17.366  0.00  0.00    +0.000 A 
ATOM     23  C   UNL     1       6.243   4.902  17.923  0.00  0.00    +0.000 A 
BRANCH  18  25
ATOM     24  C   UNL     1       3.693   2.466  18.554  0.00  0.00    +0.000 C 
ATOM     25  O   UNL     1       4.725   3.286  19.077  0.00  0.00    +0.000 OA
ENDBRANCH  18  25
BRANCH  22  26
ATOM     26  O   UNL     1       7.520   6.774  16.926  0.00  0.00    +0.000 OA
ATOM     27  C   UNL     1       7.907   8.010  17.521  0.00  0.00    +0.000 C 
ENDBRANCH  22  26
BRANCH  23  28
ATOM     28  O   UNL     1       7.342   4.093  18.007  0.00  0.00    +0.000 OA
ATOM     29  H   UNL     1       7.231   3.413  17.322  0.00  0.00    +0.000 HD
ENDBRANCH  23  28
ENDBRANCH  16  20
ENDBRANCH   1  17
TORSDOF 7
ENDMDL
MODEL 5
REMARK VINA RESULT:      -7.6      1.035      2.594
REMARK  Name = 
REMARK  9 active torsions:
REMARK  status: ('A' for Active; 'I' for Inactive)
REMARK    1  A    between atoms: C_1  and  O_2
REMARK    2  A    between atoms: O_2  and  C_3
REMARK    3  A    between atoms: C_5  and  C_6
REMARK    4  A    between atoms: N_7  and  N_8
REMARK    5  A    between atoms: C_9  and  C_11
REMARK    6  A    between atoms: N_13  and  C_14
REMARK    7  A    between atoms: C_22  and  O_23
REMARK    8  A    between atoms: O_23  and  C_24
REMARK    9  A    between atoms: C_25  and  O_26
REMARK                            x       y       z     vdW  Elec       q    Type
REMARK                         _______ _______ _______ _____ _____    ______ ____
ROOT
ATOM      1  N   UNL     1       1.462   8.907  18.034  0.00  0.00    +0.000 N 
ATOM      2  C   UNL     1       1.432  10.286  18.198  0.00  0.00    +0.000 C 
ATOM      3  O   UNL     1       2.360  11.078  18.130  0.00  0.00    +0.000 OA
ATOM      4  H   UNL     1       0.586   8.395  18.113  0.00  0.00    +0.000 HD
ENDROOT
BRANCH   2   5
ATOM      5  C   UNL     1       0.010  10.824  18.472  0.00  0.00    +0.000 C 
ATOM      6  O   UNL     1      -0.211  11.358  19.549  0.00  0.00    +0.000 OA
ATOM      7  N   UNL     1      -0.865  10.577  17.424  0.00  0.00    +0.000 N 
ATOM      8  H   UNL     1      -0.464  10.039  16.657  0.00  0.00    +0.000 HD
BRANCH   7   9
ATOM      9  C   UNL     1      -2.234  10.901  17.368  0.00  0.00    +0.000 A 
ATOM     10  C   UNL     1      -3.009  10.742  16.215  0.00  0.00    +0.000 A 
ATOM     11  C   UNL     1      -4.359  11.112  16.205  0.00  0.00    +0.000 A 
ATOM     12  C   UNL     1      -4.945  11.651  17.347  0.00  0.00    +0.000 A 
ATOM     13  C   UNL     1      -4.181  11.796  18.502  0.00  0.00    +0.000 A 
ATOM     14 CL   UNL     1      -4.899  12.479  19.910  0.00  0.00    +0.000 Cl
ATOM     15  C   UNL     1      -2.838  11.409  18.524  0.00  0.00    +0.000 A 
ENDBRANCH   7   9
ENDBRANCH   2   5
BRANCH   1  17
ATOM     16  C   UNL     1       2.695   7.025  18.217  0.00  0.00    +0.000 C 
ATOM     17  N   UNL     1       2.640   8.254  17.815  0.00  0.00    +0.000 NA
BRANCH  16  20
ATOM     18  C   UNL     1       5.982   5.675  16.896  0.00  0.00    +0.000 A 
ATOM     19  C   UNL     1       4.816   6.439  17.032  0.00  0.00    +0.000 A 
ATOM     20  C   UNL     1       3.922   6.205  18.077  0.00  0.00    +0.000 A 
ATOM     21  C   UNL     1       4.184   5.186  18.995  0.00  0.00    +0.000 A 
ATOM     22  C   UNL     1       5.346   4.409  18.879  0.00  0.00    +0.000 A 
ATOM     23  C   UNL     1       6.247   4.656  17.828  0.00  0.00    +0.000 A 
BRANCH  18  25
ATOM     24  C   UNL     1       6.832   5.102  14.721  0.00  0.00    +0.000 C 
ATOM     25  O   UNL     1       6.707   6.027  15.789  0.00  0.00    +0.000 OA
ENDBRANCH  18  25
BRANCH  22  26
ATOM     26  O   UNL     1       5.422   3.375  19.779  0.00  0.00    +0.000 OA
ATOM     27  C   UNL     1       4.324   2.468  19.843  0.00  0.00    +0.000 C 
ENDBRANCH  22  26
BRANCH  23  28
ATOM     28  O   UNL     1       7.349   3.864  17.674  0.00  0.00    +0.000 OA
ATOM     29  H   UNL     1       7.952   4.093  18.401  0.00  0.00    +0.000 HD
ENDBRANCH  23  28
ENDBRANCH  16  20
ENDBRANCH   1  17
TORSDOF 7
ENDMDL
MODEL 6
REMARK VINA RESULT:      -7.6      3.881      4.639
REMARK  Name = 
REMARK  9 active torsions:
REMARK  status: ('A' for Active; 'I' for Inactive)
REMARK    1  A    between atoms: C_1  and  O_2
REMARK    2  A    between atoms: O_2  and  C_3
REMARK    3  A    between atoms: C_5  and  C_6
REMARK    4  A    between atoms: N_7  and  N_8
REMARK    5  A    between atoms: C_9  and  C_11
REMARK    6  A    between atoms: N_13  and  C_14
REMARK    7  A    between atoms: C_22  and  O_23
REMARK    8  A    between atoms: O_23  and  C_24
REMARK    9  A    between atoms: C_25  and  O_26
REMARK                            x       y       z     vdW  Elec       q    Type
REMARK                         _______ _______ _______ _____ _____    ______ ____
ROOT
ATOM      1  N   UNL     1       1.276   8.672  21.457  0.00  0.00    +0.000 N 
ATOM      2  C   UNL     1       0.273   9.566  21.105  0.00  0.00    +0.000 C 
ATOM      3  O   UNL     1      -0.224   9.752  20.004  0.00  0.00    +0.000 OA
ATOM      4  H   UNL     1       1.567   8.638  22.432  0.00  0.00    +0.000 HD
ENDROOT
BRANCH   2   5
ATOM      5  C   UNL     1      -0.253  10.379  22.308  0.00  0.00    +0.000 C 
ATOM      6  O   UNL     1       0.011   9.984  23.435  0.00  0.00    +0.000 OA
ATOM      7  N   UNL     1      -1.019  11.469  21.922  0.00  0.00    +0.000 N 
ATOM      8  H   UNL     1      -1.166  11.546  20.916  0.00  0.00    +0.000 HD
BRANCH   7   9
ATOM      9  C   UNL     1      -1.674  12.386  22.766  0.00  0.00    +0.000 A 
ATOM     10  C   UNL     1      -1.122  13.620  23.125  0.00  0.00    +0.000 A 
ATOM     11  C   UNL     1      -1.802  14.481  23.995  0.00  0.00    +0.000 A 
ATOM     12  C   UNL     1      -3.037  14.112  24.520  0.00  0.00    +0.000 A 
ATOM     13  C   UNL     1      -3.597  12.891  24.153  0.00  0.00    +0.000 A 
ATOM     14 CL   UNL     1      -5.118  12.426  24.814  0.00  0.00    +0.000 Cl
ATOM     15  C   UNL     1      -2.933  12.037  23.268  0.00  0.00    +0.000 A 
ENDBRANCH   7   9
ENDBRANCH   2   5
BRANCH   1  17
ATOM     16  C   UNL     1       1.876   6.617  20.741  0.00  0.00    +0.000 C 
ATOM     17  N   UNL     1       1.880   7.892  20.515  0.00  0.00    +0.000 NA
BRANCH  16  20
ATOM     18  C   UNL     1       2.387   3.730  18.337  0.00  0.00    +0.000 A 
ATOM     19  C   UNL     1       1.782   4.642  19.213  0.00  0.00    +0.000 A 
ATOM     20  C   UNL     1       2.526   5.652  19.823  0.00  0.00    +0.000 A 
ATOM     21  C   UNL     1       3.896   5.750  19.571  0.00  0.00    +0.000 A 
ATOM     22  C   UNL     1       4.522   4.850  18.696  0.00  0.00    +0.000 A 
ATOM     23  C   UNL     1       3.764   3.840  18.077  0.00  0.00    +0.000 A 
BRANCH  18  25
ATOM     24  C   UNL     1       0.625   2.159  18.789  0.00  0.00    +0.000 C 
ATOM     25  O   UNL     1       1.503   2.792  17.873  0.00  0.00    +0.000 OA
ENDBRANCH  18  25
BRANCH  22  26
ATOM     26  O   UNL     1       5.885   4.993  18.625  0.00  0.00    +0.000 OA
ATOM     27  C   UNL     1       6.404   5.977  17.734  0.00  0.00    +0.000 C 
ENDBRANCH  22  26
BRANCH  23  28
ATOM     28  O   UNL     1       4.379   2.922  17.273  0.00  0.00    +0.000 OA
ATOM     29  H   UNL     1       3.812   2.826  16.490  0.00  0.00    +0.000 HD
ENDBRANCH  23  28
ENDBRANCH  16  20
ENDBRANCH   1  17
TORSDOF 7
ENDMDL
MODEL 7
REMARK VINA RESULT:      -7.6      1.260      2.980
REMARK  Name = 
REMARK  9 active torsions:
REMARK  status: ('A' for Active; 'I' for Inactive)
REMARK    1  A    between atoms: C_1  and  O_2
REMARK    2  A    between atoms: O_2  and  C_3
REMARK    3  A    between atoms: C_5  and  C_6
REMARK    4  A    between atoms: N_7  and  N_8
REMARK    5  A    between atoms: C_9  and  C_11
REMARK    6  A    between atoms: N_13  and  C_14
REMARK    7  A    between atoms: C_22  and  O_23
REMARK    8  A    between atoms: O_23  and  C_24
REMARK    9  A    between atoms: C_25  and  O_26
REMARK                            x       y       z     vdW  Elec       q    Type
REMARK                         _______ _______ _______ _____ _____    ______ ____
ROOT
ATOM      1  N   UNL     1       1.363   9.130  18.550  0.00  0.00    +0.000 N 
ATOM      2  C   UNL     1       0.733   9.657  19.670  0.00  0.00    +0.000 C 
ATOM      3  O   UNL     1       1.099   9.613  20.836  0.00  0.00    +0.000 OA
ATOM      4  H   UNL     1       0.922   9.268  17.643  0.00  0.00    +0.000 HD
ENDROOT
BRANCH   2   5
ATOM      5  C   UNL     1      -0.576  10.399  19.325  0.00  0.00    +0.000 C 
ATOM      6  O   UNL     1      -1.049  11.159  20.158  0.00  0.00    +0.000 OA
ATOM      7  N   UNL     1      -1.074  10.052  18.078  0.00  0.00    +0.000 N 
ATOM      8  H   UNL     1      -0.541   9.328  17.597  0.00  0.00    +0.000 HD
BRANCH   7   9
ATOM      9  C   UNL     1      -2.262  10.515  17.480  0.00  0.00    +0.000 A 
ATOM     10  C   UNL     1      -3.209  11.286  18.162  0.00  0.00    +0.000 A 
ATOM     11  C   UNL     1      -4.390  11.691  17.530  0.00  0.00    +0.000 A 
ATOM     12  C   UNL     1      -4.638  11.323  16.210  0.00  0.00    +0.000 A 
ATOM     13  C   UNL     1      -3.691  10.569  15.523  0.00  0.00    +0.000 A 
ATOM     14 CL   UNL     1      -4.005  10.099  13.895  0.00  0.00    +0.000 Cl
ATOM     15  C   UNL     1      -2.500  10.179  16.142  0.00  0.00    +0.000 A 
ENDBRANCH   7   9
ENDBRANCH   2   5
BRANCH   1  17
ATOM     16  C   UNL     1       2.684   7.452  17.818  0.00  0.00    +0.000 C 
ATOM     17  N   UNL     1       2.518   8.414  18.669  0.00  0.00    +0.000 NA
BRANCH  16  20
ATOM     18  C   UNL     1       6.245   6.207  17.441  0.00  0.00    +0.000 A 
ATOM     19  C   UNL     1       5.113   7.033  17.407  0.00  0.00    +0.000 A 
ATOM     20  C   UNL     1       3.874   6.569  17.850  0.00  0.00    +0.000 A 
ATOM     21  C   UNL     1       3.754   5.260  18.321  0.00  0.00    +0.000 A 
ATOM     22  C   UNL     1       4.874   4.417  18.366  0.00  0.00    +0.000 A 
ATOM     23  C   UNL     1       6.122   4.894  17.927  0.00  0.00    +0.000 A 
BRANCH  18  25
ATOM     24  C   UNL     1       7.777   8.059  17.488  0.00  0.00    +0.000 C 
ATOM     25  O   UNL     1       7.354   6.827  16.928  0.00  0.00    +0.000 OA
ENDBRANCH  18  25
BRANCH  22  26
ATOM     26  O   UNL     1       4.592   3.129  18.746  0.00  0.00    +0.000 OA
ATOM     27  C   UNL     1       3.469   2.489  18.143  0.00  0.00    +0.000 C 
ENDBRANCH  22  26
BRANCH  23  28
ATOM     28  O   UNL     1       7.203   4.059  17.910  0.00  0.00    +0.000 OA
ATOM     29  H   UNL     1       6.877   3.187  18.189  0.00  0.00    +0.000 HD
ENDBRANCH  23  28
ENDBRANCH  16  20
ENDBRANCH   1  17
TORSDOF 7
ENDMDL
MODEL 8
REMARK VINA RESULT:      -7.5      3.641      4.373
REMARK  Name = 
REMARK  9 active torsions:
REMARK  status: ('A' for Active; 'I' for Inactive)
REMARK    1  A    between atoms: C_1  and  O_2
REMARK    2  A    between atoms: O_2  and  C_3
REMARK    3  A    between atoms: C_5  and  C_6
REMARK    4  A    between atoms: N_7  and  N_8
REMARK    5  A    between atoms: C_9  and  C_11
REMARK    6  A    between atoms: N_13  and  C_14
REMARK    7  A    between atoms: C_22  and  O_23
REMARK    8  A    between atoms: O_23  and  C_24
REMARK    9  A    between atoms: C_25  and  O_26
REMARK                            x       y       z     vdW  Elec       q    Type
REMARK                         _______ _______ _______ _____ _____    ______ ____
ROOT
ATOM      1  N   UNL     1       0.827   8.630  20.859  0.00  0.00    +0.000 N 
ATOM      2  C   UNL     1       0.843   9.503  21.939  0.00  0.00    +0.000 C 
ATOM      3  O   UNL     1       1.462   9.399  22.988  0.00  0.00    +0.000 OA
ATOM      4  H   UNL     1       0.259   8.877  20.051  0.00  0.00    +0.000 HD
ENDROOT
BRANCH   2   5
ATOM      5  C   UNL     1      -0.032  10.754  21.709  0.00  0.00    +0.000 C 
ATOM      6  O   UNL     1      -0.065  11.241  20.588  0.00  0.00    +0.000 OA
ATOM      7  N   UNL     1      -0.655  11.190  22.870  0.00  0.00    +0.000 N 
ATOM      8  H   UNL     1      -0.407  10.662  23.705  0.00  0.00    +0.000 HD
BRANCH   7   9
ATOM      9  C   UNL     1      -1.486  12.318  23.013  0.00  0.00    +0.000 A 
ATOM     10  C   UNL     1      -1.008  13.631  22.951  0.00  0.00    +0.000 A 
ATOM     11  C   UNL     1      -1.873  14.716  23.134  0.00  0.00    +0.000 A 
ATOM     12  C   UNL     1      -3.224  14.497  23.389  0.00  0.00    +0.000 A 
ATOM     13  C   UNL     1      -3.707  13.193  23.436  0.00  0.00    +0.000 A 
ATOM     14 CL   UNL     1      -5.375  12.920  23.768  0.00  0.00    +0.000 Cl
ATOM     15  C   UNL     1      -2.852  12.106  23.233  0.00  0.00    +0.000 A 
ENDBRANCH   7   9
ENDBRANCH   2   5
BRANCH   1  17
ATOM     16  C   UNL     1       2.146   7.124  19.814  0.00  0.00    +0.000 C 
ATOM     17  N   UNL     1       1.520   7.455  20.898  0.00  0.00    +0.000 NA
BRANCH  16  20
ATOM     18  C   UNL     1       3.063   3.452  20.016  0.00  0.00    +0.000 A 
ATOM     19  C   UNL     1       2.352   4.654  20.127  0.00  0.00    +0.000 A 
ATOM     20  C   UNL     1       2.910   5.859  19.700  0.00  0.00    +0.000 A 
ATOM     21  C   UNL     1       4.200   5.873  19.168  0.00  0.00    +0.000 A 
ATOM     22  C   UNL     1       4.930   4.682  19.046  0.00  0.00    +0.000 A 
ATOM     23  C   UNL     1       4.358   3.469  19.469  0.00  0.00    +0.000 A 
BRANCH  18  25
ATOM     24  C   UNL     1       1.472   2.601  21.605  0.00  0.00    +0.000 C 
ATOM     25  O   UNL     1       2.366   2.388  20.525  0.00  0.00    +0.000 OA
ENDBRANCH  18  25
BRANCH  22  26
ATOM     26  O   UNL     1       6.220   4.856  18.610  0.00  0.00    +0.000 OA
ATOM     27  C   UNL     1       6.420   5.156  17.231  0.00  0.00    +0.000 C 
ENDBRANCH  22  26
BRANCH  23  28
ATOM     28  O   UNL     1       5.086   2.314  19.410  0.00  0.00    +0.000 OA
ATOM     29  H   UNL     1       4.532   1.668  18.942  0.00  0.00    +0.000 HD
ENDBRANCH  23  28
ENDBRANCH  16  20
ENDBRANCH   1  17
TORSDOF 7
ENDMDL
MODEL 9
REMARK VINA RESULT:      -7.4      1.248      1.953
REMARK  Name = 
REMARK  9 active torsions:
REMARK  status: ('A' for Active; 'I' for Inactive)
REMARK    1  A    between atoms: C_1  and  O_2
REMARK    2  A    between atoms: O_2  and  C_3
REMARK    3  A    between atoms: C_5  and  C_6
REMARK    4  A    between atoms: N_7  and  N_8
REMARK    5  A    between atoms: C_9  and  C_11
REMARK    6  A    between atoms: N_13  and  C_14
REMARK    7  A    between atoms: C_22  and  O_23
REMARK    8  A    between atoms: O_23  and  C_24
REMARK    9  A    between atoms: C_25  and  O_26
REMARK                            x       y       z     vdW  Elec       q    Type
REMARK                         _______ _______ _______ _____ _____    ______ ____
ROOT
ATOM      1  N   UNL     1       1.557   8.508  18.010  0.00  0.00    +0.000 N 
ATOM      2  C   UNL     1       1.060   9.347  18.999  0.00  0.00    +0.000 C 
ATOM      3  O   UNL     1       1.362   9.385  20.182  0.00  0.00    +0.000 OA
ATOM      4  H   UNL     1       1.200   8.619  17.063  0.00  0.00    +0.000 HD
ENDROOT
BRANCH   2   5
ATOM      5  C   UNL     1       0.016  10.351  18.462  0.00  0.00    +0.000 C 
ATOM      6  O   UNL     1       0.244  11.545  18.584  0.00  0.00    +0.000 OA
ATOM      7  N   UNL     1      -1.101   9.725  17.928  0.00  0.00    +0.000 N 
ATOM      8  H   UNL     1      -1.096   8.709  18.013  0.00  0.00    +0.000 HD
BRANCH   7   9
ATOM      9  C   UNL     1      -2.246  10.345  17.393  0.00  0.00    +0.000 A 
ATOM     10  C   UNL     1      -2.535  10.362  16.025  0.00  0.00    +0.000 A 
ATOM     11  C   UNL     1      -3.670  11.023  15.542  0.00  0.00    +0.000 A 
ATOM     12  C   UNL     1      -4.523  11.681  16.423  0.00  0.00    +0.000 A 
ATOM     13  C   UNL     1      -4.248  11.654  17.787  0.00  0.00    +0.000 A 
ATOM     14 CL   UNL     1      -5.294  12.481  18.878  0.00  0.00    +0.000 Cl
ATOM     15  C   UNL     1      -3.127  10.977  18.277  0.00  0.00    +0.000 A 
ENDBRANCH   7   9
ENDBRANCH   2   5
BRANCH   1  17
ATOM     16  C   UNL     1       1.987   6.359  18.551  0.00  0.00    +0.000 C 
ATOM     17  N   UNL     1       2.467   7.536  18.308  0.00  0.00    +0.000 NA
BRANCH  16  20
ATOM     18  C   UNL     1       3.154   3.063  20.016  0.00  0.00    +0.000 A 
ATOM     19  C   UNL     1       2.343   4.151  19.666  0.00  0.00    +0.000 A 
ATOM     20  C   UNL     1       2.854   5.216  18.924  0.00  0.00    +0.000 A 
ATOM     21  C   UNL     1       4.195   5.208  18.536  0.00  0.00    +0.000 A 
ATOM     22  C   UNL     1       5.024   4.129  18.874  0.00  0.00    +0.000 A 
ATOM     23  C   UNL     1       4.500   3.053  19.613  0.00  0.00    +0.000 A 
BRANCH  18  25
ATOM     24  C   UNL     1       1.468   2.582  21.661  0.00  0.00    +0.000 C 
ATOM     25  O   UNL     1       2.484   2.141  20.776  0.00  0.00    +0.000 OA
ENDBRANCH  18  25
BRANCH  22  26
ATOM     26  O   UNL     1       6.340   4.301  18.525  0.00  0.00    +0.000 OA
ATOM     27  C   UNL     1       6.684   5.472  17.787  0.00  0.00    +0.000 C 
ENDBRANCH  22  26
BRANCH  23  28
ATOM     28  O   UNL     1       5.318   2.028  19.998  0.00  0.00    +0.000 OA
ATOM     29  H   UNL     1       4.955   1.692  20.835  0.00  0.00    +0.000 HD
ENDBRANCH  23  28
ENDBRANCH  16  20
ENDBRANCH   1  17
TORSDOF 7
ENDMDL
