MODEL 1
REMARK VINA RESULT:      -7.2      0.000      0.000
REMARK  Name = 
REMARK  3 active torsions:
REMARK  status: ('A' for Active; 'I' for Inactive)
REMARK    1  A    between atoms: C_1  and  C_2
REMARK    2  A    between atoms: C_5  and  N_6
REMARK    3  A    between atoms: C_7  and  C_9
REMARK                            x       y       z     vdW  Elec       q    Type
REMARK                         _______ _______ _______ _____ _____    ______ ____
ROOT
ATOM      1  N   UNL     1       2.165   7.538  19.798  0.00  0.00    +0.000 N 
ATOM      2  C   UNL     1       2.297   6.163  19.839  0.00  0.00    +0.000 C 
ATOM      3  O   UNL     1       1.562   5.424  20.483  0.00  0.00    +0.000 OA
ATOM      4  H   UNL     1       2.683   8.056  19.102  0.00  0.00    +0.000 HD
ENDROOT
BRANCH   2   5
ATOM      5  C   UNL     1       3.402   5.592  19.015  0.00  0.00    +0.000 A 
ATOM      6  C   UNL     1       3.094   4.945  17.806  0.00  0.00    +0.000 A 
ATOM      7  C   UNL     1       4.100   4.411  16.985  0.00  0.00    +0.000 A 
ATOM      8  C   UNL     1       5.413   4.546  17.443  0.00  0.00    +0.000 A 
ATOM      9  N   UNL     1       6.624   4.157  16.924  0.00  0.00    +0.000 N 
ATOM     10  C   UNL     1       7.600   4.544  17.796  0.00  0.00    +0.000 A 
ATOM     11  N   UNL     1       7.101   5.155  18.846  0.00  0.00    +0.000 NA
ATOM     12  C   UNL     1       5.744   5.163  18.641  0.00  0.00    +0.000 A 
ATOM     13  C   UNL     1       4.732   5.690  19.450  0.00  0.00    +0.000 A 
ATOM     14  H   UNL     1       6.766   3.673  16.051  0.00  0.00    +0.000 HD
ENDBRANCH   2   5
BRANCH   1  19
ATOM     15  C   UNL     1      -1.068  11.352  22.689  0.00  0.00    +0.000 C 
ATOM     16  C   UNL     1       0.052  10.630  21.940  0.00  0.00    +0.000 C 
ATOM     17  C   UNL     1       0.496   9.370  22.696  0.00  0.00    +0.000 C 
ATOM     18  C   UNL     1       1.566   8.593  21.929  0.00  0.00    +0.000 C 
ATOM     19  C   UNL     1       1.108   8.246  20.506  0.00  0.00    +0.000 C 
ATOM     20  C   UNL     1       0.692   9.517  19.757  0.00  0.00    +0.000 C 
ATOM     21  C   UNL     1      -0.393  10.278  20.515  0.00  0.00    +0.000 C 
ENDBRANCH   1  19
TORSDOF 2
ENDMDL
MODEL 2
REMARK VINA RESULT:      -6.9      0.982      1.245
REMARK  Name = 
REMARK  3 active torsions:
REMARK  status: ('A' for Active; 'I' for Inactive)
REMARK    1  A    between atoms: C_1  and  C_2
REMARK    2  A    between atoms: C_5  and  N_6
REMARK    3  A    between atoms: C_7  and  C_9
REMARK                            x       y       z     vdW  Elec       q    Type
REMARK                         _______ _______ _______ _____ _____    ______ ____
ROOT
ATOM      1  N   UNL     1       2.159   7.645  20.005  0.00  0.00    +0.000 N 
ATOM      2  C   UNL     1       2.257   6.266  19.991  0.00  0.00    +0.000 C 
ATOM      3  O   UNL     1       1.457   5.518  20.541  0.00  0.00    +0.000 OA
ATOM      4  H   UNL     1       2.742   8.180  19.377  0.00  0.00    +0.000 HD
ENDROOT
BRANCH   2   5
ATOM      5  C   UNL     1       3.411   5.706  19.229  0.00  0.00    +0.000 A 
ATOM      6  C   UNL     1       3.957   4.472  19.621  0.00  0.00    +0.000 A 
ATOM      7  C   UNL     1       5.029   3.893  18.922  0.00  0.00    +0.000 A 
ATOM      8  C   UNL     1       5.525   4.614  17.835  0.00  0.00    +0.000 A 
ATOM      9  N   UNL     1       6.540   4.371  16.940  0.00  0.00    +0.000 N 
ATOM     10  C   UNL     1       6.598   5.421  16.071  0.00  0.00    +0.000 A 
ATOM     11  N   UNL     1       5.689   6.331  16.345  0.00  0.00    +0.000 NA
ATOM     12  C   UNL     1       5.017   5.844  17.438  0.00  0.00    +0.000 A 
ATOM     13  C   UNL     1       3.950   6.410  18.142  0.00  0.00    +0.000 A 
ATOM     14  H   UNL     1       7.136   3.557  16.928  0.00  0.00    +0.000 HD
ENDBRANCH   2   5
BRANCH   1  19
ATOM     15  C   UNL     1      -1.237  11.446  22.722  0.00  0.00    +0.000 C 
ATOM     16  C   UNL     1      -0.078  10.731  22.027  0.00  0.00    +0.000 C 
ATOM     17  C   UNL     1       0.349   9.484  22.814  0.00  0.00    +0.000 C 
ATOM     18  C   UNL     1       1.459   8.712  22.099  0.00  0.00    +0.000 C 
ATOM     19  C   UNL     1       1.065   8.346  20.662  0.00  0.00    +0.000 C 
ATOM     20  C   UNL     1       0.665   9.605  19.883  0.00  0.00    +0.000 C 
ATOM     21  C   UNL     1      -0.460  10.360  20.589  0.00  0.00    +0.000 C 
ENDBRANCH   1  19
TORSDOF 2
ENDMDL
MODEL 3
REMARK VINA RESULT:      -6.7      2.347      7.899
REMARK  Name = 
REMARK  3 active torsions:
REMARK  status: ('A' for Active; 'I' for Inactive)
REMARK    1  A    between atoms: C_1  and  C_2
REMARK    2  A    between atoms: C_5  and  N_6
REMARK    3  A    between atoms: C_7  and  C_9
REMARK                            x       y       z     vdW  Elec       q    Type
REMARK                         _______ _______ _______ _____ _____    ______ ____
ROOT
ATOM      1  N   UNL     1       2.449   7.151  18.803  0.00  0.00    +0.000 N 
ATOM      2  C   UNL     1       1.895   8.399  18.591  0.00  0.00    +0.000 C 
ATOM      3  O   UNL     1       1.917   8.984  17.514  0.00  0.00    +0.000 OA
ATOM      4  H   UNL     1       2.226   6.658  19.657  0.00  0.00    +0.000 HD
ENDROOT
BRANCH   2   5
ATOM      5  C   UNL     1       1.222   9.019  19.769  0.00  0.00    +0.000 A 
ATOM      6  C   UNL     1       1.398   8.446  21.040  0.00  0.00    +0.000 A 
ATOM      7  C   UNL     1       0.803   9.006  22.183  0.00  0.00    +0.000 A 
ATOM      8  C   UNL     1       0.023  10.146  21.983  0.00  0.00    +0.000 A 
ATOM      9  N   UNL     1      -0.696  10.944  22.839  0.00  0.00    +0.000 N 
ATOM     10  C   UNL     1      -1.281  11.934  22.104  0.00  0.00    +0.000 A 
ATOM     11  N   UNL     1      -0.990  11.827  20.826  0.00  0.00    +0.000 NA
ATOM     12  C   UNL     1      -0.183  10.722  20.737  0.00  0.00    +0.000 A 
ATOM     13  C   UNL     1       0.414  10.154  19.606  0.00  0.00    +0.000 A 
ATOM     14  H   UNL     1      -0.775  10.822  23.838  0.00  0.00    +0.000 HD
ENDBRANCH   2   5
BRANCH   1  19
ATOM     15  C   UNL     1       5.955   3.862  15.601  0.00  0.00    +0.000 C 
ATOM     16  C   UNL     1       5.285   4.646  16.730  0.00  0.00    +0.000 C 
ATOM     17  C   UNL     1       5.239   6.145  16.405  0.00  0.00    +0.000 C 
ATOM     18  C   UNL     1       4.508   6.940  17.487  0.00  0.00    +0.000 C 
ATOM     19  C   UNL     1       3.099   6.391  17.744  0.00  0.00    +0.000 C 
ATOM     20  C   UNL     1       3.164   4.899  18.091  0.00  0.00    +0.000 C 
ATOM     21  C   UNL     1       3.875   4.106  16.996  0.00  0.00    +0.000 C 
ENDBRANCH   1  19
TORSDOF 2
ENDMDL
MODEL 4
REMARK VINA RESULT:      -6.7      6.105      7.899
REMARK  Name = 
REMARK  3 active torsions:
REMARK  status: ('A' for Active; 'I' for Inactive)
REMARK    1  A    between atoms: C_1  and  C_2
REMARK    2  A    between atoms: C_5  and  N_6
REMARK    3  A    between atoms: C_7  and  C_9
REMARK                            x       y       z     vdW  Elec       q    Type
REMARK                         _______ _______ _______ _____ _____    ______ ____
ROOT
ATOM      1  N   UNL     1       9.172   9.722  18.897  0.00  0.00    +0.000 N 
ATOM      2  C   UNL     1       8.169   9.357  18.020  0.00  0.00    +0.000 C 
ATOM      3  O   UNL     1       7.592  10.141  17.276  0.00  0.00    +0.000 OA
ATOM      4  H   UNL     1       9.725   8.997  19.334  0.00  0.00    +0.000 HD
ENDROOT
BRANCH   2   5
ATOM      5  C   UNL     1       7.820   7.906  18.001  0.00  0.00    +0.000 A 
ATOM      6  C   UNL     1       8.323   7.066  19.008  0.00  0.00    +0.000 A 
ATOM      7  C   UNL     1       8.005   5.698  19.045  0.00  0.00    +0.000 A 
ATOM      8  C   UNL     1       7.180   5.223  18.023  0.00  0.00    +0.000 A 
ATOM      9  N   UNL     1       6.673   3.978  17.739  0.00  0.00    +0.000 N 
ATOM     10  C   UNL     1       5.919   4.079  16.606  0.00  0.00    +0.000 A 
ATOM     11  N   UNL     1       5.906   5.306  16.136  0.00  0.00    +0.000 NA
ATOM     12  C   UNL     1       6.686   6.027  17.005  0.00  0.00    +0.000 A 
ATOM     13  C   UNL     1       7.010   7.387  16.980  0.00  0.00    +0.000 A 
ATOM     14  H   UNL     1       6.829   3.138  18.275  0.00  0.00    +0.000 HD
ENDBRANCH   2   5
BRANCH   1  19
ATOM     15  C   UNL     1      12.332  14.512  19.558  0.00  0.00    +0.000 C 
ATOM     16  C   UNL     1      11.841  13.068  19.444  0.00  0.00    +0.000 C 
ATOM     17  C   UNL     1      10.813  12.750  20.537  0.00  0.00    +0.000 C 
ATOM     18  C   UNL     1      10.252  11.334  20.398  0.00  0.00    +0.000 C 
ATOM     19  C   UNL     1       9.663  11.089  19.002  0.00  0.00    +0.000 C 
ATOM     20  C   UNL     1      10.709  11.388  17.923  0.00  0.00    +0.000 C 
ATOM     21  C   UNL     1      11.249  12.811  18.052  0.00  0.00    +0.000 C 
ENDBRANCH   1  19
TORSDOF 2
ENDMDL
MODEL 5
REMARK VINA RESULT:      -6.7      2.700      7.656
REMARK  Name = 
REMARK  3 active torsions:
REMARK  status: ('A' for Active; 'I' for Inactive)
REMARK    1  A    between atoms: C_1  and  C_2
REMARK    2  A    between atoms: C_5  and  N_6
REMARK    3  A    between atoms: C_7  and  C_9
REMARK                            x       y       z     vdW  Elec       q    Type
REMARK                         _______ _______ _______ _____ _____    ______ ____
ROOT
ATOM      1  N   UNL     1       1.872   6.675  20.278  0.00  0.00    +0.000 N 
ATOM      2  C   UNL     1       1.913   7.881  19.604  0.00  0.00    +0.000 C 
ATOM      3  O   UNL     1       2.586   8.081  18.599  0.00  0.00    +0.000 OA
ATOM      4  H   UNL     1       1.156   6.533  20.977  0.00  0.00    +0.000 HD
ENDROOT
BRANCH   2   5
ATOM      5  C   UNL     1       1.052   8.965  20.160  0.00  0.00    +0.000 A 
ATOM      6  C   UNL     1       0.528   9.939  19.293  0.00  0.00    +0.000 A 
ATOM      7  C   UNL     1      -0.305  10.966  19.766  0.00  0.00    +0.000 A 
ATOM      8  C   UNL     1      -0.568  10.972  21.137  0.00  0.00    +0.000 A 
ATOM      9  N   UNL     1      -1.318  11.800  21.937  0.00  0.00    +0.000 N 
ATOM     10  C   UNL     1      -1.227  11.343  23.220  0.00  0.00    +0.000 A 
ATOM     11  N   UNL     1      -0.465  10.275  23.303  0.00  0.00    +0.000 NA
ATOM     12  C   UNL     1      -0.049  10.034  22.019  0.00  0.00    +0.000 A 
ATOM     13  C   UNL     1       0.780   9.016  21.535  0.00  0.00    +0.000 A 
ATOM     14  H   UNL     1      -1.845  12.604  21.629  0.00  0.00    +0.000 HD
ENDBRANCH   2   5
BRANCH   1  19
ATOM     15  C   UNL     1       3.557   1.449  18.486  0.00  0.00    +0.000 C 
ATOM     16  C   UNL     1       2.755   2.669  18.940  0.00  0.00    +0.000 C 
ATOM     17  C   UNL     1       3.142   3.080  20.368  0.00  0.00    +0.000 C 
ATOM     18  C   UNL     1       2.406   4.343  20.816  0.00  0.00    +0.000 C 
ATOM     19  C   UNL     1       2.615   5.504  19.836  0.00  0.00    +0.000 C 
ATOM     20  C   UNL     1       2.202   5.086  18.420  0.00  0.00    +0.000 C 
ATOM     21  C   UNL     1       2.957   3.838  17.967  0.00  0.00    +0.000 C 
ENDBRANCH   1  19
TORSDOF 2
ENDMDL
MODEL 6
REMARK VINA RESULT:      -6.7      2.511      2.687
REMARK  Name = 
REMARK  3 active torsions:
REMARK  status: ('A' for Active; 'I' for Inactive)
REMARK    1  A    between atoms: C_1  and  C_2
REMARK    2  A    between atoms: C_5  and  N_6
REMARK    3  A    between atoms: C_7  and  C_9
REMARK                            x       y       z     vdW  Elec       q    Type
REMARK                         _______ _______ _______ _____ _____    ______ ____
ROOT
ATOM      1  N   UNL     1       2.306   8.501  17.934  0.00  0.00    +0.000 N 
ATOM      2  C   UNL     1       2.647   7.341  18.605  0.00  0.00    +0.000 C 
ATOM      3  O   UNL     1       2.321   7.098  19.761  0.00  0.00    +0.000 OA
ATOM      4  H   UNL     1       2.447   8.544  16.934  0.00  0.00    +0.000 HD
ENDROOT
BRANCH   2   5
ATOM      5  C   UNL     1       3.440   6.349  17.823  0.00  0.00    +0.000 A 
ATOM      6  C   UNL     1       3.068   4.994  17.855  0.00  0.00    +0.000 A 
ATOM      7  C   UNL     1       3.769   4.026  17.119  0.00  0.00    +0.000 A 
ATOM      8  C   UNL     1       4.857   4.481  16.370  0.00  0.00    +0.000 A 
ATOM      9  N   UNL     1       5.755   3.841  15.550  0.00  0.00    +0.000 N 
ATOM     10  C   UNL     1       6.626   4.776  15.068  0.00  0.00    +0.000 A 
ATOM     11  N   UNL     1       6.352   5.977  15.525  0.00  0.00    +0.000 NA
ATOM     12  C   UNL     1       5.258   5.809  16.335  0.00  0.00    +0.000 A 
ATOM     13  C   UNL     1       4.551   6.764  17.073  0.00  0.00    +0.000 A 
ATOM     14  H   UNL     1       5.767   2.855  15.339  0.00  0.00    +0.000 HD
ENDBRANCH   2   5
BRANCH   1  19
ATOM     15  C   UNL     1      -1.007  13.105  19.024  0.00  0.00    +0.000 C 
ATOM     16  C   UNL     1      -0.165  12.011  18.366  0.00  0.00    +0.000 C 
ATOM     17  C   UNL     1       1.283  12.053  18.873  0.00  0.00    +0.000 C 
ATOM     18  C   UNL     1       2.126  10.922  18.284  0.00  0.00    +0.000 C 
ATOM     19  C   UNL     1       1.494   9.547  18.540  0.00  0.00    +0.000 C 
ATOM     20  C   UNL     1       0.057   9.514  18.006  0.00  0.00    +0.000 C 
ATOM     21  C   UNL     1      -0.787  10.631  18.615  0.00  0.00    +0.000 C 
ENDBRANCH   1  19
TORSDOF 2
ENDMDL
MODEL 7
REMARK VINA RESULT:      -6.7      2.277      2.932
REMARK  Name = 
REMARK  3 active torsions:
REMARK  status: ('A' for Active; 'I' for Inactive)
REMARK    1  A    between atoms: C_1  and  C_2
REMARK    2  A    between atoms: C_5  and  N_6
REMARK    3  A    between atoms: C_7  and  C_9
REMARK                            x       y       z     vdW  Elec       q    Type
REMARK                         _______ _______ _______ _____ _____    ______ ____
ROOT
ATOM      1  N   UNL     1       1.634   8.690  19.305  0.00  0.00    +0.000 N 
ATOM      2  C   UNL     1       2.348   8.332  18.177  0.00  0.00    +0.000 C 
ATOM      3  O   UNL     1       2.448   9.035  17.179  0.00  0.00    +0.000 OA
ATOM      4  H   UNL     1       1.755   8.149  20.150  0.00  0.00    +0.000 HD
ENDROOT
BRANCH   2   5
ATOM      5  C   UNL     1       3.039   7.011  18.240  0.00  0.00    +0.000 A 
ATOM      6  C   UNL     1       4.074   6.734  17.330  0.00  0.00    +0.000 A 
ATOM      7  C   UNL     1       4.769   5.514  17.364  0.00  0.00    +0.000 A 
ATOM      8  C   UNL     1       4.366   4.595  18.334  0.00  0.00    +0.000 A 
ATOM      9  N   UNL     1       4.800   3.331  18.658  0.00  0.00    +0.000 N 
ATOM     10  C   UNL     1       4.044   2.880  19.701  0.00  0.00    +0.000 A 
ATOM     11  N   UNL     1       3.148   3.766  20.072  0.00  0.00    +0.000 NA
ATOM     12  C   UNL     1       3.335   4.834  19.232  0.00  0.00    +0.000 A 
ATOM     13  C   UNL     1       2.651   6.053  19.189  0.00  0.00    +0.000 A 
ATOM     14  H   UNL     1       5.548   2.828  18.205  0.00  0.00    +0.000 HD
ENDBRANCH   2   5
BRANCH   1  19
ATOM     15  C   UNL     1      -2.127  12.962  20.287  0.00  0.00    +0.000 C 
ATOM     16  C   UNL     1      -1.418  11.612  20.180  0.00  0.00    +0.000 C 
ATOM     17  C   UNL     1      -1.120  11.262  18.716  0.00  0.00    +0.000 C 
ATOM     18  C   UNL     1      -0.345   9.950  18.590  0.00  0.00    +0.000 C 
ATOM     19  C   UNL     1       0.944   9.967  19.423  0.00  0.00    +0.000 C 
ATOM     20  C   UNL     1       0.626  10.294  20.887  0.00  0.00    +0.000 C 
ATOM     21  C   UNL     1      -0.127  11.616  21.009  0.00  0.00    +0.000 C 
ENDBRANCH   1  19
TORSDOF 2
ENDMDL
MODEL 8
REMARK VINA RESULT:      -6.6      2.115      7.765
REMARK  Name = 
REMARK  3 active torsions:
REMARK  status: ('A' for Active; 'I' for Inactive)
REMARK    1  A    between atoms: C_1  and  C_2
REMARK    2  A    between atoms: C_5  and  N_6
REMARK    3  A    between atoms: C_7  and  C_9
REMARK                            x       y       z     vdW  Elec       q    Type
REMARK                         _______ _______ _______ _____ _____    ______ ____
ROOT
ATOM      1  N   UNL     1       2.574   7.564  18.914  0.00  0.00    +0.000 N 
ATOM      2  C   UNL     1       1.905   7.485  20.121  0.00  0.00    +0.000 C 
ATOM      3  O   UNL     1       1.992   6.535  20.891  0.00  0.00    +0.000 OA
ATOM      4  H   UNL     1       2.602   8.450  18.430  0.00  0.00    +0.000 HD
ENDROOT
BRANCH   2   5
ATOM      5  C   UNL     1       1.058   8.662  20.471  0.00  0.00    +0.000 A 
ATOM      6  C   UNL     1       0.669   9.554  19.457  0.00  0.00    +0.000 A 
ATOM      7  C   UNL     1      -0.146  10.664  19.733  0.00  0.00    +0.000 A 
ATOM      8  C   UNL     1      -0.533  10.836  21.064  0.00  0.00    +0.000 A 
ATOM      9  N   UNL     1      -1.305  11.782  21.694  0.00  0.00    +0.000 N 
ATOM     10  C   UNL     1      -1.357  11.468  23.022  0.00  0.00    +0.000 A 
ATOM     11  N   UNL     1      -0.666  10.384  23.293  0.00  0.00    +0.000 NA
ATOM     12  C   UNL     1      -0.148   9.982  22.088  0.00  0.00    +0.000 A 
ATOM     13  C   UNL     1       0.664   8.880  21.800  0.00  0.00    +0.000 A 
ATOM     14  H   UNL     1      -1.757  12.568  21.252  0.00  0.00    +0.000 HD
ENDBRANCH   2   5
BRANCH   1  19
ATOM     15  C   UNL     1       5.559   3.688  15.843  0.00  0.00    +0.000 C 
ATOM     16  C   UNL     1       4.608   4.791  16.307  0.00  0.00    +0.000 C 
ATOM     17  C   UNL     1       3.594   4.250  17.324  0.00  0.00    +0.000 C 
ATOM     18  C   UNL     1       2.679   5.353  17.858  0.00  0.00    +0.000 C 
ATOM     19  C   UNL     1       3.478   6.521  18.450  0.00  0.00    +0.000 C 
ATOM     20  C   UNL     1       4.469   7.066  17.414  0.00  0.00    +0.000 C 
ATOM     21  C   UNL     1       5.396   5.966  16.901  0.00  0.00    +0.000 C 
ENDBRANCH   1  19
TORSDOF 2
ENDMDL
MODEL 9
REMARK VINA RESULT:      -6.6      1.365      1.647
REMARK  Name = 
REMARK  3 active torsions:
REMARK  status: ('A' for Active; 'I' for Inactive)
REMARK    1  A    between atoms: C_1  and  C_2
REMARK    2  A    between atoms: C_5  and  N_6
REMARK    3  A    between atoms: C_7  and  C_9
REMARK                            x       y       z     vdW  Elec       q    Type
REMARK                         _______ _______ _______ _____ _____    ______ ____
ROOT
ATOM      1  N   UNL     1       2.147   7.609  20.065  0.00  0.00    +0.000 N 
ATOM      2  C   UNL     1       2.430   7.411  18.727  0.00  0.00    +0.000 C 
ATOM      3  O   UNL     1       1.788   7.912  17.811  0.00  0.00    +0.000 OA
ATOM      4  H   UNL     1       2.827   7.321  20.754  0.00  0.00    +0.000 HD
ENDROOT
BRANCH   2   5
ATOM      5  C   UNL     1       3.610   6.547  18.435  0.00  0.00    +0.000 A 
ATOM      6  C   UNL     1       3.993   5.569  19.368  0.00  0.00    +0.000 A 
ATOM      7  C   UNL     1       5.084   4.717  19.128  0.00  0.00    +0.000 A 
ATOM      8  C   UNL     1       5.768   4.906  17.925  0.00  0.00    +0.000 A 
ATOM      9  N   UNL     1       6.855   4.281  17.364  0.00  0.00    +0.000 N 
ATOM     10  C   UNL     1       7.109   4.874  16.162  0.00  0.00    +0.000 A 
ATOM     11  N   UNL     1       6.261   5.844  15.908  0.00  0.00    +0.000 NA
ATOM     12  C   UNL     1       5.423   5.877  16.994  0.00  0.00    +0.000 A 
ATOM     13  C   UNL     1       4.335   6.719  17.246  0.00  0.00    +0.000 A 
ATOM     14  H   UNL     1       7.372   3.515  17.770  0.00  0.00    +0.000 HD
ENDBRANCH   2   5
BRANCH   1  19
ATOM     15  C   UNL     1      -1.129  11.764  22.383  0.00  0.00    +0.000 C 
ATOM     16  C   UNL     1       0.029  10.885  21.909  0.00  0.00    +0.000 C 
ATOM     17  C   UNL     1      -0.030   9.498  22.563  0.00  0.00    +0.000 C 
ATOM     18  C   UNL     1       1.077   8.577  22.048  0.00  0.00    +0.000 C 
ATOM     19  C   UNL     1       1.058   8.464  20.518  0.00  0.00    +0.000 C 
ATOM     20  C   UNL     1       1.143   9.856  19.881  0.00  0.00    +0.000 C 
ATOM     21  C   UNL     1       0.022  10.764  20.380  0.00  0.00    +0.000 C 
ENDBRANCH   1  19
TORSDOF 2
ENDMDL
