MODEL 1
REMARK VINA RESULT:      -6.1      0.000      0.000
REMARK  Name = 
REMARK  1 active torsions:
REMARK  status: ('A' for Active; 'I' for Inactive)
REMARK    1  A    between atoms: C_1  and  C_2
REMARK                            x       y       z     vdW  Elec       q    Type
REMARK                         _______ _______ _______ _____ _____    ______ ____
ROOT
ATOM      1  C   UNL     1       1.145   2.942  20.476  0.00  0.00    +0.000 C 
ATOM      2  C   UNL     1       2.203   3.305  19.479  0.00  0.00    +0.000 A 
ATOM      3  C   UNL     1       1.887   3.518  18.131  0.00  0.00    +0.000 A 
ATOM      4  C   UNL     1       2.894   3.841  17.221  0.00  0.00    +0.000 A 
ATOM      5  C   UNL     1       4.223   3.957  17.657  0.00  0.00    +0.000 A 
ATOM      6  N   UNL     1       5.241   4.288  16.707  0.00  0.00    +0.000 N 
ATOM      7  C   UNL     1       6.655   4.456  16.919  0.00  0.00    +0.000 C 
ATOM      8  N   UNL     1       7.225   4.316  18.067  0.00  0.00    +0.000 NA
ATOM      9  N   UNL     1       7.471   4.793  15.809  0.00  0.00    +0.000 N 
ATOM     10  N   UNL     1       4.499   3.749  18.974  0.00  0.00    +0.000 NA
ATOM     11  C   UNL     1       3.537   3.432  19.882  0.00  0.00    +0.000 A 
ATOM     12  H   UNL     1       4.924   4.425  15.734  0.00  0.00    +0.000 HD
ATOM     13  H   UNL     1       6.761   4.074  18.946  0.00  0.00    +0.000 HD
ATOM     14  H   UNL     1       7.059   4.915  14.873  0.00  0.00    +0.000 HD
ATOM     15  H   UNL     1       8.486   4.922  15.924  0.00  0.00    +0.000 HD
ENDROOT
TORSDOF 0
ENDMDL
MODEL 2
REMARK VINA RESULT:      -6.0      2.181      4.648
REMARK  Name = 
REMARK  1 active torsions:
REMARK  status: ('A' for Active; 'I' for Inactive)
REMARK    1  A    between atoms: C_1  and  C_2
REMARK                            x       y       z     vdW  Elec       q    Type
REMARK                         _______ _______ _______ _____ _____    ______ ____
ROOT
ATOM      1  C   UNL     1       7.838   7.758  17.719  0.00  0.00    +0.000 C 
ATOM      2  C   UNL     1       6.850   6.630  17.726  0.00  0.00    +0.000 A 
ATOM      3  C   UNL     1       5.813   6.569  16.788  0.00  0.00    +0.000 A 
ATOM      4  C   UNL     1       4.898   5.516  16.825  0.00  0.00    +0.000 A 
ATOM      5  C   UNL     1       5.022   4.515  17.801  0.00  0.00    +0.000 A 
ATOM      6  N   UNL     1       4.072   3.444  17.824  0.00  0.00    +0.000 N 
ATOM      7  C   UNL     1       3.998   2.322  18.722  0.00  0.00    +0.000 C 
ATOM      8  N   UNL     1       4.827   2.126  19.688  0.00  0.00    +0.000 NA
ATOM      9  N   UNL     1       2.956   1.376  18.538  0.00  0.00    +0.000 N 
ATOM     10  N   UNL     1       6.043   4.599  18.698  0.00  0.00    +0.000 NA
ATOM     11  C   UNL     1       6.947   5.615  18.685  0.00  0.00    +0.000 A 
ATOM     12  H   UNL     1       3.337   3.476  17.099  0.00  0.00    +0.000 HD
ATOM     13  H   UNL     1       5.619   2.724  19.935  0.00  0.00    +0.000 HD
ATOM     14  H   UNL     1       2.270   1.492  17.780  0.00  0.00    +0.000 HD
ATOM     15  H   UNL     1       2.873   0.561  19.162  0.00  0.00    +0.000 HD
ENDROOT
TORSDOF 0
ENDMDL
MODEL 3
REMARK VINA RESULT:      -5.8      1.471      1.553
REMARK  Name = 
REMARK  1 active torsions:
REMARK  status: ('A' for Active; 'I' for Inactive)
REMARK    1  A    between atoms: C_1  and  C_2
REMARK                            x       y       z     vdW  Elec       q    Type
REMARK                         _______ _______ _______ _____ _____    ______ ____
ROOT
ATOM      1  C   UNL     1       0.734   2.423  18.781  0.00  0.00    +0.000 C 
ATOM      2  C   UNL     1       1.890   3.253  18.311  0.00  0.00    +0.000 A 
ATOM      3  C   UNL     1       1.860   4.651  18.397  0.00  0.00    +0.000 A 
ATOM      4  C   UNL     1       2.944   5.402  17.940  0.00  0.00    +0.000 A 
ATOM      5  C   UNL     1       4.065   4.755  17.397  0.00  0.00    +0.000 A 
ATOM      6  N   UNL     1       5.166   5.543  16.931  0.00  0.00    +0.000 N 
ATOM      7  C   UNL     1       6.404   5.106  16.342  0.00  0.00    +0.000 C 
ATOM      8  N   UNL     1       6.699   3.868  16.139  0.00  0.00    +0.000 NA
ATOM      9  N   UNL     1       7.355   6.088  15.961  0.00  0.00    +0.000 N 
ATOM     10  N   UNL     1       4.066   3.395  17.330  0.00  0.00    +0.000 NA
ATOM     11  C   UNL     1       3.024   2.639  17.768  0.00  0.00    +0.000 A 
ATOM     12  H   UNL     1       5.062   6.566  17.028  0.00  0.00    +0.000 HD
ATOM     13  H   UNL     1       6.111   3.063  16.362  0.00  0.00    +0.000 HD
ATOM     14  H   UNL     1       7.162   7.089  16.103  0.00  0.00    +0.000 HD
ATOM     15  H   UNL     1       8.252   5.811  15.537  0.00  0.00    +0.000 HD
ENDROOT
TORSDOF 0
ENDMDL
MODEL 4
REMARK VINA RESULT:      -5.7      1.707      1.726
REMARK  Name = 
REMARK  1 active torsions:
REMARK  status: ('A' for Active; 'I' for Inactive)
REMARK    1  A    between atoms: C_1  and  C_2
REMARK                            x       y       z     vdW  Elec       q    Type
REMARK                         _______ _______ _______ _____ _____    ______ ____
ROOT
ATOM      1  C   UNL     1       2.027   2.606  21.359  0.00  0.00    +0.000 C 
ATOM      2  C   UNL     1       2.955   3.457  20.545  0.00  0.00    +0.000 A 
ATOM      3  C   UNL     1       2.654   4.795  20.265  0.00  0.00    +0.000 A 
ATOM      4  C   UNL     1       3.528   5.561  19.493  0.00  0.00    +0.000 A 
ATOM      5  C   UNL     1       4.712   4.990  19.001  0.00  0.00    +0.000 A 
ATOM      6  N   UNL     1       5.595   5.792  18.209  0.00  0.00    +0.000 N 
ATOM      7  C   UNL     1       6.848   5.426  17.603  0.00  0.00    +0.000 C 
ATOM      8  N   UNL     1       7.368   4.251  17.696  0.00  0.00    +0.000 NA
ATOM      9  N   UNL     1       7.553   6.408  16.860  0.00  0.00    +0.000 N 
ATOM     10  N   UNL     1       4.980   3.688  19.294  0.00  0.00    +0.000 NA
ATOM     11  C   UNL     1       4.145   2.918  20.043  0.00  0.00    +0.000 A 
ATOM     12  H   UNL     1       5.297   6.767  18.047  0.00  0.00    +0.000 HD
ATOM     13  H   UNL     1       6.971   3.452  18.195  0.00  0.00    +0.000 HD
ATOM     14  H   UNL     1       7.175   7.361  16.759  0.00  0.00    +0.000 HD
ATOM     15  H   UNL     1       8.452   6.182  16.414  0.00  0.00    +0.000 HD
ENDROOT
TORSDOF 0
ENDMDL
MODEL 5
REMARK VINA RESULT:      -5.7      2.433      5.193
REMARK  Name = 
REMARK  1 active torsions:
REMARK  status: ('A' for Active; 'I' for Inactive)
REMARK    1  A    between atoms: C_1  and  C_2
REMARK                            x       y       z     vdW  Elec       q    Type
REMARK                         _______ _______ _______ _____ _____    ______ ____
ROOT
ATOM      1  C   UNL     1       8.018   8.628  17.627  0.00  0.00    +0.000 C 
ATOM      2  C   UNL     1       7.359   7.304  17.873  0.00  0.00    +0.000 A 
ATOM      3  C   UNL     1       7.917   6.369  18.754  0.00  0.00    +0.000 A 
ATOM      4  C   UNL     1       7.291   5.139  18.955  0.00  0.00    +0.000 A 
ATOM      5  C   UNL     1       6.100   4.840  18.275  0.00  0.00    +0.000 A 
ATOM      6  N   UNL     1       5.474   3.570  18.494  0.00  0.00    +0.000 N 
ATOM      7  C   UNL     1       4.265   3.048  17.914  0.00  0.00    +0.000 C 
ATOM      8  N   UNL     1       3.545   3.696  17.064  0.00  0.00    +0.000 NA
ATOM      9  N   UNL     1       3.838   1.750  18.294  0.00  0.00    +0.000 N 
ATOM     10  N   UNL     1       5.579   5.770  17.429  0.00  0.00    +0.000 NA
ATOM     11  C   UNL     1       6.169   6.976  17.214  0.00  0.00    +0.000 A 
ATOM     12  H   UNL     1       5.953   2.939  19.156  0.00  0.00    +0.000 HD
ATOM     13  H   UNL     1       3.733   4.633  16.703  0.00  0.00    +0.000 HD
ATOM     14  H   UNL     1       4.383   1.195  18.970  0.00  0.00    +0.000 HD
ATOM     15  H   UNL     1       2.977   1.345  17.900  0.00  0.00    +0.000 HD
ENDROOT
TORSDOF 0
ENDMDL
MODEL 6
REMARK VINA RESULT:      -5.7      1.828      2.417
REMARK  Name = 
REMARK  1 active torsions:
REMARK  status: ('A' for Active; 'I' for Inactive)
REMARK    1  A    between atoms: C_1  and  C_2
REMARK                            x       y       z     vdW  Elec       q    Type
REMARK                         _______ _______ _______ _____ _____    ______ ____
ROOT
ATOM      1  C   UNL     1       1.549   4.231  19.065  0.00  0.00    +0.000 C 
ATOM      2  C   UNL     1       2.697   4.628  18.186  0.00  0.00    +0.000 A 
ATOM      3  C   UNL     1       3.165   5.948  18.157  0.00  0.00    +0.000 A 
ATOM      4  C   UNL     1       4.226   6.294  17.320  0.00  0.00    +0.000 A 
ATOM      5  C   UNL     1       4.826   5.318  16.509  0.00  0.00    +0.000 A 
ATOM      6  N   UNL     1       5.912   5.694  15.655  0.00  0.00    +0.000 N 
ATOM      7  C   UNL     1       6.671   4.876  14.746  0.00  0.00    +0.000 C 
ATOM      8  N   UNL     1       6.453   3.618  14.567  0.00  0.00    +0.000 NA
ATOM      9  N   UNL     1       7.716   5.482  14.002  0.00  0.00    +0.000 N 
ATOM     10  N   UNL     1       4.352   4.043  16.562  0.00  0.00    +0.000 NA
ATOM     11  C   UNL     1       3.319   3.678  17.368  0.00  0.00    +0.000 A 
ATOM     12  H   UNL     1       6.193   6.686  15.692  0.00  0.00    +0.000 HD
ATOM     13  H   UNL     1       5.736   3.057  15.032  0.00  0.00    +0.000 HD
ATOM     14  H   UNL     1       7.926   6.484  14.112  0.00  0.00    +0.000 HD
ATOM     15  H   UNL     1       8.280   4.927  13.343  0.00  0.00    +0.000 HD
ENDROOT
TORSDOF 0
ENDMDL
MODEL 7
REMARK VINA RESULT:      -5.6      1.192      1.766
REMARK  Name = 
REMARK  1 active torsions:
REMARK  status: ('A' for Active; 'I' for Inactive)
REMARK    1  A    between atoms: C_1  and  C_2
REMARK                            x       y       z     vdW  Elec       q    Type
REMARK                         _______ _______ _______ _____ _____    ______ ____
ROOT
ATOM      1  C   UNL     1       0.743   3.595  20.408  0.00  0.00    +0.000 C 
ATOM      2  C   UNL     1       2.131   3.627  19.844  0.00  0.00    +0.000 A 
ATOM      3  C   UNL     1       3.116   2.737  20.290  0.00  0.00    +0.000 A 
ATOM      4  C   UNL     1       4.404   2.797  19.758  0.00  0.00    +0.000 A 
ATOM      5  C   UNL     1       4.711   3.748  18.772  0.00  0.00    +0.000 A 
ATOM      6  N   UNL     1       6.040   3.794  18.240  0.00  0.00    +0.000 N 
ATOM      7  C   UNL     1       6.581   4.674  17.238  0.00  0.00    +0.000 C 
ATOM      8  N   UNL     1       5.896   5.597  16.654  0.00  0.00    +0.000 NA
ATOM      9  N   UNL     1       7.942   4.522  16.867  0.00  0.00    +0.000 N 
ATOM     10  N   UNL     1       3.732   4.597  18.355  0.00  0.00    +0.000 NA
ATOM     11  C   UNL     1       2.469   4.561  18.858  0.00  0.00    +0.000 A 
ATOM     12  H   UNL     1       6.706   3.106  18.626  0.00  0.00    +0.000 HD
ATOM     13  H   UNL     1       4.912   5.818  16.824  0.00  0.00    +0.000 HD
ATOM     14  H   UNL     1       8.528   3.798  17.307  0.00  0.00    +0.000 HD
ATOM     15  H   UNL     1       8.362   5.133  16.153  0.00  0.00    +0.000 HD
ENDROOT
TORSDOF 0
ENDMDL
MODEL 8
REMARK VINA RESULT:      -5.6      2.686      4.094
REMARK  Name = 
REMARK  1 active torsions:
REMARK  status: ('A' for Active; 'I' for Inactive)
REMARK    1  A    between atoms: C_1  and  C_2
REMARK                            x       y       z     vdW  Elec       q    Type
REMARK                         _______ _______ _______ _____ _____    ______ ____
ROOT
ATOM      1  C   UNL     1       2.571   8.450  17.807  0.00  0.00    +0.000 C 
ATOM      2  C   UNL     1       3.039   7.027  17.863  0.00  0.00    +0.000 A 
ATOM      3  C   UNL     1       4.351   6.681  17.514  0.00  0.00    +0.000 A 
ATOM      4  C   UNL     1       4.757   5.347  17.561  0.00  0.00    +0.000 A 
ATOM      5  C   UNL     1       3.851   4.353  17.962  0.00  0.00    +0.000 A 
ATOM      6  N   UNL     1       4.288   2.989  18.002  0.00  0.00    +0.000 N 
ATOM      7  C   UNL     1       3.545   1.814  18.374  0.00  0.00    +0.000 C 
ATOM      8  N   UNL     1       2.309   1.838  18.739  0.00  0.00    +0.000 NA
ATOM      9  N   UNL     1       4.204   0.558  18.339  0.00  0.00    +0.000 N 
ATOM     10  N   UNL     1       2.585   4.720  18.300  0.00  0.00    +0.000 NA
ATOM     11  C   UNL     1       2.162   6.012  18.262  0.00  0.00    +0.000 A 
ATOM     12  H   UNL     1       5.268   2.820  17.726  0.00  0.00    +0.000 HD
ATOM     13  H   UNL     1       1.715   2.667  18.807  0.00  0.00    +0.000 HD
ATOM     14  H   UNL     1       5.191   0.491  18.054  0.00  0.00    +0.000 HD
ATOM     15  H   UNL     1       3.703  -0.303  18.600  0.00  0.00    +0.000 HD
ENDROOT
TORSDOF 0
ENDMDL
MODEL 9
REMARK VINA RESULT:      -5.6      1.603      2.108
REMARK  Name = 
REMARK  1 active torsions:
REMARK  status: ('A' for Active; 'I' for Inactive)
REMARK    1  A    between atoms: C_1  and  C_2
REMARK                            x       y       z     vdW  Elec       q    Type
REMARK                         _______ _______ _______ _____ _____    ______ ____
ROOT
ATOM      1  C   UNL     1       0.904   2.540  18.788  0.00  0.00    +0.000 C 
ATOM      2  C   UNL     1       2.160   3.341  18.956  0.00  0.00    +0.000 A 
ATOM      3  C   UNL     1       2.174   4.517  19.717  0.00  0.00    +0.000 A 
ATOM      4  C   UNL     1       3.353   5.252  19.846  0.00  0.00    +0.000 A 
ATOM      5  C   UNL     1       4.526   4.810  19.215  0.00  0.00    +0.000 A 
ATOM      6  N   UNL     1       5.726   5.579  19.358  0.00  0.00    +0.000 N 
ATOM      7  C   UNL     1       7.031   5.327  18.807  0.00  0.00    +0.000 C 
ATOM      8  N   UNL     1       7.306   4.312  18.062  0.00  0.00    +0.000 NA
ATOM      9  N   UNL     1       8.076   6.242  19.097  0.00  0.00    +0.000 N 
ATOM     10  N   UNL     1       4.483   3.661  18.485  0.00  0.00    +0.000 NA
ATOM     11  C   UNL     1       3.348   2.926  18.343  0.00  0.00    +0.000 A 
ATOM     12  H   UNL     1       5.649   6.433  19.933  0.00  0.00    +0.000 HD
ATOM     13  H   UNL     1       6.654   3.580  17.773  0.00  0.00    +0.000 HD
ATOM     14  H   UNL     1       7.902   7.067  19.688  0.00  0.00    +0.000 HD
ATOM     15  H   UNL     1       9.022   6.092  18.721  0.00  0.00    +0.000 HD
ENDROOT
TORSDOF 0
ENDMDL
