MODEL 1
REMARK VINA RESULT:      -8.5      0.000      0.000
REMARK  Name = 
REMARK  10 active torsions:
REMARK  status: ('A' for Active; 'I' for Inactive)
REMARK    1  A    between atoms: C_1  and  O_2
REMARK    2  A    between atoms: O_2  and  C_3
REMARK    3  A    between atoms: C_6  and  C_7
REMARK    4  A    between atoms: C_7  and  C_8
REMARK    5  A    between atoms: C_8  and  C_9
REMARK    6  A    between atoms: C_9  and  C_10
REMARK    7  A    between atoms: C_13  and  S_14
REMARK    8  A    between atoms: S_14  and  C_15
REMARK    9  A    between atoms: C_15  and  C_16
REMARK   10  A    between atoms: N_18  and  C_19
REMARK                            x       y       z     vdW  Elec       q    Type
REMARK                         _______ _______ _______ _____ _____    ______ ____
ROOT
ATOM      1  C   UNL     1       7.630   7.338  17.645  0.00  0.00    +0.000 A 
ATOM      2  N   UNL     1       6.782   7.837  16.772  0.00  0.00    +0.000 NA
ATOM      3  N   UNL     1       6.212   6.763  16.135  0.00  0.00    +0.000 NA
ATOM      4  C   UNL     1       6.754   5.679  16.655  0.00  0.00    +0.000 A 
ATOM      5  O   UNL     1       7.664   5.970  17.635  0.00  0.00    +0.000 OA
ENDROOT
BRANCH   1   6
ATOM      6  C   UNL     1       8.462   8.037  18.652  0.00  0.00    +0.000 C 
BRANCH   6   7
ATOM      7  C   UNL     1       8.623   9.521  18.314  0.00  0.00    +0.000 C 
BRANCH   7   8
ATOM      8  C   UNL     1       9.383  10.287  19.403  0.00  0.00    +0.000 C 
BRANCH   8  12
ATOM      9  C   UNL     1      11.543  13.664  17.799  0.00  0.00    +0.000 A 
ATOM     10  C   UNL     1      12.182  12.750  18.637  0.00  0.00    +0.000 A 
ATOM     11  C   UNL     1      11.486  11.657  19.157  0.00  0.00    +0.000 A 
ATOM     12  C   UNL     1      10.132  11.470  18.850  0.00  0.00    +0.000 A 
ATOM     13  C   UNL     1       9.488  12.405  18.032  0.00  0.00    +0.000 A 
ATOM     14  C   UNL     1      10.191  13.496  17.507  0.00  0.00    +0.000 A 
BRANCH   9  16
ATOM     15  C   UNL     1      11.643  15.890  17.006  0.00  0.00    +0.000 C 
ATOM     16  O   UNL     1      12.328  14.693  17.358  0.00  0.00    +0.000 OA
ENDBRANCH   9  16
ENDBRANCH   8  12
ENDBRANCH   7   8
ENDBRANCH   6   7
ENDBRANCH   1   6
BRANCH   4  17
ATOM     17  S   UNL     1       6.414   4.074  16.100  0.00  0.00    +0.000 S 
BRANCH  17  18
ATOM     18  C   UNL     1       4.614   4.202  15.883  0.00  0.00    +0.000 C 
BRANCH  18  19
ATOM     19  C   UNL     1       3.924   4.347  17.231  0.00  0.00    +0.000 C 
ATOM     20  O   UNL     1       3.910   5.441  17.797  0.00  0.00    +0.000 OA
ATOM     21  N   UNL     1       3.380   3.174  17.730  0.00  0.00    +0.000 N 
ATOM     22  H   UNL     1       3.633   2.295  17.277  0.00  0.00    +0.000 HD
BRANCH  21  23
ATOM     23  C   UNL     1       2.710   3.028  18.968  0.00  0.00    +0.000 A 
ATOM     24  C   UNL     1       1.345   3.264  19.136  0.00  0.00    +0.000 A 
ATOM     25  C   UNL     1       0.752   3.138  20.396  0.00  0.00    +0.000 A 
ATOM     26  C   UNL     1       1.515   2.772  21.503  0.00  0.00    +0.000 A 
ATOM     27  C   UNL     1       2.875   2.511  21.345  0.00  0.00    +0.000 A 
ATOM     28  C   UNL     1       3.457   2.630  20.084  0.00  0.00    +0.000 A 
ATOM     29  F   UNL     1       4.767   2.383  19.958  0.00  0.00    +0.000 F 
ENDBRANCH  21  23
ENDBRANCH  18  19
ENDBRANCH  17  18
ENDBRANCH   4  17
TORSDOF 9
ENDMDL
MODEL 2
REMARK VINA RESULT:      -8.4      1.086      1.217
REMARK  Name = 
REMARK  10 active torsions:
REMARK  status: ('A' for Active; 'I' for Inactive)
REMARK    1  A    between atoms: C_1  and  O_2
REMARK    2  A    between atoms: O_2  and  C_3
REMARK    3  A    between atoms: C_6  and  C_7
REMARK    4  A    between atoms: C_7  and  C_8
REMARK    5  A    between atoms: C_8  and  C_9
REMARK    6  A    between atoms: C_9  and  C_10
REMARK    7  A    between atoms: C_13  and  S_14
REMARK    8  A    between atoms: S_14  and  C_15
REMARK    9  A    between atoms: C_15  and  C_16
REMARK   10  A    between atoms: N_18  and  C_19
REMARK                            x       y       z     vdW  Elec       q    Type
REMARK                         _______ _______ _______ _____ _____    ______ ____
ROOT
ATOM      1  C   UNL     1       7.595   7.449  17.825  0.00  0.00    +0.000 A 
ATOM      2  N   UNL     1       7.947   6.620  18.783  0.00  0.00    +0.000 NA
ATOM      3  N   UNL     1       7.688   5.357  18.311  0.00  0.00    +0.000 NA
ATOM      4  C   UNL     1       7.188   5.498  17.099  0.00  0.00    +0.000 A 
ATOM      5  O   UNL     1       7.109   6.809  16.717  0.00  0.00    +0.000 OA
ENDROOT
BRANCH   1   6
ATOM      6  C   UNL     1       7.725   8.923  17.764  0.00  0.00    +0.000 C 
BRANCH   6   7
ATOM      7  C   UNL     1       9.146   9.376  18.108  0.00  0.00    +0.000 C 
BRANCH   7   8
ATOM      8  C   UNL     1       9.174  10.378  19.268  0.00  0.00    +0.000 C 
BRANCH   8  12
ATOM      9  C   UNL     1      11.125  14.080  18.205  0.00  0.00    +0.000 A 
ATOM     10  C   UNL     1      10.159  14.053  19.211  0.00  0.00    +0.000 A 
ATOM     11  C   UNL     1       9.526  12.858  19.557  0.00  0.00    +0.000 A 
ATOM     12  C   UNL     1       9.849  11.669  18.889  0.00  0.00    +0.000 A 
ATOM     13  C   UNL     1      10.798  11.705  17.862  0.00  0.00    +0.000 A 
ATOM     14  C   UNL     1      11.434  12.905  17.523  0.00  0.00    +0.000 A 
BRANCH   9  16
ATOM     15  C   UNL     1      11.163  15.990  16.811  0.00  0.00    +0.000 C 
ATOM     16  O   UNL     1      11.669  15.309  17.955  0.00  0.00    +0.000 OA
ENDBRANCH   9  16
ENDBRANCH   8  12
ENDBRANCH   7   8
ENDBRANCH   6   7
ENDBRANCH   1   6
BRANCH   4  17
ATOM     17  S   UNL     1       6.619   4.176  16.135  0.00  0.00    +0.000 S 
BRANCH  17  18
ATOM     18  C   UNL     1       4.939   4.767  15.770  0.00  0.00    +0.000 C 
BRANCH  18  19
ATOM     19  C   UNL     1       4.100   4.806  17.038  0.00  0.00    +0.000 C 
ATOM     20  O   UNL     1       3.902   5.880  17.608  0.00  0.00    +0.000 OA
ATOM     21  N   UNL     1       3.645   3.570  17.466  0.00  0.00    +0.000 N 
ATOM     22  H   UNL     1       4.044   2.734  17.036  0.00  0.00    +0.000 HD
BRANCH  21  23
ATOM     23  C   UNL     1       2.870   3.324  18.626  0.00  0.00    +0.000 A 
ATOM     24  C   UNL     1       1.478   3.403  18.651  0.00  0.00    +0.000 A 
ATOM     25  C   UNL     1       0.775   3.186  19.839  0.00  0.00    +0.000 A 
ATOM     26  C   UNL     1       1.455   2.882  21.018  0.00  0.00    +0.000 A 
ATOM     27  C   UNL     1       2.844   2.777  21.001  0.00  0.00    +0.000 A 
ATOM     28  C   UNL     1       3.537   2.987  19.811  0.00  0.00    +0.000 A 
ATOM     29  F   UNL     1       4.873   2.889  19.821  0.00  0.00    +0.000 F 
ENDBRANCH  21  23
ENDBRANCH  18  19
ENDBRANCH  17  18
ENDBRANCH   4  17
TORSDOF 9
ENDMDL
MODEL 3
REMARK VINA RESULT:      -8.4      1.515      1.547
REMARK  Name = 
REMARK  10 active torsions:
REMARK  status: ('A' for Active; 'I' for Inactive)
REMARK    1  A    between atoms: C_1  and  O_2
REMARK    2  A    between atoms: O_2  and  C_3
REMARK    3  A    between atoms: C_6  and  C_7
REMARK    4  A    between atoms: C_7  and  C_8
REMARK    5  A    between atoms: C_8  and  C_9
REMARK    6  A    between atoms: C_9  and  C_10
REMARK    7  A    between atoms: C_13  and  S_14
REMARK    8  A    between atoms: S_14  and  C_15
REMARK    9  A    between atoms: C_15  and  C_16
REMARK   10  A    between atoms: N_18  and  C_19
REMARK                            x       y       z     vdW  Elec       q    Type
REMARK                         _______ _______ _______ _____ _____    ______ ____
ROOT
ATOM      1  C   UNL     1       7.596   7.554  17.726  0.00  0.00    +0.000 A 
ATOM      2  N   UNL     1       7.935   6.615  18.581  0.00  0.00    +0.000 NA
ATOM      3  N   UNL     1       7.744   5.420  17.932  0.00  0.00    +0.000 NA
ATOM      4  C   UNL     1       7.294   5.708  16.727  0.00  0.00    +0.000 A 
ATOM      5  O   UNL     1       7.184   7.056  16.520  0.00  0.00    +0.000 OA
ENDROOT
BRANCH   1   6
ATOM      6  C   UNL     1       7.676   9.027  17.868  0.00  0.00    +0.000 C 
BRANCH   6   7
ATOM      7  C   UNL     1       9.109   9.488  18.143  0.00  0.00    +0.000 C 
BRANCH   7   8
ATOM      8  C   UNL     1       9.182  10.526  19.269  0.00  0.00    +0.000 C 
BRANCH   8  12
ATOM      9  C   UNL     1      11.127  14.162  17.991  0.00  0.00    +0.000 A 
ATOM     10  C   UNL     1      11.494  12.934  17.442  0.00  0.00    +0.000 A 
ATOM     11  C   UNL     1      10.867  11.756  17.852  0.00  0.00    +0.000 A 
ATOM     12  C   UNL     1       9.865  11.794  18.832  0.00  0.00    +0.000 A 
ATOM     13  C   UNL     1       9.520  13.025  19.401  0.00  0.00    +0.000 A 
ATOM     14  C   UNL     1      10.147  14.204  18.982  0.00  0.00    +0.000 A 
BRANCH   9  16
ATOM     15  C   UNL     1      11.055  16.181  16.761  0.00  0.00    +0.000 C 
ATOM     16  O   UNL     1      11.816  15.242  17.512  0.00  0.00    +0.000 OA
ENDBRANCH   9  16
ENDBRANCH   8  12
ENDBRANCH   7   8
ENDBRANCH   6   7
ENDBRANCH   1   6
BRANCH   4  17
ATOM     17  S   UNL     1       6.817   4.512  15.568  0.00  0.00    +0.000 S 
BRANCH  17  18
ATOM     18  C   UNL     1       5.018   4.771  15.587  0.00  0.00    +0.000 C 
BRANCH  18  19
ATOM     19  C   UNL     1       4.394   4.088  16.794  0.00  0.00    +0.000 C 
ATOM     20  O   UNL     1       4.770   2.962  17.123  0.00  0.00    +0.000 OA
ATOM     21  N   UNL     1       3.394   4.817  17.417  0.00  0.00    +0.000 N 
ATOM     22  H   UNL     1       3.025   5.638  16.935  0.00  0.00    +0.000 HD
BRANCH  21  23
ATOM     23  C   UNL     1       2.637   4.403  18.540  0.00  0.00    +0.000 A 
ATOM     24  C   UNL     1       1.517   3.577  18.449  0.00  0.00    +0.000 A 
ATOM     25  C   UNL     1       0.791   3.235  19.593  0.00  0.00    +0.000 A 
ATOM     26  C   UNL     1       1.179   3.711  20.845  0.00  0.00    +0.000 A 
ATOM     27  C   UNL     1       2.310   4.517  20.953  0.00  0.00    +0.000 A 
ATOM     28  C   UNL     1       3.033   4.847  19.808  0.00  0.00    +0.000 A 
ATOM     29  F   UNL     1       4.112   5.630  19.935  0.00  0.00    +0.000 F 
ENDBRANCH  21  23
ENDBRANCH  18  19
ENDBRANCH  17  18
ENDBRANCH   4  17
TORSDOF 9
ENDMDL
MODEL 4
REMARK VINA RESULT:      -8.3      3.048      3.510
REMARK  Name = 
REMARK  10 active torsions:
REMARK  status: ('A' for Active; 'I' for Inactive)
REMARK    1  A    between atoms: C_1  and  O_2
REMARK    2  A    between atoms: O_2  and  C_3
REMARK    3  A    between atoms: C_6  and  C_7
REMARK    4  A    between atoms: C_7  and  C_8
REMARK    5  A    between atoms: C_8  and  C_9
REMARK    6  A    between atoms: C_9  and  C_10
REMARK    7  A    between atoms: C_13  and  S_14
REMARK    8  A    between atoms: S_14  and  C_15
REMARK    9  A    between atoms: C_15  and  C_16
REMARK   10  A    between atoms: N_18  and  C_19
REMARK                            x       y       z     vdW  Elec       q    Type
REMARK                         _______ _______ _______ _____ _____    ______ ____
ROOT
ATOM      1  C   UNL     1       7.322   6.490  17.509  0.00  0.00    +0.000 A 
ATOM      2  N   UNL     1       7.505   6.451  16.207  0.00  0.00    +0.000 NA
ATOM      3  N   UNL     1       6.490   5.678  15.701  0.00  0.00    +0.000 NA
ATOM      4  C   UNL     1       5.758   5.290  16.727  0.00  0.00    +0.000 A 
ATOM      5  O   UNL     1       6.225   5.780  17.916  0.00  0.00    +0.000 OA
ENDROOT
BRANCH   1   6
ATOM      6  C   UNL     1       8.076   7.239  18.541  0.00  0.00    +0.000 C 
BRANCH   6   7
ATOM      7  C   UNL     1       8.299   8.695  18.127  0.00  0.00    +0.000 C 
BRANCH   7   8
ATOM      8  C   UNL     1       9.075   9.489  19.185  0.00  0.00    +0.000 C 
BRANCH   8  12
ATOM      9  C   UNL     1      10.195  13.421  17.795  0.00  0.00    +0.000 A 
ATOM     10  C   UNL     1       8.962  12.870  17.442  0.00  0.00    +0.000 A 
ATOM     11  C   UNL     1       8.597  11.600  17.890  0.00  0.00    +0.000 A 
ATOM     12  C   UNL     1       9.471  10.856  18.694  0.00  0.00    +0.000 A 
ATOM     13  C   UNL     1      10.718  11.400  19.022  0.00  0.00    +0.000 A 
ATOM     14  C   UNL     1      11.077  12.677  18.576  0.00  0.00    +0.000 A 
BRANCH   9  16
ATOM     15  C   UNL     1      10.500  15.722  18.245  0.00  0.00    +0.000 C 
ATOM     16  O   UNL     1      10.439  14.668  17.291  0.00  0.00    +0.000 OA
ENDBRANCH   9  16
ENDBRANCH   8  12
ENDBRANCH   7   8
ENDBRANCH   6   7
ENDBRANCH   1   6
BRANCH   4  17
ATOM     17  S   UNL     1       4.408   4.213  16.591  0.00  0.00    +0.000 S 
BRANCH  17  18
ATOM     18  C   UNL     1       3.924   4.110  18.341  0.00  0.00    +0.000 C 
BRANCH  18  19
ATOM     19  C   UNL     1       2.787   5.076  18.636  0.00  0.00    +0.000 C 
ATOM     20  O   UNL     1       1.620   4.715  18.476  0.00  0.00    +0.000 OA
ATOM     21  N   UNL     1       3.192   6.336  19.046  0.00  0.00    +0.000 N 
ATOM     22  H   UNL     1       4.177   6.583  18.941  0.00  0.00    +0.000 HD
BRANCH  21  23
ATOM     23  C   UNL     1       2.340   7.424  19.357  0.00  0.00    +0.000 A 
ATOM     24  C   UNL     1       1.686   7.562  20.581  0.00  0.00    +0.000 A 
ATOM     25  C   UNL     1       0.828   8.641  20.810  0.00  0.00    +0.000 A 
ATOM     26  C   UNL     1       0.617   9.600  19.820  0.00  0.00    +0.000 A 
ATOM     27  C   UNL     1       1.283   9.487  18.602  0.00  0.00    +0.000 A 
ATOM     28  C   UNL     1       2.143   8.412  18.383  0.00  0.00    +0.000 A 
ATOM     29  F   UNL     1       2.766   8.320  17.201  0.00  0.00    +0.000 F 
ENDBRANCH  21  23
ENDBRANCH  18  19
ENDBRANCH  17  18
ENDBRANCH   4  17
TORSDOF 9
ENDMDL
MODEL 5
REMARK VINA RESULT:      -8.3      1.537      1.890
REMARK  Name = 
REMARK  10 active torsions:
REMARK  status: ('A' for Active; 'I' for Inactive)
REMARK    1  A    between atoms: C_1  and  O_2
REMARK    2  A    between atoms: O_2  and  C_3
REMARK    3  A    between atoms: C_6  and  C_7
REMARK    4  A    between atoms: C_7  and  C_8
REMARK    5  A    between atoms: C_8  and  C_9
REMARK    6  A    between atoms: C_9  and  C_10
REMARK    7  A    between atoms: C_13  and  S_14
REMARK    8  A    between atoms: S_14  and  C_15
REMARK    9  A    between atoms: C_15  and  C_16
REMARK   10  A    between atoms: N_18  and  C_19
REMARK                            x       y       z     vdW  Elec       q    Type
REMARK                         _______ _______ _______ _____ _____    ______ ____
ROOT
ATOM      1  C   UNL     1       8.249   8.725  18.057  0.00  0.00    +0.000 A 
ATOM      2  N   UNL     1       8.475   7.767  18.929  0.00  0.00    +0.000 NA
ATOM      3  N   UNL     1       7.934   6.625  18.392  0.00  0.00    +0.000 NA
ATOM      4  C   UNL     1       7.406   6.963  17.231  0.00  0.00    +0.000 A 
ATOM      5  O   UNL     1       7.579   8.290  16.946  0.00  0.00    +0.000 OA
ENDROOT
BRANCH   1   6
ATOM      6  C   UNL     1       8.679  10.142  18.087  0.00  0.00    +0.000 C 
BRANCH   6   7
ATOM      7  C   UNL     1       9.221  10.536  19.463  0.00  0.00    +0.000 C 
BRANCH   7   8
ATOM      8  C   UNL     1      10.658  11.065  19.394  0.00  0.00    +0.000 C 
BRANCH   8  12
ATOM      9  C   UNL     1      10.957  14.743  17.152  0.00  0.00    +0.000 A 
ATOM     10  C   UNL     1      10.111  14.656  18.258  0.00  0.00    +0.000 A 
ATOM     11  C   UNL     1      10.012  13.468  18.985  0.00  0.00    +0.000 A 
ATOM     12  C   UNL     1      10.757  12.344  18.605  0.00  0.00    +0.000 A 
ATOM     13  C   UNL     1      11.583  12.427  17.479  0.00  0.00    +0.000 A 
ATOM     14  C   UNL     1      11.684  13.621  16.757  0.00  0.00    +0.000 A 
BRANCH   9  16
ATOM     15  C   UNL     1      11.314  17.075  17.327  0.00  0.00    +0.000 C 
ATOM     16  O   UNL     1      10.963  15.955  16.520  0.00  0.00    +0.000 OA
ENDBRANCH   9  16
ENDBRANCH   8  12
ENDBRANCH   7   8
ENDBRANCH   6   7
ENDBRANCH   1   6
BRANCH   4  17
ATOM     17  S   UNL     1       6.522   5.867  16.223  0.00  0.00    +0.000 S 
BRANCH  17  18
ATOM     18  C   UNL     1       6.492   4.410  17.311  0.00  0.00    +0.000 C 
BRANCH  18  19
ATOM     19  C   UNL     1       5.062   4.063  17.697  0.00  0.00    +0.000 C 
ATOM     20  O   UNL     1       4.272   3.677  16.835  0.00  0.00    +0.000 OA
ATOM     21  N   UNL     1       4.765   4.252  19.037  0.00  0.00    +0.000 N 
ATOM     22  H   UNL     1       5.432   4.771  19.610  0.00  0.00    +0.000 HD
BRANCH  21  23
ATOM     23  C   UNL     1       3.508   4.031  19.650  0.00  0.00    +0.000 A 
ATOM     24  C   UNL     1       2.616   5.056  19.966  0.00  0.00    +0.000 A 
ATOM     25  C   UNL     1       1.406   4.773  20.606  0.00  0.00    +0.000 A 
ATOM     26  C   UNL     1       1.069   3.461  20.934  0.00  0.00    +0.000 A 
ATOM     27  C   UNL     1       1.940   2.425  20.602  0.00  0.00    +0.000 A 
ATOM     28  C   UNL     1       3.141   2.715  19.957  0.00  0.00    +0.000 A 
ATOM     29  F   UNL     1       3.967   1.704  19.655  0.00  0.00    +0.000 F 
ENDBRANCH  21  23
ENDBRANCH  18  19
ENDBRANCH  17  18
ENDBRANCH   4  17
TORSDOF 9
ENDMDL
MODEL 6
REMARK VINA RESULT:      -8.1      2.371      2.630
REMARK  Name = 
REMARK  10 active torsions:
REMARK  status: ('A' for Active; 'I' for Inactive)
REMARK    1  A    between atoms: C_1  and  O_2
REMARK    2  A    between atoms: O_2  and  C_3
REMARK    3  A    between atoms: C_6  and  C_7
REMARK    4  A    between atoms: C_7  and  C_8
REMARK    5  A    between atoms: C_8  and  C_9
REMARK    6  A    between atoms: C_9  and  C_10
REMARK    7  A    between atoms: C_13  and  S_14
REMARK    8  A    between atoms: S_14  and  C_15
REMARK    9  A    between atoms: C_15  and  C_16
REMARK   10  A    between atoms: N_18  and  C_19
REMARK                            x       y       z     vdW  Elec       q    Type
REMARK                         _______ _______ _______ _____ _____    ______ ____
ROOT
ATOM      1  C   UNL     1       7.810   7.793  17.796  0.00  0.00    +0.000 A 
ATOM      2  N   UNL     1       8.042   6.902  18.735  0.00  0.00    +0.000 NA
ATOM      3  N   UNL     1       7.706   5.684  18.198  0.00  0.00    +0.000 NA
ATOM      4  C   UNL     1       7.284   5.912  16.969  0.00  0.00    +0.000 A 
ATOM      5  O   UNL     1       7.332   7.240  16.639  0.00  0.00    +0.000 OA
ENDROOT
BRANCH   1   6
ATOM      6  C   UNL     1       8.063   9.253  17.804  0.00  0.00    +0.000 C 
BRANCH   6   7
ATOM      7  C   UNL     1       9.015   9.651  18.934  0.00  0.00    +0.000 C 
BRANCH   7   8
ATOM      8  C   UNL     1       9.914  10.832  18.549  0.00  0.00    +0.000 C 
BRANCH   8  12
ATOM      9  C   UNL     1       9.150  14.345  20.940  0.00  0.00    +0.000 A 
ATOM     10  C   UNL     1       9.841  13.259  21.479  0.00  0.00    +0.000 A 
ATOM     11  C   UNL     1      10.091  12.122  20.709  0.00  0.00    +0.000 A 
ATOM     12  C   UNL     1       9.639  12.054  19.384  0.00  0.00    +0.000 A 
ATOM     13  C   UNL     1       8.921  13.133  18.857  0.00  0.00    +0.000 A 
ATOM     14  C   UNL     1       8.679  14.274  19.631  0.00  0.00    +0.000 A 
BRANCH   9  16
ATOM     15  C   UNL     1       9.974  15.583  22.779  0.00  0.00    +0.000 C 
ATOM     16  O   UNL     1       8.964  15.396  21.794  0.00  0.00    +0.000 OA
ENDBRANCH   9  16
ENDBRANCH   8  12
ENDBRANCH   7   8
ENDBRANCH   6   7
ENDBRANCH   1   6
BRANCH   4  17
ATOM     17  S   UNL     1       6.661   4.680  15.924  0.00  0.00    +0.000 S 
BRANCH  17  18
ATOM     18  C   UNL     1       4.885   5.056  16.036  0.00  0.00    +0.000 C 
BRANCH  18  19
ATOM     19  C   UNL     1       4.229   4.208  17.116  0.00  0.00    +0.000 C 
ATOM     20  O   UNL     1       4.416   2.991  17.136  0.00  0.00    +0.000 OA
ATOM     21  N   UNL     1       3.423   4.915  17.993  0.00  0.00    +0.000 N 
ATOM     22  H   UNL     1       3.178   5.877  17.754  0.00  0.00    +0.000 HD
BRANCH  21  23
ATOM     23  C   UNL     1       2.680   4.367  19.066  0.00  0.00    +0.000 A 
ATOM     24  C   UNL     1       3.111   4.395  20.393  0.00  0.00    +0.000 A 
ATOM     25  C   UNL     1       2.347   3.801  21.401  0.00  0.00    +0.000 A 
ATOM     26  C   UNL     1       1.139   3.174  21.097  0.00  0.00    +0.000 A 
ATOM     27  C   UNL     1       0.686   3.160  19.780  0.00  0.00    +0.000 A 
ATOM     28  C   UNL     1       1.449   3.761  18.781  0.00  0.00    +0.000 A 
ATOM     29  F   UNL     1       0.997   3.727  17.521  0.00  0.00    +0.000 F 
ENDBRANCH  21  23
ENDBRANCH  18  19
ENDBRANCH  17  18
ENDBRANCH   4  17
TORSDOF 9
ENDMDL
MODEL 7
REMARK VINA RESULT:      -7.9      0.986      1.325
REMARK  Name = 
REMARK  10 active torsions:
REMARK  status: ('A' for Active; 'I' for Inactive)
REMARK    1  A    between atoms: C_1  and  O_2
REMARK    2  A    between atoms: O_2  and  C_3
REMARK    3  A    between atoms: C_6  and  C_7
REMARK    4  A    between atoms: C_7  and  C_8
REMARK    5  A    between atoms: C_8  and  C_9
REMARK    6  A    between atoms: C_9  and  C_10
REMARK    7  A    between atoms: C_13  and  S_14
REMARK    8  A    between atoms: S_14  and  C_15
REMARK    9  A    between atoms: C_15  and  C_16
REMARK   10  A    between atoms: N_18  and  C_19
REMARK                            x       y       z     vdW  Elec       q    Type
REMARK                         _______ _______ _______ _____ _____    ______ ____
ROOT
ATOM      1  C   UNL     1       7.067   7.423  17.309  0.00  0.00    +0.000 A 
ATOM      2  N   UNL     1       5.815   7.823  17.353  0.00  0.00    +0.000 NA
ATOM      3  N   UNL     1       5.094   6.905  16.630  0.00  0.00    +0.000 NA
ATOM      4  C   UNL     1       5.954   6.010  16.185  0.00  0.00    +0.000 A 
ATOM      5  O   UNL     1       7.235   6.271  16.589  0.00  0.00    +0.000 OA
ENDROOT
BRANCH   1   6
ATOM      6  C   UNL     1       8.260   7.994  17.977  0.00  0.00    +0.000 C 
BRANCH   6   7
ATOM      7  C   UNL     1       8.166   9.517  18.087  0.00  0.00    +0.000 C 
BRANCH   7   8
ATOM      8  C   UNL     1       9.230  10.101  19.024  0.00  0.00    +0.000 C 
BRANCH   8  12
ATOM      9  C   UNL     1      11.074  13.657  17.413  0.00  0.00    +0.000 A 
ATOM     10  C   UNL     1       9.684  13.547  17.474  0.00  0.00    +0.000 A 
ATOM     11  C   UNL     1       9.085  12.398  17.994  0.00  0.00    +0.000 A 
ATOM     12  C   UNL     1       9.875  11.336  18.454  0.00  0.00    +0.000 A 
ATOM     13  C   UNL     1      11.268  11.440  18.365  0.00  0.00    +0.000 A 
ATOM     14  C   UNL     1      11.864  12.595  17.849  0.00  0.00    +0.000 A 
BRANCH   9  16
ATOM     15  C   UNL     1      10.727  15.975  17.094  0.00  0.00    +0.000 C 
ATOM     16  O   UNL     1      11.540  14.826  16.879  0.00  0.00    +0.000 OA
ENDBRANCH   9  16
ENDBRANCH   8  12
ENDBRANCH   7   8
ENDBRANCH   6   7
ENDBRANCH   1   6
BRANCH   4  17
ATOM     17  S   UNL     1       5.521   4.700  15.138  0.00  0.00    +0.000 S 
BRANCH  17  18
ATOM     18  C   UNL     1       5.773   3.305  16.277  0.00  0.00    +0.000 C 
BRANCH  18  19
ATOM     19  C   UNL     1       5.118   3.588  17.620  0.00  0.00    +0.000 C 
ATOM     20  O   UNL     1       5.774   4.110  18.523  0.00  0.00    +0.000 OA
ATOM     21  N   UNL     1       3.796   3.184  17.714  0.00  0.00    +0.000 N 
ATOM     22  H   UNL     1       3.424   2.578  16.981  0.00  0.00    +0.000 HD
BRANCH  21  23
ATOM     23  C   UNL     1       2.968   3.306  18.855  0.00  0.00    +0.000 A 
ATOM     24  C   UNL     1       1.840   4.126  18.902  0.00  0.00    +0.000 A 
ATOM     25  C   UNL     1       1.086   4.230  20.075  0.00  0.00    +0.000 A 
ATOM     26  C   UNL     1       1.447   3.513  21.214  0.00  0.00    +0.000 A 
ATOM     27  C   UNL     1       2.557   2.673  21.174  0.00  0.00    +0.000 A 
ATOM     28  C   UNL     1       3.300   2.568  19.998  0.00  0.00    +0.000 A 
ATOM     29  F   UNL     1       4.368   1.760  19.985  0.00  0.00    +0.000 F 
ENDBRANCH  21  23
ENDBRANCH  18  19
ENDBRANCH  17  18
ENDBRANCH   4  17
TORSDOF 9
ENDMDL
MODEL 8
REMARK VINA RESULT:      -7.8      2.103      2.480
REMARK  Name = 
REMARK  10 active torsions:
REMARK  status: ('A' for Active; 'I' for Inactive)
REMARK    1  A    between atoms: C_1  and  O_2
REMARK    2  A    between atoms: O_2  and  C_3
REMARK    3  A    between atoms: C_6  and  C_7
REMARK    4  A    between atoms: C_7  and  C_8
REMARK    5  A    between atoms: C_8  and  C_9
REMARK    6  A    between atoms: C_9  and  C_10
REMARK    7  A    between atoms: C_13  and  S_14
REMARK    8  A    between atoms: S_14  and  C_15
REMARK    9  A    between atoms: C_15  and  C_16
REMARK   10  A    between atoms: N_18  and  C_19
REMARK                            x       y       z     vdW  Elec       q    Type
REMARK                         _______ _______ _______ _____ _____    ______ ____
ROOT
ATOM      1  C   UNL     1       7.705   7.744  17.654  0.00  0.00    +0.000 A 
ATOM      2  N   UNL     1       7.968   6.748  18.471  0.00  0.00    +0.000 NA
ATOM      3  N   UNL     1       7.681   5.598  17.778  0.00  0.00    +0.000 NA
ATOM      4  C   UNL     1       7.253   5.968  16.587  0.00  0.00    +0.000 A 
ATOM      5  O   UNL     1       7.252   7.327  16.432  0.00  0.00    +0.000 OA
ENDROOT
BRANCH   1   6
ATOM      6  C   UNL     1       7.902   9.199  17.852  0.00  0.00    +0.000 C 
BRANCH   6   7
ATOM      7  C   UNL     1       8.975   9.481  18.906  0.00  0.00    +0.000 C 
BRANCH   7   8
ATOM      8  C   UNL     1       9.886  10.650  18.513  0.00  0.00    +0.000 C 
BRANCH   8  12
ATOM      9  C   UNL     1       8.123  14.467  19.498  0.00  0.00    +0.000 A 
ATOM     10  C   UNL     1       8.155  14.023  18.176  0.00  0.00    +0.000 A 
ATOM     11  C   UNL     1       8.724  12.790  17.854  0.00  0.00    +0.000 A 
ATOM     12  C   UNL     1       9.280  11.985  18.858  0.00  0.00    +0.000 A 
ATOM     13  C   UNL     1       9.271  12.447  20.178  0.00  0.00    +0.000 A 
ATOM     14  C   UNL     1       8.694  13.681  20.497  0.00  0.00    +0.000 A 
BRANCH   9  16
ATOM     15  C   UNL     1       6.633  16.109  18.675  0.00  0.00    +0.000 C 
ATOM     16  O   UNL     1       7.545  15.692  19.685  0.00  0.00    +0.000 OA
ENDBRANCH   9  16
ENDBRANCH   8  12
ENDBRANCH   7   8
ENDBRANCH   6   7
ENDBRANCH   1   6
BRANCH   4  17
ATOM     17  S   UNL     1       6.680   4.859  15.386  0.00  0.00    +0.000 S 
BRANCH  17  18
ATOM     18  C   UNL     1       6.055   3.537  16.466  0.00  0.00    +0.000 C 
BRANCH  18  19
ATOM     19  C   UNL     1       4.724   3.937  17.084  0.00  0.00    +0.000 C 
ATOM     20  O   UNL     1       4.024   4.787  16.532  0.00  0.00    +0.000 OA
ATOM     21  N   UNL     1       4.428   3.301  18.279  0.00  0.00    +0.000 N 
ATOM     22  H   UNL     1       5.172   2.778  18.743  0.00  0.00    +0.000 HD
BRANCH  21  23
ATOM     23  C   UNL     1       3.272   3.510  19.069  0.00  0.00    +0.000 A 
ATOM     24  C   UNL     1       2.187   2.633  19.092  0.00  0.00    +0.000 A 
ATOM     25  C   UNL     1       1.059   2.918  19.865  0.00  0.00    +0.000 A 
ATOM     26  C   UNL     1       1.001   4.082  20.630  0.00  0.00    +0.000 A 
ATOM     27  C   UNL     1       2.087   4.955  20.635  0.00  0.00    +0.000 A 
ATOM     28  C   UNL     1       3.212   4.660  19.867  0.00  0.00    +0.000 A 
ATOM     29  F   UNL     1       4.240   5.518  19.880  0.00  0.00    +0.000 F 
ENDBRANCH  21  23
ENDBRANCH  18  19
ENDBRANCH  17  18
ENDBRANCH   4  17
TORSDOF 9
ENDMDL
MODEL 9
REMARK VINA RESULT:      -7.8      4.944      8.570
REMARK  Name = 
REMARK  10 active torsions:
REMARK  status: ('A' for Active; 'I' for Inactive)
REMARK    1  A    between atoms: C_1  and  O_2
REMARK    2  A    between atoms: O_2  and  C_3
REMARK    3  A    between atoms: C_6  and  C_7
REMARK    4  A    between atoms: C_7  and  C_8
REMARK    5  A    between atoms: C_8  and  C_9
REMARK    6  A    between atoms: C_9  and  C_10
REMARK    7  A    between atoms: C_13  and  S_14
REMARK    8  A    between atoms: S_14  and  C_15
REMARK    9  A    between atoms: C_15  and  C_16
REMARK   10  A    between atoms: N_18  and  C_19
REMARK                            x       y       z     vdW  Elec       q    Type
REMARK                         _______ _______ _______ _____ _____    ______ ____
ROOT
ATOM      1  C   UNL     1       3.447   4.637  19.491  0.00  0.00    +0.000 A 
ATOM      2  N   UNL     1       3.947   3.448  19.747  0.00  0.00    +0.000 NA
ATOM      3  N   UNL     1       5.303   3.555  19.562  0.00  0.00    +0.000 NA
ATOM      4  C   UNL     1       5.541   4.800  19.198  0.00  0.00    +0.000 A 
ATOM      5  O   UNL     1       4.401   5.554  19.141  0.00  0.00    +0.000 OA
ENDROOT
BRANCH   1   6
ATOM      6  C   UNL     1       2.049   5.113  19.605  0.00  0.00    +0.000 C 
BRANCH   6   7
ATOM      7  C   UNL     1       1.935   6.297  20.569  0.00  0.00    +0.000 C 
BRANCH   7   8
ATOM      8  C   UNL     1       1.973   7.646  19.841  0.00  0.00    +0.000 C 
BRANCH   8  12
ATOM      9  C   UNL     1      -0.217  10.703  21.962  0.00  0.00    +0.000 A 
ATOM     10  C   UNL     1      -0.007  10.809  20.586  0.00  0.00    +0.000 A 
ATOM     11  C   UNL     1       0.700   9.822  19.898  0.00  0.00    +0.000 A 
ATOM     12  C   UNL     1       1.217   8.715  20.584  0.00  0.00    +0.000 A 
ATOM     13  C   UNL     1       1.029   8.627  21.967  0.00  0.00    +0.000 A 
ATOM     14  C   UNL     1       0.314   9.616  22.653  0.00  0.00    +0.000 A 
BRANCH   9  16
ATOM     15  C   UNL     1      -1.982  12.262  21.737  0.00  0.00    +0.000 C 
ATOM     16  O   UNL     1      -0.919  11.734  22.522  0.00  0.00    +0.000 OA
ENDBRANCH   9  16
ENDBRANCH   8  12
ENDBRANCH   7   8
ENDBRANCH   6   7
ENDBRANCH   1   6
BRANCH   4  17
ATOM     17  S   UNL     1       7.110   5.389  18.759  0.00  0.00    +0.000 S 
BRANCH  17  18
ATOM     18  C   UNL     1       6.626   6.837  17.771  0.00  0.00    +0.000 C 
BRANCH  18  19
ATOM     19  C   UNL     1       6.283   6.420  16.349  0.00  0.00    +0.000 C 
ATOM     20  O   UNL     1       5.262   6.854  15.814  0.00  0.00    +0.000 OA
ATOM     21  N   UNL     1       7.176   5.528  15.778  0.00  0.00    +0.000 N 
ATOM     22  H   UNL     1       7.864   5.080  16.385  0.00  0.00    +0.000 HD
BRANCH  21  23
ATOM     23  C   UNL     1       7.076   4.966  14.482  0.00  0.00    +0.000 A 
ATOM     24  C   UNL     1       7.762   5.463  13.374  0.00  0.00    +0.000 A 
ATOM     25  C   UNL     1       7.590   4.884  12.113  0.00  0.00    +0.000 A 
ATOM     26  C   UNL     1       6.733   3.797  11.945  0.00  0.00    +0.000 A 
ATOM     27  C   UNL     1       6.060   3.275  13.049  0.00  0.00    +0.000 A 
ATOM     28  C   UNL     1       6.244   3.853  14.304  0.00  0.00    +0.000 A 
ATOM     29  F   UNL     1       5.580   3.341  15.348  0.00  0.00    +0.000 F 
ENDBRANCH  21  23
ENDBRANCH  18  19
ENDBRANCH  17  18
ENDBRANCH   4  17
TORSDOF 9
ENDMDL
