MODEL 1
REMARK VINA RESULT:      -8.1      0.000      0.000
REMARK  Name = 
REMARK  3 active torsions:
REMARK  status: ('A' for Active; 'I' for Inactive)
REMARK    1  A    between atoms: C_2  and  C_18
REMARK    2  A    between atoms: C_6  and  N_7
REMARK    3  A    between atoms: C_18  and  C_19
REMARK                            x       y       z     vdW  Elec       q    Type
REMARK                         _______ _______ _______ _____ _____    ______ ____
ROOT
ATOM      1  O   UNL     1       1.733   5.123  21.175  0.00  0.00    +0.000 OA
ATOM      2  C   UNL     1       2.113   5.693  20.142  0.00  0.00    +0.000 C 
ATOM      3  N   UNL     1       2.113   7.072  20.106  0.00  0.00    +0.000 N 
ATOM      4  C   UNL     1       1.774   7.864  21.275  0.00  0.00    +0.000 C 
ATOM      5  C   UNL     1       1.002   9.044  20.706  0.00  0.00    +0.000 C 
ATOM      6  C   UNL     1       1.719   9.329  19.377  0.00  0.00    +0.000 C 
ATOM      7  C   UNL     1       2.146   7.913  18.931  0.00  0.00    +0.000 C 
ENDROOT
BRANCH   6   8
ATOM      8  N   UNL     1       0.886   9.988  18.359  0.00  0.00    +0.000 NA
ATOM      9  C   UNL     1       0.541  11.379  18.694  0.00  0.00    +0.000 C 
ATOM     10  C   UNL     1      -0.890  11.587  19.192  0.00  0.00    +0.000 C 
ATOM     11  C   UNL     1      -1.830  11.090  18.133  0.00  0.00    +0.000 A 
ATOM     12  C   UNL     1      -3.019  11.755  17.824  0.00  0.00    +0.000 A 
ATOM     13  C   UNL     1      -3.836  11.272  16.805  0.00  0.00    +0.000 A 
ATOM     14  C   UNL     1      -3.472  10.124  16.103  0.00  0.00    +0.000 A 
ATOM     15  C   UNL     1      -2.299   9.448  16.420  0.00  0.00    +0.000 A 
ATOM     16  C   UNL     1      -1.463   9.928  17.438  0.00  0.00    +0.000 A 
ATOM     17  C   UNL     1      -0.236   9.161  17.882  0.00  0.00    +0.000 C 
ENDBRANCH   6   8
BRANCH   2  18
ATOM     18  C   UNL     1       2.698   4.845  18.941  0.00  0.00    +0.000 C 
ATOM     19  C   UNL     1       1.742   4.739  17.722  0.00  0.00    +0.000 C 
ATOM     20  C   UNL     1       2.167   3.647  16.739  0.00  0.00    +0.000 C 
ATOM     21  O   UNL     1       2.208   2.378  17.371  0.00  0.00    +0.000 OA
ATOM     22  C   UNL     1       3.163   2.350  18.428  0.00  0.00    +0.000 C 
ATOM     23  C   UNL     1       2.805   3.378  19.488  0.00  0.00    +0.000 C 
BRANCH  18  24
ATOM     24  C   UNL     1       4.093   5.428  18.590  0.00  0.00    +0.000 A 
ATOM     25  C   UNL     1       4.274   6.153  17.398  0.00  0.00    +0.000 A 
ATOM     26  C   UNL     1       5.531   6.636  17.022  0.00  0.00    +0.000 A 
ATOM     27  C   UNL     1       6.642   6.399  17.825  0.00  0.00    +0.000 A 
ATOM     28  C   UNL     1       6.493   5.683  19.006  0.00  0.00    +0.000 A 
ATOM     29  C   UNL     1       5.238   5.202  19.380  0.00  0.00    +0.000 A 
ENDBRANCH  18  24
ENDBRANCH   2  18
TORSDOF 3
ENDMDL
MODEL 2
REMARK VINA RESULT:      -7.6      1.341      2.821
REMARK  Name = 
REMARK  3 active torsions:
REMARK  status: ('A' for Active; 'I' for Inactive)
REMARK    1  A    between atoms: C_2  and  C_18
REMARK    2  A    between atoms: C_6  and  N_7
REMARK    3  A    between atoms: C_18  and  C_19
REMARK                            x       y       z     vdW  Elec       q    Type
REMARK                         _______ _______ _______ _____ _____    ______ ____
ROOT
ATOM      1  O   UNL     1       1.818   5.585  20.965  0.00  0.00    +0.000 OA
ATOM      2  C   UNL     1       2.240   6.403  20.137  0.00  0.00    +0.000 C 
ATOM      3  N   UNL     1       1.872   7.726  20.263  0.00  0.00    +0.000 N 
ATOM      4  C   UNL     1       1.088   8.193  21.393  0.00  0.00    +0.000 C 
ATOM      5  C   UNL     1       0.164   9.240  20.790  0.00  0.00    +0.000 C 
ATOM      6  C   UNL     1       1.042   9.919  19.728  0.00  0.00    +0.000 C 
ATOM      7  C   UNL     1       1.924   8.747  19.242  0.00  0.00    +0.000 C 
ENDROOT
BRANCH   6   8
ATOM      8  N   UNL     1       0.298  10.533  18.617  0.00  0.00    +0.000 NA
ATOM      9  C   UNL     1      -0.369  11.793  18.983  0.00  0.00    +0.000 C 
ATOM     10  C   UNL     1      -1.879  11.686  19.195  0.00  0.00    +0.000 C 
ATOM     11  C   UNL     1      -2.492  11.155  17.933  0.00  0.00    +0.000 A 
ATOM     12  C   UNL     1      -3.711  11.631  17.442  0.00  0.00    +0.000 A 
ATOM     13  C   UNL     1      -4.216  11.131  16.244  0.00  0.00    +0.000 A 
ATOM     14  C   UNL     1      -3.511  10.154  15.543  0.00  0.00    +0.000 A 
ATOM     15  C   UNL     1      -2.306   9.665  16.037  0.00  0.00    +0.000 A 
ATOM     16  C   UNL     1      -1.783  10.165  17.238  0.00  0.00    +0.000 A 
ATOM     17  C   UNL     1      -0.532   9.581  17.859  0.00  0.00    +0.000 C 
ENDBRANCH   6   8
BRANCH   2  18
ATOM     18  C   UNL     1       3.276   5.947  19.031  0.00  0.00    +0.000 C 
ATOM     19  C   UNL     1       4.760   6.146  19.440  0.00  0.00    +0.000 C 
ATOM     20  C   UNL     1       5.715   6.036  18.249  0.00  0.00    +0.000 C 
ATOM     21  O   UNL     1       5.405   6.998  17.255  0.00  0.00    +0.000 OA
ATOM     22  C   UNL     1       4.095   6.804  16.729  0.00  0.00    +0.000 C 
ATOM     23  C   UNL     1       3.059   6.937  17.833  0.00  0.00    +0.000 C 
BRANCH  18  24
ATOM     24  C   UNL     1       2.929   4.486  18.636  0.00  0.00    +0.000 A 
ATOM     25  C   UNL     1       1.719   4.203  17.975  0.00  0.00    +0.000 A 
ATOM     26  C   UNL     1       1.349   2.892  17.664  0.00  0.00    +0.000 A 
ATOM     27  C   UNL     1       2.176   1.828  18.011  0.00  0.00    +0.000 A 
ATOM     28  C   UNL     1       3.375   2.078  18.667  0.00  0.00    +0.000 A 
ATOM     29  C   UNL     1       3.743   3.388  18.977  0.00  0.00    +0.000 A 
ENDBRANCH  18  24
ENDBRANCH   2  18
TORSDOF 3
ENDMDL
MODEL 3
REMARK VINA RESULT:      -7.5      2.349      3.347
REMARK  Name = 
REMARK  3 active torsions:
REMARK  status: ('A' for Active; 'I' for Inactive)
REMARK    1  A    between atoms: C_2  and  C_18
REMARK    2  A    between atoms: C_6  and  N_7
REMARK    3  A    between atoms: C_18  and  C_19
REMARK                            x       y       z     vdW  Elec       q    Type
REMARK                         _______ _______ _______ _____ _____    ______ ____
ROOT
ATOM      1  O   UNL     1       3.935   3.275  18.517  0.00  0.00    +0.000 OA
ATOM      2  C   UNL     1       4.111   4.481  18.297  0.00  0.00    +0.000 C 
ATOM      3  N   UNL     1       3.528   5.403  19.142  0.00  0.00    +0.000 N 
ATOM      4  C   UNL     1       2.802   4.992  20.331  0.00  0.00    +0.000 C 
ATOM      5  C   UNL     1       1.645   5.975  20.412  0.00  0.00    +0.000 C 
ATOM      6  C   UNL     1       2.267   7.294  19.925  0.00  0.00    +0.000 C 
ATOM      7  C   UNL     1       3.285   6.802  18.873  0.00  0.00    +0.000 C 
ENDROOT
BRANCH   6   8
ATOM      8  N   UNL     1       1.308   8.247  19.345  0.00  0.00    +0.000 NA
ATOM      9  C   UNL     1       1.773   8.856  18.088  0.00  0.00    +0.000 C 
ATOM     10  C   UNL     1       2.270  10.296  18.214  0.00  0.00    +0.000 C 
ATOM     11  C   UNL     1       1.155  11.127  18.778  0.00  0.00    +0.000 A 
ATOM     12  C   UNL     1       0.897  12.426  18.330  0.00  0.00    +0.000 A 
ATOM     13  C   UNL     1      -0.175  13.139  18.860  0.00  0.00    +0.000 A 
ATOM     14  C   UNL     1      -0.982  12.562  19.840  0.00  0.00    +0.000 A 
ATOM     15  C   UNL     1      -0.717  11.277  20.301  0.00  0.00    +0.000 A 
ATOM     16  C   UNL     1       0.354  10.545  19.770  0.00  0.00    +0.000 A 
ATOM     17  C   UNL     1       0.737   9.188  20.323  0.00  0.00    +0.000 C 
ENDBRANCH   6   8
BRANCH   2  18
ATOM     18  C   UNL     1       5.085   4.941  17.137  0.00  0.00    +0.000 C 
ATOM     19  C   UNL     1       4.372   5.685  15.976  0.00  0.00    +0.000 C 
ATOM     20  C   UNL     1       5.252   5.802  14.729  0.00  0.00    +0.000 C 
ATOM     21  O   UNL     1       5.637   4.523  14.254  0.00  0.00    +0.000 OA
ATOM     22  C   UNL     1       6.413   3.818  15.219  0.00  0.00    +0.000 C 
ATOM     23  C   UNL     1       5.608   3.610  16.491  0.00  0.00    +0.000 C 
BRANCH  18  24
ATOM     24  C   UNL     1       6.237   5.754  17.785  0.00  0.00    +0.000 A 
ATOM     25  C   UNL     1       6.584   7.016  17.270  0.00  0.00    +0.000 A 
ATOM     26  C   UNL     1       7.658   7.745  17.790  0.00  0.00    +0.000 A 
ATOM     27  C   UNL     1       8.417   7.227  18.835  0.00  0.00    +0.000 A 
ATOM     28  C   UNL     1       8.098   5.981  19.361  0.00  0.00    +0.000 A 
ATOM     29  C   UNL     1       7.026   5.255  18.840  0.00  0.00    +0.000 A 
ENDBRANCH  18  24
ENDBRANCH   2  18
TORSDOF 3
ENDMDL
MODEL 4
REMARK VINA RESULT:      -7.3      3.433      8.835
REMARK  Name = 
REMARK  3 active torsions:
REMARK  status: ('A' for Active; 'I' for Inactive)
REMARK    1  A    between atoms: C_2  and  C_18
REMARK    2  A    between atoms: C_6  and  N_7
REMARK    3  A    between atoms: C_18  and  C_19
REMARK                            x       y       z     vdW  Elec       q    Type
REMARK                         _______ _______ _______ _____ _____    ______ ____
ROOT
ATOM      1  O   UNL     1      -1.343  12.971  23.195  0.00  0.00    +0.000 OA
ATOM      2  C   UNL     1      -1.145  12.451  22.088  0.00  0.00    +0.000 C 
ATOM      3  N   UNL     1      -0.882  11.099  22.026  0.00  0.00    +0.000 N 
ATOM      4  C   UNL     1      -0.927  10.260  23.211  0.00  0.00    +0.000 C 
ATOM      5  C   UNL     1       0.211   9.272  23.006  0.00  0.00    +0.000 C 
ATOM      6  C   UNL     1       0.182   9.009  21.492  0.00  0.00    +0.000 C 
ATOM      7  C   UNL     1      -0.266  10.379  20.935  0.00  0.00    +0.000 C 
ENDROOT
BRANCH   6   8
ATOM      8  N   UNL     1       1.469   8.587  20.918  0.00  0.00    +0.000 NA
ATOM      9  C   UNL     1       1.844   9.335  19.707  0.00  0.00    +0.000 C 
ATOM     10  C   UNL     1       1.649   8.576  18.394  0.00  0.00    +0.000 C 
ATOM     11  C   UNL     1       2.456   7.312  18.460  0.00  0.00    +0.000 A 
ATOM     12  C   UNL     1       3.158   6.820  17.356  0.00  0.00    +0.000 A 
ATOM     13  C   UNL     1       3.923   5.664  17.483  0.00  0.00    +0.000 A 
ATOM     14  C   UNL     1       3.981   4.996  18.706  0.00  0.00    +0.000 A 
ATOM     15  C   UNL     1       3.269   5.472  19.802  0.00  0.00    +0.000 A 
ATOM     16  C   UNL     1       2.501   6.639  19.689  0.00  0.00    +0.000 A 
ATOM     17  C   UNL     1       1.630   7.126  20.828  0.00  0.00    +0.000 C 
ENDBRANCH   6   8
BRANCH   2  18
ATOM     18  C   UNL     1      -1.314  13.310  20.769  0.00  0.00    +0.000 C 
ATOM     19  C   UNL     1      -0.060  13.309  19.854  0.00  0.00    +0.000 C 
ATOM     20  C   UNL     1      -0.114  14.405  18.787  0.00  0.00    +0.000 C 
ATOM     21  O   UNL     1      -0.220  15.690  19.380  0.00  0.00    +0.000 OA
ATOM     22  C   UNL     1      -1.418  15.819  20.139  0.00  0.00    +0.000 C 
ATOM     23  C   UNL     1      -1.444  14.794  21.261  0.00  0.00    +0.000 C 
BRANCH  18  24
ATOM     24  C   UNL     1      -2.606  12.828  20.057  0.00  0.00    +0.000 A 
ATOM     25  C   UNL     1      -3.864  13.073  20.637  0.00  0.00    +0.000 A 
ATOM     26  C   UNL     1      -5.041  12.595  20.053  0.00  0.00    +0.000 A 
ATOM     27  C   UNL     1      -4.990  11.855  18.877  0.00  0.00    +0.000 A 
ATOM     28  C   UNL     1      -3.761  11.594  18.283  0.00  0.00    +0.000 A 
ATOM     29  C   UNL     1      -2.587  12.071  18.868  0.00  0.00    +0.000 A 
ENDBRANCH  18  24
ENDBRANCH   2  18
TORSDOF 3
ENDMDL
MODEL 5
REMARK VINA RESULT:      -7.2      3.109      8.276
REMARK  Name = 
REMARK  3 active torsions:
REMARK  status: ('A' for Active; 'I' for Inactive)
REMARK    1  A    between atoms: C_2  and  C_18
REMARK    2  A    between atoms: C_6  and  N_7
REMARK    3  A    between atoms: C_18  and  C_19
REMARK                            x       y       z     vdW  Elec       q    Type
REMARK                         _______ _______ _______ _____ _____    ______ ____
ROOT
ATOM      1  O   UNL     1      -0.325  12.467  22.464  0.00  0.00    +0.000 OA
ATOM      2  C   UNL     1      -0.194  11.841  21.404  0.00  0.00    +0.000 C 
ATOM      3  N   UNL     1      -0.127  10.464  21.449  0.00  0.00    +0.000 N 
ATOM      4  C   UNL     1      -0.305   9.734  22.692  0.00  0.00    +0.000 C 
ATOM      5  C   UNL     1       0.680   8.581  22.585  0.00  0.00    +0.000 C 
ATOM      6  C   UNL     1       0.628   8.209  21.094  0.00  0.00    +0.000 C 
ATOM      7  C   UNL     1       0.388   9.582  20.427  0.00  0.00    +0.000 C 
ENDROOT
BRANCH   6   8
ATOM      8  N   UNL     1       1.847   7.564  20.580  0.00  0.00    +0.000 NA
ATOM      9  C   UNL     1       2.248   8.045  19.248  0.00  0.00    +0.000 C 
ATOM     10  C   UNL     1       1.932   7.091  18.096  0.00  0.00    +0.000 C 
ATOM     11  C   UNL     1       2.615   5.784  18.371  0.00  0.00    +0.000 A 
ATOM     12  C   UNL     1       3.225   5.037  17.360  0.00  0.00    +0.000 A 
ATOM     13  C   UNL     1       3.878   3.849  17.676  0.00  0.00    +0.000 A 
ATOM     14  C   UNL     1       3.917   3.403  18.997  0.00  0.00    +0.000 A 
ATOM     15  C   UNL     1       3.295   4.134  20.004  0.00  0.00    +0.000 A 
ATOM     16  C   UNL     1       2.640   5.336  19.699  0.00  0.00    +0.000 A 
ATOM     17  C   UNL     1       1.863   6.101  20.750  0.00  0.00    +0.000 C 
ENDBRANCH   6   8
BRANCH   2  18
ATOM     18  C   UNL     1      -0.224  12.610  20.021  0.00  0.00    +0.000 C 
ATOM     19  C   UNL     1       1.136  12.614  19.274  0.00  0.00    +0.000 C 
ATOM     20  C   UNL     1       1.178  13.641  18.140  0.00  0.00    +0.000 C 
ATOM     21  O   UNL     1       0.947  14.952  18.630  0.00  0.00    +0.000 OA
ATOM     22  C   UNL     1      -0.344  15.070  19.221  0.00  0.00    +0.000 C 
ATOM     23  C   UNL     1      -0.474  14.114  20.395  0.00  0.00    +0.000 C 
BRANCH  18  24
ATOM     24  C   UNL     1      -1.394  12.027  19.184  0.00  0.00    +0.000 A 
ATOM     25  C   UNL     1      -1.126  11.324  17.995  0.00  0.00    +0.000 A 
ATOM     26  C   UNL     1      -2.160  10.842  17.186  0.00  0.00    +0.000 A 
ATOM     27  C   UNL     1      -3.488  11.057  17.541  0.00  0.00    +0.000 A 
ATOM     28  C   UNL     1      -3.781  11.752  18.708  0.00  0.00    +0.000 A 
ATOM     29  C   UNL     1      -2.748  12.232  19.515  0.00  0.00    +0.000 A 
ENDBRANCH  18  24
ENDBRANCH   2  18
TORSDOF 3
ENDMDL
MODEL 6
REMARK VINA RESULT:      -7.1      8.664     11.294
REMARK  Name = 
REMARK  3 active torsions:
REMARK  status: ('A' for Active; 'I' for Inactive)
REMARK    1  A    between atoms: C_2  and  C_18
REMARK    2  A    between atoms: C_6  and  N_7
REMARK    3  A    between atoms: C_18  and  C_19
REMARK                            x       y       z     vdW  Elec       q    Type
REMARK                         _______ _______ _______ _____ _____    ______ ____
ROOT
ATOM      1  O   UNL     1       4.422  13.609  22.362  0.00  0.00    +0.000 OA
ATOM      2  C   UNL     1       5.500  14.172  22.127  0.00  0.00    +0.000 C 
ATOM      3  N   UNL     1       5.626  14.908  20.967  0.00  0.00    +0.000 N 
ATOM      4  C   UNL     1       4.501  15.116  20.072  0.00  0.00    +0.000 C 
ATOM      5  C   UNL     1       5.121  15.064  18.685  0.00  0.00    +0.000 C 
ATOM      6  C   UNL     1       6.487  15.740  18.882  0.00  0.00    +0.000 C 
ATOM      7  C   UNL     1       6.853  15.315  20.321  0.00  0.00    +0.000 C 
ENDROOT
BRANCH   6   8
ATOM      8  N   UNL     1       7.519  15.329  17.918  0.00  0.00    +0.000 NA
ATOM      9  C   UNL     1       7.366  13.942  17.450  0.00  0.00    +0.000 C 
ATOM     10  C   UNL     1       8.343  12.941  18.069  0.00  0.00    +0.000 C 
ATOM     11  C   UNL     1       9.738  13.406  17.775  0.00  0.00    +0.000 A 
ATOM     12  C   UNL     1      10.764  12.517  17.443  0.00  0.00    +0.000 A 
ATOM     13  C   UNL     1      12.032  13.005  17.142  0.00  0.00    +0.000 A 
ATOM     14  C   UNL     1      12.279  14.377  17.179  0.00  0.00    +0.000 A 
ATOM     15  C   UNL     1      11.266  15.265  17.527  0.00  0.00    +0.000 A 
ATOM     16  C   UNL     1       9.983  14.786  17.825  0.00  0.00    +0.000 A 
ATOM     17  C   UNL     1       8.887  15.711  18.311  0.00  0.00    +0.000 C 
ENDBRANCH   6   8
BRANCH   2  18
ATOM     18  C   UNL     1       6.661  14.139  23.201  0.00  0.00    +0.000 C 
ATOM     19  C   UNL     1       6.247  13.503  24.555  0.00  0.00    +0.000 C 
ATOM     20  C   UNL     1       7.251  13.797  25.672  0.00  0.00    +0.000 C 
ATOM     21  O   UNL     1       7.397  15.193  25.873  0.00  0.00    +0.000 OA
ATOM     22  C   UNL     1       7.900  15.841  24.709  0.00  0.00    +0.000 C 
ATOM     23  C   UNL     1       6.947  15.644  23.542  0.00  0.00    +0.000 C 
BRANCH  18  24
ATOM     24  C   UNL     1       7.891  13.458  22.543  0.00  0.00    +0.000 A 
ATOM     25  C   UNL     1       8.989  14.235  22.130  0.00  0.00    +0.000 A 
ATOM     26  C   UNL     1      10.083  13.661  21.476  0.00  0.00    +0.000 A 
ATOM     27  C   UNL     1      10.105  12.295  21.214  0.00  0.00    +0.000 A 
ATOM     28  C   UNL     1       9.033  11.504  21.608  0.00  0.00    +0.000 A 
ATOM     29  C   UNL     1       7.941  12.079  22.260  0.00  0.00    +0.000 A 
ENDBRANCH  18  24
ENDBRANCH   2  18
TORSDOF 3
ENDMDL
MODEL 7
REMARK VINA RESULT:      -7.1      5.322      7.849
REMARK  Name = 
REMARK  3 active torsions:
REMARK  status: ('A' for Active; 'I' for Inactive)
REMARK    1  A    between atoms: C_2  and  C_18
REMARK    2  A    between atoms: C_6  and  N_7
REMARK    3  A    between atoms: C_18  and  C_19
REMARK                            x       y       z     vdW  Elec       q    Type
REMARK                         _______ _______ _______ _____ _____    ______ ____
ROOT
ATOM      1  O   UNL     1      -0.534  10.198  21.792  0.00  0.00    +0.000 OA
ATOM      2  C   UNL     1      -0.886  11.257  21.256  0.00  0.00    +0.000 C 
ATOM      3  N   UNL     1      -1.691  12.125  21.965  0.00  0.00    +0.000 N 
ATOM      4  C   UNL     1      -2.050  11.870  23.349  0.00  0.00    +0.000 C 
ATOM      5  C   UNL     1      -3.488  12.354  23.450  0.00  0.00    +0.000 C 
ATOM      6  C   UNL     1      -3.512  13.589  22.535  0.00  0.00    +0.000 C 
ATOM      7  C   UNL     1      -2.508  13.190  21.430  0.00  0.00    +0.000 C 
ENDROOT
BRANCH   6   8
ATOM      8  N   UNL     1      -4.833  13.911  21.974  0.00  0.00    +0.000 NA
ATOM      9  C   UNL     1      -5.768  12.775  21.984  0.00  0.00    +0.000 C 
ATOM     10  C   UNL     1      -5.979  12.102  20.627  0.00  0.00    +0.000 C 
ATOM     11  C   UNL     1      -6.477  13.138  19.663  0.00  0.00    +0.000 A 
ATOM     12  C   UNL     1      -7.462  12.856  18.713  0.00  0.00    +0.000 A 
ATOM     13  C   UNL     1      -7.916  13.866  17.869  0.00  0.00    +0.000 A 
ATOM     14  C   UNL     1      -7.383  15.150  17.966  0.00  0.00    +0.000 A 
ATOM     15  C   UNL     1      -6.389  15.430  18.897  0.00  0.00    +0.000 A 
ATOM     16  C   UNL     1      -5.928  14.425  19.759  0.00  0.00    +0.000 A 
ATOM     17  C   UNL     1      -4.774  14.665  20.710  0.00  0.00    +0.000 C 
ENDBRANCH   6   8
BRANCH   2  18
ATOM     18  C   UNL     1      -0.320  11.650  19.832  0.00  0.00    +0.000 C 
ATOM     19  C   UNL     1       1.109  11.109  19.553  0.00  0.00    +0.000 C 
ATOM     20  C   UNL     1       1.764  11.783  18.345  0.00  0.00    +0.000 C 
ATOM     21  O   UNL     1       1.859  13.186  18.532  0.00  0.00    +0.000 OA
ATOM     22  C   UNL     1       0.573  13.785  18.669  0.00  0.00    +0.000 C 
ATOM     23  C   UNL     1      -0.150  13.210  19.876  0.00  0.00    +0.000 C 
BRANCH  18  24
ATOM     24  C   UNL     1      -1.368  11.218  18.773  0.00  0.00    +0.000 A 
ATOM     25  C   UNL     1      -1.104  10.127  17.925  0.00  0.00    +0.000 A 
ATOM     26  C   UNL     1      -2.000   9.754  16.918  0.00  0.00    +0.000 A 
ATOM     27  C   UNL     1      -3.180  10.466  16.729  0.00  0.00    +0.000 A 
ATOM     28  C   UNL     1      -3.464  11.551  17.550  0.00  0.00    +0.000 A 
ATOM     29  C   UNL     1      -2.569  11.922  18.554  0.00  0.00    +0.000 A 
ENDBRANCH  18  24
ENDBRANCH   2  18
TORSDOF 3
ENDMDL
MODEL 8
REMARK VINA RESULT:      -7.0      2.460      7.897
REMARK  Name = 
REMARK  3 active torsions:
REMARK  status: ('A' for Active; 'I' for Inactive)
REMARK    1  A    between atoms: C_2  and  C_18
REMARK    2  A    between atoms: C_6  and  N_7
REMARK    3  A    between atoms: C_18  and  C_19
REMARK                            x       y       z     vdW  Elec       q    Type
REMARK                         _______ _______ _______ _____ _____    ______ ____
ROOT
ATOM      1  O   UNL     1       0.670   9.932  21.829  0.00  0.00    +0.000 OA
ATOM      2  C   UNL     1       0.971   9.717  20.647  0.00  0.00    +0.000 C 
ATOM      3  N   UNL     1       1.199   8.417  20.245  0.00  0.00    +0.000 N 
ATOM      4  C   UNL     1       1.000   7.296  21.146  0.00  0.00    +0.000 C 
ATOM      5  C   UNL     1       2.123   6.335  20.791  0.00  0.00    +0.000 C 
ATOM      6  C   UNL     1       2.251   6.489  19.267  0.00  0.00    +0.000 C 
ATOM      7  C   UNL     1       1.908   7.982  19.064  0.00  0.00    +0.000 C 
ENDROOT
BRANCH   6   8
ATOM      8  N   UNL     1       3.580   6.162  18.727  0.00  0.00    +0.000 NA
ATOM      9  C   UNL     1       4.242   7.299  18.067  0.00  0.00    +0.000 C 
ATOM     10  C   UNL     1       4.229   7.255  16.539  0.00  0.00    +0.000 C 
ATOM     11  C   UNL     1       4.892   5.982  16.102  0.00  0.00    +0.000 A 
ATOM     12  C   UNL     1       5.741   5.929  14.994  0.00  0.00    +0.000 A 
ATOM     13  C   UNL     1       6.361   4.729  14.655  0.00  0.00    +0.000 A 
ATOM     14  C   UNL     1       6.129   3.584  15.416  0.00  0.00    +0.000 A 
ATOM     15  C   UNL     1       5.270   3.628  16.509  0.00  0.00    +0.000 A 
ATOM     16  C   UNL     1       4.645   4.832  16.865  0.00  0.00    +0.000 A 
ATOM     17  C   UNL     1       3.623   4.893  17.981  0.00  0.00    +0.000 C 
ENDBRANCH   6   8
BRANCH   2  18
ATOM     18  C   UNL     1       0.973  10.906  19.602  0.00  0.00    +0.000 C 
ATOM     19  C   UNL     1       2.145  10.847  18.586  0.00  0.00    +0.000 C 
ATOM     20  C   UNL     1       2.329  12.165  17.829  0.00  0.00    +0.000 C 
ATOM     21  O   UNL     1       2.582  13.236  18.724  0.00  0.00    +0.000 OA
ATOM     22  C   UNL     1       1.490  13.443  19.615  0.00  0.00    +0.000 C 
ATOM     23  C   UNL     1       1.249  12.197  20.451  0.00  0.00    +0.000 C 
BRANCH  18  24
ATOM     24  C   UNL     1      -0.429  10.948  18.936  0.00  0.00    +0.000 A 
ATOM     25  C   UNL     1      -1.439  11.767  19.473  0.00  0.00    +0.000 A 
ATOM     26  C   UNL     1      -2.730  11.778  18.935  0.00  0.00    +0.000 A 
ATOM     27  C   UNL     1      -3.045  10.966  17.851  0.00  0.00    +0.000 A 
ATOM     28  C   UNL     1      -2.067  10.144  17.303  0.00  0.00    +0.000 A 
ATOM     29  C   UNL     1      -0.780  10.134  17.842  0.00  0.00    +0.000 A 
ENDBRANCH  18  24
ENDBRANCH   2  18
TORSDOF 3
ENDMDL
MODEL 9
REMARK VINA RESULT:      -7.0      4.780      9.208
REMARK  Name = 
REMARK  3 active torsions:
REMARK  status: ('A' for Active; 'I' for Inactive)
REMARK    1  A    between atoms: C_2  and  C_18
REMARK    2  A    between atoms: C_6  and  N_7
REMARK    3  A    between atoms: C_18  and  C_19
REMARK                            x       y       z     vdW  Elec       q    Type
REMARK                         _______ _______ _______ _____ _____    ______ ____
ROOT
ATOM      1  O   UNL     1       1.705  15.041  22.669  0.00  0.00    +0.000 OA
ATOM      2  C   UNL     1       1.367  14.691  21.530  0.00  0.00    +0.000 C 
ATOM      3  N   UNL     1       0.325  13.797  21.391  0.00  0.00    +0.000 N 
ATOM      4  C   UNL     1      -0.440  13.338  22.536  0.00  0.00    +0.000 C 
ATOM      5  C   UNL     1      -0.729  11.878  22.224  0.00  0.00    +0.000 C 
ATOM      6  C   UNL     1      -0.952  11.880  20.703  0.00  0.00    +0.000 C 
ATOM      7  C   UNL     1       0.022  12.985  20.236  0.00  0.00    +0.000 C 
ENDROOT
BRANCH   6   8
ATOM      8  N   UNL     1      -0.670  10.596  20.041  0.00  0.00    +0.000 NA
ATOM      9  C   UNL     1      -0.708   9.444  20.955  0.00  0.00    +0.000 C 
ATOM     10  C   UNL     1       0.661   8.895  21.358  0.00  0.00    +0.000 C 
ATOM     11  C   UNL     1       1.395   8.506  20.109  0.00  0.00    +0.000 A 
ATOM     12  C   UNL     1       2.186   7.356  20.039  0.00  0.00    +0.000 A 
ATOM     13  C   UNL     1       2.814   7.020  18.842  0.00  0.00    +0.000 A 
ATOM     14  C   UNL     1       2.660   7.834  17.721  0.00  0.00    +0.000 A 
ATOM     15  C   UNL     1       1.889   8.989  17.791  0.00  0.00    +0.000 A 
ATOM     16  C   UNL     1       1.245   9.334  18.987  0.00  0.00    +0.000 A 
ATOM     17  C   UNL     1       0.487  10.638  19.131  0.00  0.00    +0.000 C 
ENDBRANCH   6   8
BRANCH   2  18
ATOM     18  C   UNL     1       2.045  15.355  20.264  0.00  0.00    +0.000 C 
ATOM     19  C   UNL     1       2.541  14.331  19.207  0.00  0.00    +0.000 C 
ATOM     20  C   UNL     1       3.490  14.960  18.183  0.00  0.00    +0.000 C 
ATOM     21  O   UNL     1       4.629  15.517  18.818  0.00  0.00    +0.000 OA
ATOM     22  C   UNL     1       4.270  16.563  19.717  0.00  0.00    +0.000 C 
ATOM     23  C   UNL     1       3.355  16.029  20.806  0.00  0.00    +0.000 C 
BRANCH  18  24
ATOM     24  C   UNL     1       1.054  16.406  19.696  0.00  0.00    +0.000 A 
ATOM     25  C   UNL     1       0.824  17.606  20.394  0.00  0.00    +0.000 A 
ATOM     26  C   UNL     1      -0.111  18.543  19.942  0.00  0.00    +0.000 A 
ATOM     27  C   UNL     1      -0.844  18.301  18.785  0.00  0.00    +0.000 A 
ATOM     28  C   UNL     1      -0.640  17.122  18.078  0.00  0.00    +0.000 A 
ATOM     29  C   UNL     1       0.293  16.188  18.530  0.00  0.00    +0.000 A 
ENDBRANCH  18  24
ENDBRANCH   2  18
TORSDOF 3
ENDMDL
