MODEL 1
REMARK VINA RESULT:      -7.8      0.000      0.000
REMARK  Name = 
REMARK  10 active torsions:
REMARK  status: ('A' for Active; 'I' for Inactive)
REMARK    1  A    between atoms: C_1  and  O_2
REMARK    2  A    between atoms: O_2  and  C_3
REMARK    3  A    between atoms: C_6  and  C_7
REMARK    4  A    between atoms: C_7  and  N_8
REMARK    5  A    between atoms: C_12  and  N_13
REMARK    6  A    between atoms: C_14  and  C_16
REMARK    7  A    between atoms: C_19  and  N_20
REMARK    8  A    between atoms: C_23  and  C_24
REMARK    9  A    between atoms: C_26  and  O_27
REMARK   10  A    between atoms: O_27  and  C_28
REMARK                            x       y       z     vdW  Elec       q    Type
REMARK                         _______ _______ _______ _____ _____    ______ ____
ROOT
ATOM      1  N   UNL     1       7.299   7.708  17.263  0.00  0.00    +0.000 N 
ATOM      2  C   UNL     1       8.156   8.070  18.279  0.00  0.00    +0.000 C 
ATOM      3  O   UNL     1       8.623   7.279  19.091  0.00  0.00    +0.000 OA
ATOM      4  H   UNL     1       6.971   8.400  16.603  0.00  0.00    +0.000 HD
ENDROOT
BRANCH   1   9
ATOM      5  N   UNL     1       4.781   4.889  17.731  0.00  0.00    +0.000 NA
ATOM      6  C   UNL     1       4.711   4.442  16.337  0.00  0.00    +0.000 C 
ATOM      7  C   UNL     1       6.040   4.556  15.593  0.00  0.00    +0.000 C 
ATOM      8  C   UNL     1       6.581   5.976  15.684  0.00  0.00    +0.000 C 
ATOM      9  C   UNL     1       6.791   6.339  17.150  0.00  0.00    +0.000 C 
ATOM     10  C   UNL     1       5.465   6.173  17.935  0.00  0.00    +0.000 C 
BRANCH   5  11
ATOM     11  C   UNL     1       3.473   4.827  18.418  0.00  0.00    +0.000 C 
BRANCH  11  15
ATOM     12  C   UNL     1       1.612   8.662  19.263  0.00  0.00    +0.000 A 
ATOM     13  C   UNL     1       2.053   8.356  17.977  0.00  0.00    +0.000 A 
ATOM     14  C   UNL     1       2.625   7.111  17.699  0.00  0.00    +0.000 A 
ATOM     15  C   UNL     1       2.796   6.158  18.715  0.00  0.00    +0.000 A 
ATOM     16  C   UNL     1       2.349   6.476  20.005  0.00  0.00    +0.000 A 
ATOM     17  C   UNL     1       1.766   7.720  20.280  0.00  0.00    +0.000 A 
BRANCH  12  19
ATOM     18  C   UNL     1       0.800  10.310  20.752  0.00  0.00    +0.000 C 
ATOM     19  O   UNL     1       1.083   9.915  19.414  0.00  0.00    +0.000 OA
ENDBRANCH  12  19
ENDBRANCH  11  15
ENDBRANCH   5  11
ENDBRANCH   1   9
BRANCH   2  20
ATOM     20  C   UNL     1       8.529   9.505  18.360  0.00  0.00    +0.000 A 
ATOM     21  C   UNL     1       7.913  10.390  17.476  0.00  0.00    +0.000 A 
ATOM     22  C   UNL     1       8.259  11.741  17.485  0.00  0.00    +0.000 A 
ATOM     23  C   UNL     1       9.259  12.214  18.357  0.00  0.00    +0.000 A 
ATOM     24  C   UNL     1       9.893  11.319  19.247  0.00  0.00    +0.000 A 
ATOM     25  C   UNL     1       9.513   9.967  19.244  0.00  0.00    +0.000 A 
BRANCH  23  26
ATOM     26  N   UNL     1       9.594  13.598  18.296  0.00  0.00    +0.000 N 
ATOM     27  C   UNL     1       9.081  14.638  19.040  0.00  0.00    +0.000 A 
ATOM     28  N   UNL     1       9.610  15.800  18.722  0.00  0.00    +0.000 NA
ATOM     29  C   UNL     1      10.513  15.527  17.733  0.00  0.00    +0.000 A 
ATOM     30  C   UNL     1      11.279  16.607  17.074  0.00  0.00    +0.000 C 
ATOM     31  C   UNL     1      10.545  14.173  17.479  0.00  0.00    +0.000 A 
ENDBRANCH  23  26
BRANCH  24  32
ATOM     32  O   UNL     1      10.819  11.834  20.113  0.00  0.00    +0.000 OA
ATOM     33  C   UNL     1      12.197  11.758  19.769  0.00  0.00    +0.000 C 
ENDBRANCH  24  32
ENDBRANCH   2  20
TORSDOF 7
ENDMDL
MODEL 2
REMARK VINA RESULT:      -7.8      4.716      7.761
REMARK  Name = 
REMARK  10 active torsions:
REMARK  status: ('A' for Active; 'I' for Inactive)
REMARK    1  A    between atoms: C_1  and  O_2
REMARK    2  A    between atoms: O_2  and  C_3
REMARK    3  A    between atoms: C_6  and  C_7
REMARK    4  A    between atoms: C_7  and  N_8
REMARK    5  A    between atoms: C_12  and  N_13
REMARK    6  A    between atoms: C_14  and  C_16
REMARK    7  A    between atoms: C_19  and  N_20
REMARK    8  A    between atoms: C_23  and  C_24
REMARK    9  A    between atoms: C_26  and  O_27
REMARK   10  A    between atoms: O_27  and  C_28
REMARK                            x       y       z     vdW  Elec       q    Type
REMARK                         _______ _______ _______ _____ _____    ______ ____
ROOT
ATOM      1  N   UNL     1       1.126   5.894  20.257  0.00  0.00    +0.000 N 
ATOM      2  C   UNL     1       2.015   6.899  19.943  0.00  0.00    +0.000 C 
ATOM      3  O   UNL     1       3.156   6.698  19.543  0.00  0.00    +0.000 OA
ATOM      4  H   UNL     1       0.186   6.120  20.551  0.00  0.00    +0.000 HD
ENDROOT
BRANCH   1   9
ATOM      5  N   UNL     1       3.009   2.843  18.972  0.00  0.00    +0.000 NA
ATOM      6  C   UNL     1       3.616   2.427  20.240  0.00  0.00    +0.000 C 
ATOM      7  C   UNL     1       2.727   2.683  21.455  0.00  0.00    +0.000 C 
ATOM      8  C   UNL     1       2.303   4.144  21.506  0.00  0.00    +0.000 C 
ATOM      9  C   UNL     1       1.532   4.487  20.236  0.00  0.00    +0.000 C 
ATOM     10  C   UNL     1       2.399   4.179  18.988  0.00  0.00    +0.000 C 
BRANCH   5  11
ATOM     11  C   UNL     1       3.906   2.642  17.815  0.00  0.00    +0.000 C 
BRANCH  11  15
ATOM     12  C   UNL     1       6.408   6.039  16.772  0.00  0.00    +0.000 A 
ATOM     13  C   UNL     1       6.515   5.438  18.025  0.00  0.00    +0.000 A 
ATOM     14  C   UNL     1       5.731   4.327  18.349  0.00  0.00    +0.000 A 
ATOM     15  C   UNL     1       4.798   3.815  17.433  0.00  0.00    +0.000 A 
ATOM     16  C   UNL     1       4.699   4.428  16.176  0.00  0.00    +0.000 A 
ATOM     17  C   UNL     1       5.493   5.534  15.848  0.00  0.00    +0.000 A 
BRANCH  12  19
ATOM     18  C   UNL     1       7.706   7.751  17.758  0.00  0.00    +0.000 C 
ATOM     19  O   UNL     1       7.217   7.125  16.577  0.00  0.00    +0.000 OA
ENDBRANCH  12  19
ENDBRANCH  11  15
ENDBRANCH   5  11
ENDBRANCH   1   9
BRANCH   2  20
ATOM     20  C   UNL     1       1.529   8.293  20.094  0.00  0.00    +0.000 A 
ATOM     21  C   UNL     1       1.527   9.110  18.964  0.00  0.00    +0.000 A 
ATOM     22  C   UNL     1       1.119  10.440  19.064  0.00  0.00    +0.000 A 
ATOM     23  C   UNL     1       0.743  10.978  20.309  0.00  0.00    +0.000 A 
ATOM     24  C   UNL     1       0.753  10.157  21.458  0.00  0.00    +0.000 A 
ATOM     25  C   UNL     1       1.140   8.813  21.336  0.00  0.00    +0.000 A 
BRANCH  23  26
ATOM     26  N   UNL     1       0.368  12.353  20.354  0.00  0.00    +0.000 N 
ATOM     27  C   UNL     1      -0.892  12.901  20.254  0.00  0.00    +0.000 A 
ATOM     28  N   UNL     1      -0.881  14.215  20.328  0.00  0.00    +0.000 NA
ATOM     29  C   UNL     1       0.433  14.558  20.488  0.00  0.00    +0.000 A 
ATOM     30  C   UNL     1       0.854  15.973  20.557  0.00  0.00    +0.000 C 
ATOM     31  C   UNL     1       1.216  13.425  20.541  0.00  0.00    +0.000 A 
ENDBRANCH  23  26
BRANCH  24  32
ATOM     32  O   UNL     1       0.327  10.709  22.637  0.00  0.00    +0.000 OA
ATOM     33  C   UNL     1      -0.876  10.229  23.223  0.00  0.00    +0.000 C 
ENDBRANCH  24  32
ENDBRANCH   2  20
TORSDOF 7
ENDMDL
MODEL 3
REMARK VINA RESULT:      -7.8      0.674      1.072
REMARK  Name = 
REMARK  10 active torsions:
REMARK  status: ('A' for Active; 'I' for Inactive)
REMARK    1  A    between atoms: C_1  and  O_2
REMARK    2  A    between atoms: O_2  and  C_3
REMARK    3  A    between atoms: C_6  and  C_7
REMARK    4  A    between atoms: C_7  and  N_8
REMARK    5  A    between atoms: C_12  and  N_13
REMARK    6  A    between atoms: C_14  and  C_16
REMARK    7  A    between atoms: C_19  and  N_20
REMARK    8  A    between atoms: C_23  and  C_24
REMARK    9  A    between atoms: C_26  and  O_27
REMARK   10  A    between atoms: O_27  and  C_28
REMARK                            x       y       z     vdW  Elec       q    Type
REMARK                         _______ _______ _______ _____ _____    ______ ____
ROOT
ATOM      1  N   UNL     1       7.245   7.679  17.271  0.00  0.00    +0.000 N 
ATOM      2  C   UNL     1       8.118   8.068  18.264  0.00  0.00    +0.000 C 
ATOM      3  O   UNL     1       8.611   7.296  19.078  0.00  0.00    +0.000 OA
ATOM      4  H   UNL     1       6.895   8.355  16.607  0.00  0.00    +0.000 HD
ENDROOT
BRANCH   1   9
ATOM      5  N   UNL     1       4.630   4.913  17.389  0.00  0.00    +0.000 NA
ATOM      6  C   UNL     1       4.916   4.304  16.087  0.00  0.00    +0.000 C 
ATOM      7  C   UNL     1       6.395   4.340  15.709  0.00  0.00    +0.000 C 
ATOM      8  C   UNL     1       6.926   5.766  15.772  0.00  0.00    +0.000 C 
ATOM      9  C   UNL     1       6.754   6.301  17.190  0.00  0.00    +0.000 C 
ATOM     10  C   UNL     1       5.266   6.218  17.613  0.00  0.00    +0.000 C 
BRANCH   5  11
ATOM     11  C   UNL     1       3.187   4.921  17.712  0.00  0.00    +0.000 C 
BRANCH  11  15
ATOM     12  C   UNL     1       1.621   8.366  19.849  0.00  0.00    +0.000 A 
ATOM     13  C   UNL     1       1.840   7.160  20.512  0.00  0.00    +0.000 A 
ATOM     14  C   UNL     1       2.372   6.061  19.831  0.00  0.00    +0.000 A 
ATOM     15  C   UNL     1       2.664   6.139  18.460  0.00  0.00    +0.000 A 
ATOM     16  C   UNL     1       2.439   7.357  17.803  0.00  0.00    +0.000 A 
ATOM     17  C   UNL     1       1.917   8.461  18.490  0.00  0.00    +0.000 A 
BRANCH  12  19
ATOM     18  C   UNL     1       0.713   8.992  21.941  0.00  0.00    +0.000 C 
ATOM     19  O   UNL     1       1.085   9.363  20.618  0.00  0.00    +0.000 OA
ENDBRANCH  12  19
ENDBRANCH  11  15
ENDBRANCH   5  11
ENDBRANCH   1   9
BRANCH   2  20
ATOM     20  C   UNL     1       8.473   9.508  18.315  0.00  0.00    +0.000 A 
ATOM     21  C   UNL     1       7.857  10.366  17.404  0.00  0.00    +0.000 A 
ATOM     22  C   UNL     1       8.188  11.720  17.385  0.00  0.00    +0.000 A 
ATOM     23  C   UNL     1       9.171  12.225  18.256  0.00  0.00    +0.000 A 
ATOM     24  C   UNL     1       9.805  11.359  19.174  0.00  0.00    +0.000 A 
ATOM     25  C   UNL     1       9.442  10.003  19.199  0.00  0.00    +0.000 A 
BRANCH  23  26
ATOM     26  N   UNL     1       9.491  13.612  18.166  0.00  0.00    +0.000 N 
ATOM     27  C   UNL     1       8.797  14.687  18.677  0.00  0.00    +0.000 A 
ATOM     28  N   UNL     1       9.370  15.839  18.404  0.00  0.00    +0.000 NA
ATOM     29  C   UNL     1      10.492  15.523  17.688  0.00  0.00    +0.000 A 
ATOM     30  C   UNL     1      11.379  16.575  17.148  0.00  0.00    +0.000 C 
ATOM     31  C   UNL     1      10.604  14.155  17.560  0.00  0.00    +0.000 A 
ENDBRANCH  23  26
BRANCH  24  32
ATOM     32  O   UNL     1      10.716  11.906  20.038  0.00  0.00    +0.000 OA
ATOM     33  C   UNL     1      10.276  12.319  21.326  0.00  0.00    +0.000 C 
ENDBRANCH  24  32
ENDBRANCH   2  20
TORSDOF 7
ENDMDL
MODEL 4
REMARK VINA RESULT:      -7.7      4.532      8.322
REMARK  Name = 
REMARK  10 active torsions:
REMARK  status: ('A' for Active; 'I' for Inactive)
REMARK    1  A    between atoms: C_1  and  O_2
REMARK    2  A    between atoms: O_2  and  C_3
REMARK    3  A    between atoms: C_6  and  C_7
REMARK    4  A    between atoms: C_7  and  N_8
REMARK    5  A    between atoms: C_12  and  N_13
REMARK    6  A    between atoms: C_14  and  C_16
REMARK    7  A    between atoms: C_19  and  N_20
REMARK    8  A    between atoms: C_23  and  C_24
REMARK    9  A    between atoms: C_26  and  O_27
REMARK   10  A    between atoms: O_27  and  C_28
REMARK                            x       y       z     vdW  Elec       q    Type
REMARK                         _______ _______ _______ _____ _____    ______ ____
ROOT
ATOM      1  N   UNL     1       1.162   5.888  20.548  0.00  0.00    +0.000 N 
ATOM      2  C   UNL     1       1.905   6.980  20.153  0.00  0.00    +0.000 C 
ATOM      3  O   UNL     1       2.934   6.900  19.493  0.00  0.00    +0.000 OA
ATOM      4  H   UNL     1       0.303   6.017  21.064  0.00  0.00    +0.000 HD
ENDROOT
BRANCH   1   9
ATOM      5  N   UNL     1       3.151   3.175  18.763  0.00  0.00    +0.000 NA
ATOM      6  C   UNL     1       3.789   2.579  19.940  0.00  0.00    +0.000 C 
ATOM      7  C   UNL     1       2.904   2.591  21.185  0.00  0.00    +0.000 C 
ATOM      8  C   UNL     1       2.423   4.005  21.482  0.00  0.00    +0.000 C 
ATOM      9  C   UNL     1       1.624   4.523  20.290  0.00  0.00    +0.000 C 
ATOM     10  C   UNL     1       2.488   4.463  19.005  0.00  0.00    +0.000 C 
BRANCH   5  11
ATOM     11  C   UNL     1       4.042   3.207  17.584  0.00  0.00    +0.000 C 
BRANCH  11  15
ATOM     12  C   UNL     1       6.663   6.645  17.135  0.00  0.00    +0.000 A 
ATOM     13  C   UNL     1       5.495   6.541  16.382  0.00  0.00    +0.000 A 
ATOM     14  C   UNL     1       4.637   5.450  16.548  0.00  0.00    +0.000 A 
ATOM     15  C   UNL     1       4.951   4.421  17.451  0.00  0.00    +0.000 A 
ATOM     16  C   UNL     1       6.129   4.536  18.203  0.00  0.00    +0.000 A 
ATOM     17  C   UNL     1       6.982   5.636  18.043  0.00  0.00    +0.000 A 
BRANCH  12  19
ATOM     18  C   UNL     1       8.020   8.374  18.007  0.00  0.00    +0.000 C 
ATOM     19  O   UNL     1       7.427   7.750  16.873  0.00  0.00    +0.000 OA
ENDBRANCH  12  19
ENDBRANCH  11  15
ENDBRANCH   5  11
ENDBRANCH   1   9
BRANCH   2  20
ATOM     20  C   UNL     1       1.395   8.315  20.554  0.00  0.00    +0.000 A 
ATOM     21  C   UNL     1       1.246   8.576  21.916  0.00  0.00    +0.000 A 
ATOM     22  C   UNL     1       0.732   9.800  22.340  0.00  0.00    +0.000 A 
ATOM     23  C   UNL     1       0.325  10.767  21.401  0.00  0.00    +0.000 A 
ATOM     24  C   UNL     1       0.464  10.503  20.020  0.00  0.00    +0.000 A 
ATOM     25  C   UNL     1       1.009   9.276  19.609  0.00  0.00    +0.000 A 
BRANCH  23  26
ATOM     26  N   UNL     1      -0.225  11.986  21.895  0.00  0.00    +0.000 N 
ATOM     27  C   UNL     1       0.256  13.268  21.741  0.00  0.00    +0.000 A 
ATOM     28  N   UNL     1      -0.497  14.168  22.336  0.00  0.00    +0.000 NA
ATOM     29  C   UNL     1      -1.521  13.463  22.905  0.00  0.00    +0.000 A 
ATOM     30  C   UNL     1      -2.556  14.136  23.719  0.00  0.00    +0.000 C 
ATOM     31  C   UNL     1      -1.392  12.122  22.617  0.00  0.00    +0.000 A 
ENDBRANCH  23  26
BRANCH  24  32
ATOM     32  O   UNL     1       0.105  11.493  19.145  0.00  0.00    +0.000 OA
ATOM     33  C   UNL     1      -1.137  11.387  18.462  0.00  0.00    +0.000 C 
ENDBRANCH  24  32
ENDBRANCH   2  20
TORSDOF 7
ENDMDL
MODEL 5
REMARK VINA RESULT:      -7.6      4.679      8.063
REMARK  Name = 
REMARK  10 active torsions:
REMARK  status: ('A' for Active; 'I' for Inactive)
REMARK    1  A    between atoms: C_1  and  O_2
REMARK    2  A    between atoms: O_2  and  C_3
REMARK    3  A    between atoms: C_6  and  C_7
REMARK    4  A    between atoms: C_7  and  N_8
REMARK    5  A    between atoms: C_12  and  N_13
REMARK    6  A    between atoms: C_14  and  C_16
REMARK    7  A    between atoms: C_19  and  N_20
REMARK    8  A    between atoms: C_23  and  C_24
REMARK    9  A    between atoms: C_26  and  O_27
REMARK   10  A    between atoms: O_27  and  C_28
REMARK                            x       y       z     vdW  Elec       q    Type
REMARK                         _______ _______ _______ _____ _____    ______ ____
ROOT
ATOM      1  N   UNL     1       1.151   5.855  20.457  0.00  0.00    +0.000 N 
ATOM      2  C   UNL     1       1.965   6.896  20.066  0.00  0.00    +0.000 C 
ATOM      3  O   UNL     1       3.044   6.743  19.504  0.00  0.00    +0.000 OA
ATOM      4  H   UNL     1       0.256   6.042  20.888  0.00  0.00    +0.000 HD
ENDROOT
BRANCH   1   9
ATOM      5  N   UNL     1       3.093   2.955  18.931  0.00  0.00    +0.000 NA
ATOM      6  C   UNL     1       3.702   2.445  20.163  0.00  0.00    +0.000 C 
ATOM      7  C   UNL     1       2.803   2.581  21.390  0.00  0.00    +0.000 C 
ATOM      8  C   UNL     1       2.353   4.026  21.562  0.00  0.00    +0.000 C 
ATOM      9  C   UNL     1       1.582   4.462  20.320  0.00  0.00    +0.000 C 
ATOM     10  C   UNL     1       2.459   4.275  19.056  0.00  0.00    +0.000 C 
BRANCH   5  11
ATOM     11  C   UNL     1       3.999   2.868  17.766  0.00  0.00    +0.000 C 
BRANCH  11  15
ATOM     12  C   UNL     1       6.344   6.434  16.947  0.00  0.00    +0.000 A 
ATOM     13  C   UNL     1       6.550   5.703  18.115  0.00  0.00    +0.000 A 
ATOM     14  C   UNL     1       5.816   4.539  18.364  0.00  0.00    +0.000 A 
ATOM     15  C   UNL     1       4.835   4.103  17.460  0.00  0.00    +0.000 A 
ATOM     16  C   UNL     1       4.635   4.847  16.289  0.00  0.00    +0.000 A 
ATOM     17  C   UNL     1       5.380   6.006  16.035  0.00  0.00    +0.000 A 
BRANCH  12  19
ATOM     18  C   UNL     1       7.940   7.870  17.937  0.00  0.00    +0.000 C 
ATOM     19  O   UNL     1       7.112   7.560  16.822  0.00  0.00    +0.000 OA
ENDBRANCH  12  19
ENDBRANCH  11  15
ENDBRANCH   5  11
ENDBRANCH   1   9
BRANCH   2  20
ATOM     20  C   UNL     1       1.473   8.269  20.343  0.00  0.00    +0.000 A 
ATOM     21  C   UNL     1       1.032   8.557  21.634  0.00  0.00    +0.000 A 
ATOM     22  C   UNL     1       0.523   9.820  21.933  0.00  0.00    +0.000 A 
ATOM     23  C   UNL     1       0.415  10.800  20.928  0.00  0.00    +0.000 A 
ATOM     24  C   UNL     1       0.851  10.510  19.617  0.00  0.00    +0.000 A 
ATOM     25  C   UNL     1       1.386   9.242  19.338  0.00  0.00    +0.000 A 
BRANCH  23  26
ATOM     26  N   UNL     1      -0.146  12.061  21.286  0.00  0.00    +0.000 N 
ATOM     27  C   UNL     1       0.509  13.226  21.625  0.00  0.00    +0.000 A 
ATOM     28  N   UNL     1      -0.317  14.209  21.910  0.00  0.00    +0.000 NA
ATOM     29  C   UNL     1      -1.571  13.685  21.752  0.00  0.00    +0.000 A 
ATOM     30  C   UNL     1      -2.779  14.487  22.040  0.00  0.00    +0.000 C 
ATOM     31  C   UNL     1      -1.488  12.374  21.335  0.00  0.00    +0.000 A 
ENDBRANCH  23  26
BRANCH  24  32
ATOM     32  O   UNL     1       0.776  11.512  18.686  0.00  0.00    +0.000 OA
ATOM     33  C   UNL     1       1.962  12.217  18.342  0.00  0.00    +0.000 C 
ENDBRANCH  24  32
ENDBRANCH   2  20
TORSDOF 7
ENDMDL
MODEL 6
REMARK VINA RESULT:      -7.6      6.198      9.030
REMARK  Name = 
REMARK  10 active torsions:
REMARK  status: ('A' for Active; 'I' for Inactive)
REMARK    1  A    between atoms: C_1  and  O_2
REMARK    2  A    between atoms: O_2  and  C_3
REMARK    3  A    between atoms: C_6  and  C_7
REMARK    4  A    between atoms: C_7  and  N_8
REMARK    5  A    between atoms: C_12  and  N_13
REMARK    6  A    between atoms: C_14  and  C_16
REMARK    7  A    between atoms: C_19  and  N_20
REMARK    8  A    between atoms: C_23  and  C_24
REMARK    9  A    between atoms: C_26  and  O_27
REMARK   10  A    between atoms: O_27  and  C_28
REMARK                            x       y       z     vdW  Elec       q    Type
REMARK                         _______ _______ _______ _____ _____    ______ ____
ROOT
ATOM      1  N   UNL     1       1.328   6.335  20.613  0.00  0.00    +0.000 N 
ATOM      2  C   UNL     1       1.636   7.567  20.076  0.00  0.00    +0.000 C 
ATOM      3  O   UNL     1       2.413   7.727  19.142  0.00  0.00    +0.000 OA
ATOM      4  H   UNL     1       0.655   6.261  21.363  0.00  0.00    +0.000 HD
ENDROOT
BRANCH   1   9
ATOM      5  N   UNL     1       4.261   4.269  19.333  0.00  0.00    +0.000 NA
ATOM      6  C   UNL     1       4.225   3.211  20.347  0.00  0.00    +0.000 C 
ATOM      7  C   UNL     1       2.814   2.862  20.814  0.00  0.00    +0.000 C 
ATOM      8  C   UNL     1       2.090   4.110  21.302  0.00  0.00    +0.000 C 
ATOM      9  C   UNL     1       2.009   5.119  20.162  0.00  0.00    +0.000 C 
ATOM     10  C   UNL     1       3.430   5.443  19.635  0.00  0.00    +0.000 C 
BRANCH   5  11
ATOM     11  C   UNL     1       5.637   4.635  18.936  0.00  0.00    +0.000 C 
BRANCH  11  15
ATOM     12  C   UNL     1       6.550   4.425  14.692  0.00  0.00    +0.000 A 
ATOM     13  C   UNL     1       5.377   3.864  15.193  0.00  0.00    +0.000 A 
ATOM     14  C   UNL     1       5.069   3.957  16.554  0.00  0.00    +0.000 A 
ATOM     15  C   UNL     1       5.950   4.588  17.447  0.00  0.00    +0.000 A 
ATOM     16  C   UNL     1       7.128   5.149  16.932  0.00  0.00    +0.000 A 
ATOM     17  C   UNL     1       7.429   5.064  15.566  0.00  0.00    +0.000 A 
BRANCH  12  19
ATOM     18  C   UNL     1       5.752   3.503  12.667  0.00  0.00    +0.000 C 
ATOM     19  O   UNL     1       6.747   4.257  13.349  0.00  0.00    +0.000 OA
ENDBRANCH  12  19
ENDBRANCH  11  15
ENDBRANCH   5  11
ENDBRANCH   1   9
BRANCH   2  20
ATOM     20  C   UNL     1       0.960   8.745  20.676  0.00  0.00    +0.000 A 
ATOM     21  C   UNL     1       0.896   8.823  22.067  0.00  0.00    +0.000 A 
ATOM     22  C   UNL     1       0.237   9.889  22.677  0.00  0.00    +0.000 A 
ATOM     23  C   UNL     1      -0.401  10.873  21.897  0.00  0.00    +0.000 A 
ATOM     24  C   UNL     1      -0.348  10.792  20.488  0.00  0.00    +0.000 A 
ATOM     25  C   UNL     1       0.344   9.727  19.889  0.00  0.00    +0.000 A 
BRANCH  23  26
ATOM     26  N   UNL     1      -1.089  11.919  22.578  0.00  0.00    +0.000 N 
ATOM     27  C   UNL     1      -2.342  11.890  23.151  0.00  0.00    +0.000 A 
ATOM     28  N   UNL     1      -2.679  13.040  23.695  0.00  0.00    +0.000 NA
ATOM     29  C   UNL     1      -1.611  13.867  23.481  0.00  0.00    +0.000 A 
ATOM     30  C   UNL     1      -1.639  15.282  23.908  0.00  0.00    +0.000 C 
ATOM     31  C   UNL     1      -0.607  13.187  22.825  0.00  0.00    +0.000 A 
ENDBRANCH  23  26
BRANCH  24  32
ATOM     32  O   UNL     1      -0.936  11.800  19.771  0.00  0.00    +0.000 OA
ATOM     33  C   UNL     1      -0.123  12.604  18.926  0.00  0.00    +0.000 C 
ENDBRANCH  24  32
ENDBRANCH   2  20
TORSDOF 7
ENDMDL
MODEL 7
REMARK VINA RESULT:      -7.5      4.323      8.982
REMARK  Name = 
REMARK  10 active torsions:
REMARK  status: ('A' for Active; 'I' for Inactive)
REMARK    1  A    between atoms: C_1  and  O_2
REMARK    2  A    between atoms: O_2  and  C_3
REMARK    3  A    between atoms: C_6  and  C_7
REMARK    4  A    between atoms: C_7  and  N_8
REMARK    5  A    between atoms: C_12  and  N_13
REMARK    6  A    between atoms: C_14  and  C_16
REMARK    7  A    between atoms: C_19  and  N_20
REMARK    8  A    between atoms: C_23  and  C_24
REMARK    9  A    between atoms: C_26  and  O_27
REMARK   10  A    between atoms: O_27  and  C_28
REMARK                            x       y       z     vdW  Elec       q    Type
REMARK                         _______ _______ _______ _____ _____    ______ ____
ROOT
ATOM      1  N   UNL     1       1.099   9.339  19.254  0.00  0.00    +0.000 N 
ATOM      2  C   UNL     1       1.618   8.194  19.818  0.00  0.00    +0.000 C 
ATOM      3  O   UNL     1       1.285   7.765  20.917  0.00  0.00    +0.000 OA
ATOM      4  H   UNL     1       1.389   9.628  18.330  0.00  0.00    +0.000 HD
ENDROOT
BRANCH   1   9
ATOM      5  N   UNL     1      -0.005  12.492  21.084  0.00  0.00    +0.000 NA
ATOM      6  C   UNL     1      -1.240  12.743  20.335  0.00  0.00    +0.000 C 
ATOM      7  C   UNL     1      -1.961  11.468  19.903  0.00  0.00    +0.000 C 
ATOM      8  C   UNL     1      -1.020  10.564  19.117  0.00  0.00    +0.000 C 
ATOM      9  C   UNL     1       0.172  10.198  19.995  0.00  0.00    +0.000 C 
ATOM     10  C   UNL     1       0.883  11.482  20.491  0.00  0.00    +0.000 C 
BRANCH   5  11
ATOM     11  C   UNL     1       0.709  13.736  21.442  0.00  0.00    +0.000 C 
BRANCH  11  15
ATOM     12  C   UNL     1       3.862  14.942  18.704  0.00  0.00    +0.000 A 
ATOM     13  C   UNL     1       2.529  14.941  18.296  0.00  0.00    +0.000 A 
ATOM     14  C   UNL     1       1.513  14.581  19.185  0.00  0.00    +0.000 A 
ATOM     15  C   UNL     1       1.816  14.182  20.497  0.00  0.00    +0.000 A 
ATOM     16  C   UNL     1       3.159  14.186  20.898  0.00  0.00    +0.000 A 
ATOM     17  C   UNL     1       4.176  14.557  20.008  0.00  0.00    +0.000 A 
BRANCH  12  19
ATOM     18  C   UNL     1       6.090  14.812  17.925  0.00  0.00    +0.000 C 
ATOM     19  O   UNL     1       4.765  15.298  17.741  0.00  0.00    +0.000 OA
ENDBRANCH  12  19
ENDBRANCH  11  15
ENDBRANCH   5  11
ENDBRANCH   1   9
BRANCH   2  20
ATOM     20  C   UNL     1       2.625   7.453  19.019  0.00  0.00    +0.000 A 
ATOM     21  C   UNL     1       3.087   8.041  17.842  0.00  0.00    +0.000 A 
ATOM     22  C   UNL     1       4.002   7.366  17.036  0.00  0.00    +0.000 A 
ATOM     23  C   UNL     1       4.439   6.073  17.382  0.00  0.00    +0.000 A 
ATOM     24  C   UNL     1       3.966   5.469  18.568  0.00  0.00    +0.000 A 
ATOM     25  C   UNL     1       3.066   6.173  19.383  0.00  0.00    +0.000 A 
BRANCH  23  26
ATOM     26  N   UNL     1       5.349   5.419  16.500  0.00  0.00    +0.000 N 
ATOM     27  C   UNL     1       6.707   5.239  16.650  0.00  0.00    +0.000 A 
ATOM     28  N   UNL     1       7.248   4.595  15.638  0.00  0.00    +0.000 NA
ATOM     29  C   UNL     1       6.214   4.330  14.783  0.00  0.00    +0.000 A 
ATOM     30  C   UNL     1       6.443   3.655  13.488  0.00  0.00    +0.000 C 
ATOM     31  C   UNL     1       5.030   4.798  15.311  0.00  0.00    +0.000 A 
ENDBRANCH  23  26
BRANCH  24  32
ATOM     32  O   UNL     1       4.460   4.233  18.892  0.00  0.00    +0.000 OA
ATOM     33  C   UNL     1       3.633   3.093  18.699  0.00  0.00    +0.000 C 
ENDBRANCH  24  32
ENDBRANCH   2  20
TORSDOF 7
ENDMDL
MODEL 8
REMARK VINA RESULT:      -7.4      5.413      9.177
REMARK  Name = 
REMARK  10 active torsions:
REMARK  status: ('A' for Active; 'I' for Inactive)
REMARK    1  A    between atoms: C_1  and  O_2
REMARK    2  A    between atoms: O_2  and  C_3
REMARK    3  A    between atoms: C_6  and  C_7
REMARK    4  A    between atoms: C_7  and  N_8
REMARK    5  A    between atoms: C_12  and  N_13
REMARK    6  A    between atoms: C_14  and  C_16
REMARK    7  A    between atoms: C_19  and  N_20
REMARK    8  A    between atoms: C_23  and  C_24
REMARK    9  A    between atoms: C_26  and  O_27
REMARK   10  A    between atoms: O_27  and  C_28
REMARK                            x       y       z     vdW  Elec       q    Type
REMARK                         _______ _______ _______ _____ _____    ______ ____
ROOT
ATOM      1  N   UNL     1       1.202   9.330  18.928  0.00  0.00    +0.000 N 
ATOM      2  C   UNL     1       1.702   8.172  19.483  0.00  0.00    +0.000 C 
ATOM      3  O   UNL     1       1.365   7.743  20.581  0.00  0.00    +0.000 OA
ATOM      4  H   UNL     1       1.492   9.618  18.004  0.00  0.00    +0.000 HD
ENDROOT
BRANCH   1   9
ATOM      5  N   UNL     1       0.186  12.468  20.833  0.00  0.00    +0.000 NA
ATOM      6  C   UNL     1      -1.024  12.788  20.071  0.00  0.00    +0.000 C 
ATOM      7  C   UNL     1      -1.786  11.556  19.587  0.00  0.00    +0.000 C 
ATOM      8  C   UNL     1      -0.866  10.640  18.791  0.00  0.00    +0.000 C 
ATOM      9  C   UNL     1       0.295  10.201  19.679  0.00  0.00    +0.000 C 
ATOM     10  C   UNL     1       1.045  11.442  20.226  0.00  0.00    +0.000 C 
BRANCH   5  11
ATOM     11  C   UNL     1       0.940  13.671  21.242  0.00  0.00    +0.000 C 
BRANCH  11  15
ATOM     12  C   UNL     1       1.736  16.676  18.205  0.00  0.00    +0.000 A 
ATOM     13  C   UNL     1       2.662  15.667  18.464  0.00  0.00    +0.000 A 
ATOM     14  C   UNL     1       2.392  14.683  19.420  0.00  0.00    +0.000 A 
ATOM     15  C   UNL     1       1.200  14.711  20.162  0.00  0.00    +0.000 A 
ATOM     16  C   UNL     1       0.277  15.732  19.894  0.00  0.00    +0.000 A 
ATOM     17  C   UNL     1       0.543  16.710  18.928  0.00  0.00    +0.000 A 
BRANCH  12  19
ATOM     18  C   UNL     1       1.095  18.458  16.789  0.00  0.00    +0.000 C 
ATOM     19  O   UNL     1       2.118  17.587  17.259  0.00  0.00    +0.000 OA
ENDBRANCH  12  19
ENDBRANCH  11  15
ENDBRANCH   5  11
ENDBRANCH   1   9
BRANCH   2  20
ATOM     20  C   UNL     1       2.691   7.417  18.675  0.00  0.00    +0.000 A 
ATOM     21  C   UNL     1       3.353   8.094  17.651  0.00  0.00    +0.000 A 
ATOM     22  C   UNL     1       4.261   7.418  16.838  0.00  0.00    +0.000 A 
ATOM     23  C   UNL     1       4.489   6.040  17.018  0.00  0.00    +0.000 A 
ATOM     24  C   UNL     1       3.813   5.347  18.047  0.00  0.00    +0.000 A 
ATOM     25  C   UNL     1       2.922   6.049  18.875  0.00  0.00    +0.000 A 
BRANCH  23  26
ATOM     26  N   UNL     1       5.402   5.396  16.133  0.00  0.00    +0.000 N 
ATOM     27  C   UNL     1       6.760   5.214  16.286  0.00  0.00    +0.000 A 
ATOM     28  N   UNL     1       7.305   4.581  15.270  0.00  0.00    +0.000 NA
ATOM     29  C   UNL     1       6.275   4.325  14.408  0.00  0.00    +0.000 A 
ATOM     30  C   UNL     1       6.509   3.664  13.107  0.00  0.00    +0.000 C 
ATOM     31  C   UNL     1       5.089   4.788  14.936  0.00  0.00    +0.000 A 
ENDBRANCH  23  26
BRANCH  24  32
ATOM     32  O   UNL     1       4.108   4.021  18.218  0.00  0.00    +0.000 OA
ATOM     33  C   UNL     1       4.577   3.582  19.486  0.00  0.00    +0.000 C 
ENDBRANCH  24  32
ENDBRANCH   2  20
TORSDOF 7
ENDMDL
MODEL 9
REMARK VINA RESULT:      -7.3      5.302      7.597
REMARK  Name = 
REMARK  10 active torsions:
REMARK  status: ('A' for Active; 'I' for Inactive)
REMARK    1  A    between atoms: C_1  and  O_2
REMARK    2  A    between atoms: O_2  and  C_3
REMARK    3  A    between atoms: C_6  and  C_7
REMARK    4  A    between atoms: C_7  and  N_8
REMARK    5  A    between atoms: C_12  and  N_13
REMARK    6  A    between atoms: C_14  and  C_16
REMARK    7  A    between atoms: C_19  and  N_20
REMARK    8  A    between atoms: C_23  and  C_24
REMARK    9  A    between atoms: C_26  and  O_27
REMARK   10  A    between atoms: O_27  and  C_28
REMARK                            x       y       z     vdW  Elec       q    Type
REMARK                         _______ _______ _______ _____ _____    ______ ____
ROOT
ATOM      1  N   UNL     1       1.899   8.071  19.731  0.00  0.00    +0.000 N 
ATOM      2  C   UNL     1       1.637   8.935  18.691  0.00  0.00    +0.000 C 
ATOM      3  O   UNL     1       1.436   8.571  17.538  0.00  0.00    +0.000 OA
ATOM      4  H   UNL     1       2.026   8.427  20.669  0.00  0.00    +0.000 HD
ENDROOT
BRANCH   1   9
ATOM      5  N   UNL     1       3.843   4.857  19.101  0.00  0.00    +0.000 NA
ATOM      6  C   UNL     1       3.278   4.057  20.191  0.00  0.00    +0.000 C 
ATOM      7  C   UNL     1       1.808   4.362  20.472  0.00  0.00    +0.000 C 
ATOM      8  C   UNL     1       1.612   5.850  20.729  0.00  0.00    +0.000 C 
ATOM      9  C   UNL     1       2.065   6.634  19.501  0.00  0.00    +0.000 C 
ATOM     10  C   UNL     1       3.539   6.293  19.166  0.00  0.00    +0.000 C 
BRANCH   5  11
ATOM     11  C   UNL     1       5.281   4.590  18.883  0.00  0.00    +0.000 C 
BRANCH  11  15
ATOM     12  C   UNL     1       6.578   4.439  14.737  0.00  0.00    +0.000 A 
ATOM     13  C   UNL     1       7.255   5.231  15.664  0.00  0.00    +0.000 A 
ATOM     14  C   UNL     1       6.855   5.256  17.003  0.00  0.00    +0.000 A 
ATOM     15  C   UNL     1       5.746   4.512  17.435  0.00  0.00    +0.000 A 
ATOM     16  C   UNL     1       5.072   3.720  16.495  0.00  0.00    +0.000 A 
ATOM     17  C   UNL     1       5.481   3.687  15.155  0.00  0.00    +0.000 A 
BRANCH  12  19
ATOM     18  C   UNL     1       6.386   3.689  12.503  0.00  0.00    +0.000 C 
ATOM     19  O   UNL     1       7.054   4.508  13.456  0.00  0.00    +0.000 OA
ENDBRANCH  12  19
ENDBRANCH  11  15
ENDBRANCH   5  11
ENDBRANCH   1   9
BRANCH   2  20
ATOM     20  C   UNL     1       1.589  10.382  19.019  0.00  0.00    +0.000 A 
ATOM     21  C   UNL     1       2.129  11.279  18.098  0.00  0.00    +0.000 A 
ATOM     22  C   UNL     1       2.144  12.644  18.380  0.00  0.00    +0.000 A 
ATOM     23  C   UNL     1       1.651  13.124  19.608  0.00  0.00    +0.000 A 
ATOM     24  C   UNL     1       1.113  12.219  20.548  0.00  0.00    +0.000 A 
ATOM     25  C   UNL     1       1.080  10.849  20.239  0.00  0.00    +0.000 A 
BRANCH  23  26
ATOM     26  N   UNL     1       1.726  14.527  19.853  0.00  0.00    +0.000 N 
ATOM     27  C   UNL     1       2.729  15.236  20.478  0.00  0.00    +0.000 A 
ATOM     28  N   UNL     1       2.474  16.525  20.545  0.00  0.00    +0.000 NA
ATOM     29  C   UNL     1       1.260  16.686  19.937  0.00  0.00    +0.000 A 
ATOM     30  C   UNL     1       0.608  18.010  19.864  0.00  0.00    +0.000 C 
ATOM     31  C   UNL     1       0.797  15.473  19.473  0.00  0.00    +0.000 A 
ENDBRANCH  23  26
BRANCH  24  32
ATOM     32  O   UNL     1       0.596  12.737  21.705  0.00  0.00    +0.000 OA
ATOM     33  C   UNL     1      -0.788  12.556  21.979  0.00  0.00    +0.000 C 
ENDBRANCH  24  32
ENDBRANCH   2  20
TORSDOF 7
ENDMDL
