MODEL 1
REMARK VINA RESULT:      -8.0      0.000      0.000
REMARK  Name = 
REMARK  9 active torsions:
REMARK  status: ('A' for Active; 'I' for Inactive)
REMARK    1  A    between atoms: C_1  and  N_2
REMARK    2  A    between atoms: N_2  and  C_3
REMARK    3  A    between atoms: N_2  and  C_4
REMARK    4  A    between atoms: C_4  and  C_5
REMARK    5  A    between atoms: C_5  and  N_6
REMARK    6  A    between atoms: C_10  and  N_11
REMARK    7  A    between atoms: C_16  and  C_17
REMARK    8  A    between atoms: C_20  and  N_21
REMARK    9  A    between atoms: C_26  and  C_27
REMARK                            x       y       z     vdW  Elec       q    Type
REMARK                         _______ _______ _______ _____ _____    ______ ____
ROOT
ATOM      1  N   UNL     1       5.611   5.013  17.737  0.00  0.00    +0.000 N 
ATOM      2  C   UNL     1       4.371   4.993  18.391  0.00  0.00    +0.000 A 
ATOM      3  N   UNL     1       3.917   3.801  18.798  0.00  0.00    +0.000 NA
ATOM      4  C   UNL     1       2.760   3.800  19.479  0.00  0.00    +0.000 A 
ATOM      5  C   UNL     1       2.059   4.941  19.792  0.00  0.00    +0.000 A 
ATOM      6  C   UNL     1       2.589   6.127  19.333  0.00  0.00    +0.000 A 
ATOM      7  N   UNL     1       3.732   6.151  18.625  0.00  0.00    +0.000 NA
ATOM      8  H   UNL     1       6.023   4.101  17.902  0.00  0.00    +0.000 HD
ENDROOT
BRANCH   1  13
ATOM      9  N   UNL     1       9.162   9.275  18.420  0.00  0.00    +0.000 N 
ATOM     10  C   UNL     1       8.266   8.207  18.268  0.00  0.00    +0.000 A 
ATOM     11  C   UNL     1       8.396   7.073  19.064  0.00  0.00    +0.000 A 
ATOM     12  C   UNL     1       7.498   6.008  18.903  0.00  0.00    +0.000 A 
ATOM     13  C   UNL     1       6.547   6.053  17.888  0.00  0.00    +0.000 A 
ATOM     14  C   UNL     1       6.516   7.215  17.126  0.00  0.00    +0.000 A 
ATOM     15  N   UNL     1       7.336   8.271  17.297  0.00  0.00    +0.000 NA
ATOM     16  H   UNL     1       9.431   9.377  19.398  0.00  0.00    +0.000 HD
BRANCH   9  17
ATOM     17  C   UNL     1       8.602  10.555  17.955  0.00  0.00    +0.000 C 
BRANCH  17  18
ATOM     18  C   UNL     1       9.389  11.739  18.574  0.00  0.00    +0.000 C 
BRANCH  18  20
ATOM     19  C   UNL     1      11.713  12.079  17.943  0.00  0.00    +0.000 C 
ATOM     20  N   UNL     1      10.807  11.416  18.885  0.00  0.00    +0.000 NA
ATOM     21  C   UNL     1      11.132  11.845  20.250  0.00  0.00    +0.000 C 
ENDBRANCH  18  20
ENDBRANCH  17  18
ENDBRANCH   9  17
ENDBRANCH   1  13
BRANCH   6  22
ATOM     22  C   UNL     1       1.936   7.436  19.537  0.00  0.00    +0.000 A 
ATOM     23  C   UNL     1       1.727   8.329  18.483  0.00  0.00    +0.000 A 
ATOM     24  C   UNL     1       1.194   9.606  18.702  0.00  0.00    +0.000 A 
ATOM     25  C   UNL     1       0.822  10.059  19.979  0.00  0.00    +0.000 A 
ATOM     26  C   UNL     1       0.982   9.136  21.041  0.00  0.00    +0.000 A 
ATOM     27  C   UNL     1       1.518   7.852  20.811  0.00  0.00    +0.000 A 
BRANCH  25  28
ATOM     28  N   UNL     1       0.323  11.344  20.176  0.00  0.00    +0.000 N 
ATOM     29  C   UNL     1      -1.050  11.721  19.822  0.00  0.00    +0.000 C 
ATOM     30  C   UNL     1      -0.895  12.918  18.896  0.00  0.00    +0.000 C 
ATOM     31  C   UNL     1       0.328  13.619  19.454  0.00  0.00    +0.000 C 
ATOM     32  C   UNL     1       1.237  12.470  19.895  0.00  0.00    +0.000 C 
ENDBRANCH  25  28
BRANCH  26  33
ATOM     33  C   UNL     1       0.582   9.452  22.386  0.00  0.00    +0.000 C 
ATOM     34  N   UNL     1       0.269   9.662  23.488  0.00  0.00    +0.000 NA
ENDBRANCH  26  33
ENDBRANCH   6  22
TORSDOF 7
ENDMDL
MODEL 2
REMARK VINA RESULT:      -7.9      0.936      1.137
REMARK  Name = 
REMARK  9 active torsions:
REMARK  status: ('A' for Active; 'I' for Inactive)
REMARK    1  A    between atoms: C_1  and  N_2
REMARK    2  A    between atoms: N_2  and  C_3
REMARK    3  A    between atoms: N_2  and  C_4
REMARK    4  A    between atoms: C_4  and  C_5
REMARK    5  A    between atoms: C_5  and  N_6
REMARK    6  A    between atoms: C_10  and  N_11
REMARK    7  A    between atoms: C_16  and  C_17
REMARK    8  A    between atoms: C_20  and  N_21
REMARK    9  A    between atoms: C_26  and  C_27
REMARK                            x       y       z     vdW  Elec       q    Type
REMARK                         _______ _______ _______ _____ _____    ______ ____
ROOT
ATOM      1  N   UNL     1       5.195   4.759  18.121  0.00  0.00    +0.000 N 
ATOM      2  C   UNL     1       4.000   4.866  18.847  0.00  0.00    +0.000 A 
ATOM      3  N   UNL     1       3.519   3.744  19.396  0.00  0.00    +0.000 NA
ATOM      4  C   UNL     1       2.410   3.869  20.142  0.00  0.00    +0.000 A 
ATOM      5  C   UNL     1       1.784   5.070  20.382  0.00  0.00    +0.000 A 
ATOM      6  C   UNL     1       2.338   6.177  19.778  0.00  0.00    +0.000 A 
ATOM      7  N   UNL     1       3.432   6.073  19.003  0.00  0.00    +0.000 NA
ATOM      8  H   UNL     1       5.574   3.847  18.350  0.00  0.00    +0.000 HD
ENDROOT
BRANCH   1  13
ATOM      9  N   UNL     1       8.981   8.870  18.182  0.00  0.00    +0.000 N 
ATOM     10  C   UNL     1       8.028   7.840  18.186  0.00  0.00    +0.000 A 
ATOM     11  C   UNL     1       8.209   6.731  19.006  0.00  0.00    +0.000 A 
ATOM     12  C   UNL     1       7.254   5.705  19.001  0.00  0.00    +0.000 A 
ATOM     13  C   UNL     1       6.186   5.758  18.111  0.00  0.00    +0.000 A 
ATOM     14  C   UNL     1       6.108   6.893  17.311  0.00  0.00    +0.000 A 
ATOM     15  N   UNL     1       6.988   7.914  17.336  0.00  0.00    +0.000 NA
ATOM     16  H   UNL     1       9.375   8.993  19.114  0.00  0.00    +0.000 HD
BRANCH   9  17
ATOM     17  C   UNL     1       8.422  10.157  17.738  0.00  0.00    +0.000 C 
BRANCH  17  18
ATOM     18  C   UNL     1       9.291  11.328  18.265  0.00  0.00    +0.000 C 
BRANCH  18  20
ATOM     19  C   UNL     1       7.638  12.742  17.178  0.00  0.00    +0.000 C 
ATOM     20  N   UNL     1       9.047  12.616  17.564  0.00  0.00    +0.000 NA
ATOM     21  C   UNL     1       9.410  13.740  18.435  0.00  0.00    +0.000 C 
ENDBRANCH  18  20
ENDBRANCH  17  18
ENDBRANCH   9  17
ENDBRANCH   1  13
BRANCH   6  22
ATOM     22  C   UNL     1       1.761   7.532  19.890  0.00  0.00    +0.000 A 
ATOM     23  C   UNL     1       1.733   8.415  18.807  0.00  0.00    +0.000 A 
ATOM     24  C   UNL     1       1.270   9.730  18.949  0.00  0.00    +0.000 A 
ATOM     25  C   UNL     1       0.793  10.234  20.171  0.00  0.00    +0.000 A 
ATOM     26  C   UNL     1       0.769   9.325  21.255  0.00  0.00    +0.000 A 
ATOM     27  C   UNL     1       1.235   8.002  21.104  0.00  0.00    +0.000 A 
BRANCH  25  28
ATOM     28  N   UNL     1       0.367  11.555  20.293  0.00  0.00    +0.000 N 
ATOM     29  C   UNL     1      -0.804  12.077  19.580  0.00  0.00    +0.000 C 
ATOM     30  C   UNL     1      -0.283  13.284  18.815  0.00  0.00    +0.000 C 
ATOM     31  C   UNL     1       0.776  13.841  19.747  0.00  0.00    +0.000 C 
ATOM     32  C   UNL     1       1.415  12.594  20.360  0.00  0.00    +0.000 C 
ENDBRANCH  25  28
BRANCH  26  33
ATOM     33  C   UNL     1       0.246   9.696  22.543  0.00  0.00    +0.000 C 
ATOM     34  N   UNL     1      -0.197  10.036  23.566  0.00  0.00    +0.000 NA
ENDBRANCH  26  33
ENDBRANCH   6  22
TORSDOF 7
ENDMDL
MODEL 3
REMARK VINA RESULT:      -7.3      0.810      1.227
REMARK  Name = 
REMARK  9 active torsions:
REMARK  status: ('A' for Active; 'I' for Inactive)
REMARK    1  A    between atoms: C_1  and  N_2
REMARK    2  A    between atoms: N_2  and  C_3
REMARK    3  A    between atoms: N_2  and  C_4
REMARK    4  A    between atoms: C_4  and  C_5
REMARK    5  A    between atoms: C_5  and  N_6
REMARK    6  A    between atoms: C_10  and  N_11
REMARK    7  A    between atoms: C_16  and  C_17
REMARK    8  A    between atoms: C_20  and  N_21
REMARK    9  A    between atoms: C_26  and  C_27
REMARK                            x       y       z     vdW  Elec       q    Type
REMARK                         _______ _______ _______ _____ _____    ______ ____
ROOT
ATOM      1  N   UNL     1       5.692   5.051  17.344  0.00  0.00    +0.000 N 
ATOM      2  C   UNL     1       4.386   5.019  17.855  0.00  0.00    +0.000 A 
ATOM      3  N   UNL     1       3.853   3.813  18.086  0.00  0.00    +0.000 NA
ATOM      4  C   UNL     1       2.627   3.794  18.634  0.00  0.00    +0.000 A 
ATOM      5  C   UNL     1       1.931   4.927  18.983  0.00  0.00    +0.000 A 
ATOM      6  C   UNL     1       2.546   6.129  18.708  0.00  0.00    +0.000 A 
ATOM      7  N   UNL     1       3.761   6.174  18.135  0.00  0.00    +0.000 NA
ATOM      8  H   UNL     1       6.055   4.111  17.459  0.00  0.00    +0.000 HD
ENDROOT
BRANCH   1  13
ATOM      9  N   UNL     1       9.273   9.077  18.832  0.00  0.00    +0.000 N 
ATOM     10  C   UNL     1       8.366   8.067  18.478  0.00  0.00    +0.000 A 
ATOM     11  C   UNL     1       8.346   6.871  19.189  0.00  0.00    +0.000 A 
ATOM     12  C   UNL     1       7.440   5.865  18.825  0.00  0.00    +0.000 A 
ATOM     13  C   UNL     1       6.637   6.032  17.701  0.00  0.00    +0.000 A 
ATOM     14  C   UNL     1       6.751   7.248  17.038  0.00  0.00    +0.000 A 
ATOM     15  N   UNL     1       7.580   8.248  17.401  0.00  0.00    +0.000 NA
ATOM     16  H   UNL     1       9.411   9.091  19.843  0.00  0.00    +0.000 HD
BRANCH   9  17
ATOM     17  C   UNL     1       8.828  10.413  18.403  0.00  0.00    +0.000 C 
BRANCH  17  18
ATOM     18  C   UNL     1       9.419  11.499  19.339  0.00  0.00    +0.000 C 
BRANCH  18  20
ATOM     19  C   UNL     1      10.997  12.151  17.606  0.00  0.00    +0.000 C 
ATOM     20  N   UNL     1      10.047  12.635  18.613  0.00  0.00    +0.000 NA
ATOM     21  C   UNL     1       9.015  13.442  17.952  0.00  0.00    +0.000 C 
ENDBRANCH  18  20
ENDBRANCH  17  18
ENDBRANCH   9  17
ENDBRANCH   1  13
BRANCH   6  22
ATOM     22  C   UNL     1       1.915   7.438  18.972  0.00  0.00    +0.000 A 
ATOM     23  C   UNL     1       1.615   8.334  17.942  0.00  0.00    +0.000 A 
ATOM     24  C   UNL     1       1.103   9.611  18.212  0.00  0.00    +0.000 A 
ATOM     25  C   UNL     1       0.847  10.061  19.518  0.00  0.00    +0.000 A 
ATOM     26  C   UNL     1       1.098   9.135  20.559  0.00  0.00    +0.000 A 
ATOM     27  C   UNL     1       1.611   7.851  20.279  0.00  0.00    +0.000 A 
BRANCH  25  28
ATOM     28  N   UNL     1       0.368  11.346  19.760  0.00  0.00    +0.000 N 
ATOM     29  C   UNL     1       1.187  12.389  20.388  0.00  0.00    +0.000 C 
ATOM     30  C   UNL     1       0.369  12.855  21.583  0.00  0.00    +0.000 C 
ATOM     31  C   UNL     1      -1.057  12.727  21.085  0.00  0.00    +0.000 C 
ATOM     32  C   UNL     1      -1.031  11.466  20.221  0.00  0.00    +0.000 C 
ENDBRANCH  25  28
BRANCH  26  33
ATOM     33  C   UNL     1       0.819   9.448  21.935  0.00  0.00    +0.000 C 
ATOM     34  N   UNL     1       0.585   9.748  23.036  0.00  0.00    +0.000 NA
ENDBRANCH  26  33
ENDBRANCH   6  22
TORSDOF 7
ENDMDL
MODEL 4
REMARK VINA RESULT:      -7.3      1.202      2.030
REMARK  Name = 
REMARK  9 active torsions:
REMARK  status: ('A' for Active; 'I' for Inactive)
REMARK    1  A    between atoms: C_1  and  N_2
REMARK    2  A    between atoms: N_2  and  C_3
REMARK    3  A    between atoms: N_2  and  C_4
REMARK    4  A    between atoms: C_4  and  C_5
REMARK    5  A    between atoms: C_5  and  N_6
REMARK    6  A    between atoms: C_10  and  N_11
REMARK    7  A    between atoms: C_16  and  C_17
REMARK    8  A    between atoms: C_20  and  N_21
REMARK    9  A    between atoms: C_26  and  C_27
REMARK                            x       y       z     vdW  Elec       q    Type
REMARK                         _______ _______ _______ _____ _____    ______ ____
ROOT
ATOM      1  N   UNL     1       4.979   4.658  18.040  0.00  0.00    +0.000 N 
ATOM      2  C   UNL     1       3.831   4.723  18.842  0.00  0.00    +0.000 A 
ATOM      3  N   UNL     1       3.375   3.570  19.347  0.00  0.00    +0.000 NA
ATOM      4  C   UNL     1       2.313   3.652  20.165  0.00  0.00    +0.000 A 
ATOM      5  C   UNL     1       1.712   4.837  20.517  0.00  0.00    +0.000 A 
ATOM      6  C   UNL     1       2.237   5.979  19.952  0.00  0.00    +0.000 A 
ATOM      7  N   UNL     1       3.283   5.920  19.108  0.00  0.00    +0.000 NA
ATOM      8  H   UNL     1       5.365   3.731  18.188  0.00  0.00    +0.000 HD
ENDROOT
BRANCH   1  13
ATOM      9  N   UNL     1       8.788   8.748  18.117  0.00  0.00    +0.000 N 
ATOM     10  C   UNL     1       7.829   7.724  18.118  0.00  0.00    +0.000 A 
ATOM     11  C   UNL     1       8.005   6.610  18.933  0.00  0.00    +0.000 A 
ATOM     12  C   UNL     1       7.044   5.589  18.924  0.00  0.00    +0.000 A 
ATOM     13  C   UNL     1       5.976   5.652  18.035  0.00  0.00    +0.000 A 
ATOM     14  C   UNL     1       5.904   6.790  17.239  0.00  0.00    +0.000 A 
ATOM     15  N   UNL     1       6.789   7.806  17.268  0.00  0.00    +0.000 NA
ATOM     16  H   UNL     1       9.183   8.866  19.050  0.00  0.00    +0.000 HD
BRANCH   9  17
ATOM     17  C   UNL     1       8.235  10.041  17.679  0.00  0.00    +0.000 C 
BRANCH  17  18
ATOM     18  C   UNL     1       9.115  11.204  18.205  0.00  0.00    +0.000 C 
BRANCH  18  20
ATOM     19  C   UNL     1      11.308  11.481  19.218  0.00  0.00    +0.000 C 
ATOM     20  N   UNL     1      10.006  10.817  19.330  0.00  0.00    +0.000 NA
ATOM     21  C   UNL     1       9.388  11.182  20.610  0.00  0.00    +0.000 C 
ENDBRANCH  18  20
ENDBRANCH  17  18
ENDBRANCH   9  17
ENDBRANCH   1  13
BRANCH   6  22
ATOM     22  C   UNL     1       1.678   7.325  20.184  0.00  0.00    +0.000 A 
ATOM     23  C   UNL     1       0.788   7.585  21.230  0.00  0.00    +0.000 A 
ATOM     24  C   UNL     1       0.190   8.843  21.385  0.00  0.00    +0.000 A 
ATOM     25  C   UNL     1       0.457   9.917  20.519  0.00  0.00    +0.000 A 
ATOM     26  C   UNL     1       1.400   9.672  19.492  0.00  0.00    +0.000 A 
ATOM     27  C   UNL     1       1.998   8.403  19.344  0.00  0.00    +0.000 A 
BRANCH  25  28
ATOM     28  N   UNL     1      -0.174  11.148  20.676  0.00  0.00    +0.000 N 
ATOM     29  C   UNL     1      -0.326  11.798  21.983  0.00  0.00    +0.000 C 
ATOM     30  C   UNL     1      -1.820  12.054  22.114  0.00  0.00    +0.000 C 
ATOM     31  C   UNL     1      -2.238  12.346  20.686  0.00  0.00    +0.000 C 
ATOM     32  C   UNL     1      -1.375  11.397  19.852  0.00  0.00    +0.000 C 
ENDBRANCH  25  28
BRANCH  26  33
ATOM     33  C   UNL     1       1.808  10.704  18.576  0.00  0.00    +0.000 C 
ATOM     34  N   UNL     1       2.120  11.513  17.799  0.00  0.00    +0.000 NA
ENDBRANCH  26  33
ENDBRANCH   6  22
TORSDOF 7
ENDMDL
MODEL 5
REMARK VINA RESULT:      -7.1      1.222      2.144
REMARK  Name = 
REMARK  9 active torsions:
REMARK  status: ('A' for Active; 'I' for Inactive)
REMARK    1  A    between atoms: C_1  and  N_2
REMARK    2  A    between atoms: N_2  and  C_3
REMARK    3  A    between atoms: N_2  and  C_4
REMARK    4  A    between atoms: C_4  and  C_5
REMARK    5  A    between atoms: C_5  and  N_6
REMARK    6  A    between atoms: C_10  and  N_11
REMARK    7  A    between atoms: C_16  and  C_17
REMARK    8  A    between atoms: C_20  and  N_21
REMARK    9  A    between atoms: C_26  and  C_27
REMARK                            x       y       z     vdW  Elec       q    Type
REMARK                         _______ _______ _______ _____ _____    ______ ____
ROOT
ATOM      1  N   UNL     1       5.246   4.840  17.590  0.00  0.00    +0.000 N 
ATOM      2  C   UNL     1       4.030   4.820  18.288  0.00  0.00    +0.000 A 
ATOM      3  N   UNL     1       3.509   3.619  18.569  0.00  0.00    +0.000 NA
ATOM      4  C   UNL     1       2.378   3.610  19.293  0.00  0.00    +0.000 A 
ATOM      5  C   UNL     1       1.768   4.747  19.767  0.00  0.00    +0.000 A 
ATOM      6  C   UNL     1       2.362   5.944  19.430  0.00  0.00    +0.000 A 
ATOM      7  N   UNL     1       3.480   5.980  18.683  0.00  0.00    +0.000 NA
ATOM      8  H   UNL     1       5.600   3.891  17.628  0.00  0.00    +0.000 HD
ENDROOT
BRANCH   1  13
ATOM      9  N   UNL     1       9.096   8.764  18.601  0.00  0.00    +0.000 N 
ATOM     10  C   UNL     1       8.123   7.780  18.367  0.00  0.00    +0.000 A 
ATOM     11  C   UNL     1       8.131   6.605  19.112  0.00  0.00    +0.000 A 
ATOM     12  C   UNL     1       7.158   5.625  18.868  0.00  0.00    +0.000 A 
ATOM     13  C   UNL     1       6.255   5.793  17.823  0.00  0.00    +0.000 A 
ATOM     14  C   UNL     1       6.347   6.986  17.116  0.00  0.00    +0.000 A 
ATOM     15  N   UNL     1       7.242   7.963  17.366  0.00  0.00    +0.000 NA
ATOM     16  H   UNL     1       9.333   8.800  19.592  0.00  0.00    +0.000 HD
BRANCH   9  17
ATOM     17  C   UNL     1       8.659  10.104  18.178  0.00  0.00    +0.000 C 
BRANCH  17  18
ATOM     18  C   UNL     1       9.808  11.127  18.369  0.00  0.00    +0.000 C 
BRANCH  18  20
ATOM     19  C   UNL     1       8.955  13.390  18.625  0.00  0.00    +0.000 C 
ATOM     20  N   UNL     1       9.564  12.431  17.698  0.00  0.00    +0.000 NA
ATOM     21  C   UNL     1      10.828  12.983  17.197  0.00  0.00    +0.000 C 
ENDBRANCH  18  20
ENDBRANCH  17  18
ENDBRANCH   9  17
ENDBRANCH   1  13
BRANCH   6  22
ATOM     22  C   UNL     1       1.807   7.257  19.814  0.00  0.00    +0.000 A 
ATOM     23  C   UNL     1       0.977   7.411  20.928  0.00  0.00    +0.000 A 
ATOM     24  C   UNL     1       0.379   8.642  21.229  0.00  0.00    +0.000 A 
ATOM     25  C   UNL     1       0.588   9.792  20.450  0.00  0.00    +0.000 A 
ATOM     26  C   UNL     1       1.472   9.652  19.353  0.00  0.00    +0.000 A 
ATOM     27  C   UNL     1       2.071   8.410  19.057  0.00  0.00    +0.000 A 
BRANCH  25  28
ATOM     28  N   UNL     1      -0.042  10.997  20.753  0.00  0.00    +0.000 N 
ATOM     29  C   UNL     1      -0.112  11.531  22.117  0.00  0.00    +0.000 C 
ATOM     30  C   UNL     1      -1.596  11.754  22.369  0.00  0.00    +0.000 C 
ATOM     31  C   UNL     1      -2.111  12.159  21.001  0.00  0.00    +0.000 C 
ATOM     32  C   UNL     1      -1.298  11.297  20.035  0.00  0.00    +0.000 C 
ENDBRANCH  25  28
BRANCH  26  33
ATOM     33  C   UNL     1       1.819  10.767  18.513  0.00  0.00    +0.000 C 
ATOM     34  N   UNL     1       2.075  11.699  17.862  0.00  0.00    +0.000 NA
ENDBRANCH  26  33
ENDBRANCH   6  22
TORSDOF 7
ENDMDL
MODEL 6
REMARK VINA RESULT:      -6.9      2.515      6.865
REMARK  Name = 
REMARK  9 active torsions:
REMARK  status: ('A' for Active; 'I' for Inactive)
REMARK    1  A    between atoms: C_1  and  N_2
REMARK    2  A    between atoms: N_2  and  C_3
REMARK    3  A    between atoms: N_2  and  C_4
REMARK    4  A    between atoms: C_4  and  C_5
REMARK    5  A    between atoms: C_5  and  N_6
REMARK    6  A    between atoms: C_10  and  N_11
REMARK    7  A    between atoms: C_16  and  C_17
REMARK    8  A    between atoms: C_20  and  N_21
REMARK    9  A    between atoms: C_26  and  C_27
REMARK                            x       y       z     vdW  Elec       q    Type
REMARK                         _______ _______ _______ _____ _____    ______ ____
ROOT
ATOM      1  N   UNL     1       1.050  13.873  20.041  0.00  0.00    +0.000 N 
ATOM      2  C   UNL     1       0.435  12.656  19.720  0.00  0.00    +0.000 A 
ATOM      3  N   UNL     1      -0.898  12.662  19.595  0.00  0.00    +0.000 NA
ATOM      4  C   UNL     1      -1.472  11.506  19.224  0.00  0.00    +0.000 A 
ATOM      5  C   UNL     1      -0.766  10.359  18.948  0.00  0.00    +0.000 A 
ATOM      6  C   UNL     1       0.601  10.432  19.105  0.00  0.00    +0.000 A 
ATOM      7  N   UNL     1       1.196  11.571  19.501  0.00  0.00    +0.000 NA
ATOM      8  H   UNL     1       0.342  14.585  19.900  0.00  0.00    +0.000 HD
ENDROOT
BRANCH   1  13
ATOM      9  N   UNL     1       6.096  15.209  18.043  0.00  0.00    +0.000 N 
ATOM     10  C   UNL     1       4.828  14.859  18.530  0.00  0.00    +0.000 A 
ATOM     11  C   UNL     1       3.726  14.889  17.682  0.00  0.00    +0.000 A 
ATOM     12  C   UNL     1       2.462  14.542  18.178  0.00  0.00    +0.000 A 
ATOM     13  C   UNL     1       2.303  14.264  19.533  0.00  0.00    +0.000 A 
ATOM     14  C   UNL     1       3.459  14.290  20.305  0.00  0.00    +0.000 A 
ATOM     15  N   UNL     1       4.691  14.571  19.838  0.00  0.00    +0.000 NA
ATOM     16  H   UNL     1       6.200  14.907  17.074  0.00  0.00    +0.000 HD
BRANCH   9  17
ATOM     17  C   UNL     1       7.190  14.620  18.834  0.00  0.00    +0.000 C 
BRANCH  17  18
ATOM     18  C   UNL     1       8.071  13.714  17.937  0.00  0.00    +0.000 C 
BRANCH  18  20
ATOM     19  C   UNL     1       9.349  11.991  19.084  0.00  0.00    +0.000 C 
ATOM     20  N   UNL     1       9.378  13.356  18.550  0.00  0.00    +0.000 NA
ATOM     21  C   UNL     1      10.447  13.460  17.551  0.00  0.00    +0.000 C 
ENDBRANCH  18  20
ENDBRANCH  17  18
ENDBRANCH   9  17
ENDBRANCH   1  13
BRANCH   6  22
ATOM     22  C   UNL     1       1.500   9.279  18.899  0.00  0.00    +0.000 A 
ATOM     23  C   UNL     1       2.397   9.223  17.828  0.00  0.00    +0.000 A 
ATOM     24  C   UNL     1       3.178   8.084  17.588  0.00  0.00    +0.000 A 
ATOM     25  C   UNL     1       3.123   6.946  18.410  0.00  0.00    +0.000 A 
ATOM     26  C   UNL     1       2.257   7.022  19.527  0.00  0.00    +0.000 A 
ATOM     27  C   UNL     1       1.475   8.172  19.762  0.00  0.00    +0.000 A 
BRANCH  25  28
ATOM     28  N   UNL     1       3.887   5.815  18.131  0.00  0.00    +0.000 N 
ATOM     29  C   UNL     1       5.279   5.894  17.673  0.00  0.00    +0.000 C 
ATOM     30  C   UNL     1       5.304   5.099  16.377  0.00  0.00    +0.000 C 
ATOM     31  C   UNL     1       4.293   3.999  16.638  0.00  0.00    +0.000 C 
ATOM     32  C   UNL     1       3.204   4.692  17.458  0.00  0.00    +0.000 C 
ENDBRANCH  25  28
BRANCH  26  33
ATOM     33  C   UNL     1       2.155   5.949  20.480  0.00  0.00    +0.000 C 
ATOM     34  N   UNL     1       2.089   5.050  21.218  0.00  0.00    +0.000 NA
ENDBRANCH  26  33
ENDBRANCH   6  22
TORSDOF 7
ENDMDL
MODEL 7
REMARK VINA RESULT:      -6.8      3.893      5.073
REMARK  Name = 
REMARK  9 active torsions:
REMARK  status: ('A' for Active; 'I' for Inactive)
REMARK    1  A    between atoms: C_1  and  N_2
REMARK    2  A    between atoms: N_2  and  C_3
REMARK    3  A    between atoms: N_2  and  C_4
REMARK    4  A    between atoms: C_4  and  C_5
REMARK    5  A    between atoms: C_5  and  N_6
REMARK    6  A    between atoms: C_10  and  N_11
REMARK    7  A    between atoms: C_16  and  C_17
REMARK    8  A    between atoms: C_20  and  N_21
REMARK    9  A    between atoms: C_26  and  C_27
REMARK                            x       y       z     vdW  Elec       q    Type
REMARK                         _______ _______ _______ _____ _____    ______ ____
ROOT
ATOM      1  N   UNL     1       3.684   3.044  17.914  0.00  0.00    +0.000 N 
ATOM      2  C   UNL     1       3.073   3.620  19.038  0.00  0.00    +0.000 A 
ATOM      3  N   UNL     1       2.926   2.840  20.117  0.00  0.00    +0.000 NA
ATOM      4  C   UNL     1       2.399   3.419  21.208  0.00  0.00    +0.000 A 
ATOM      5  C   UNL     1       2.042   4.745  21.270  0.00  0.00    +0.000 A 
ATOM      6  C   UNL     1       2.219   5.479  20.117  0.00  0.00    +0.000 A 
ATOM      7  N   UNL     1       2.720   4.915  19.003  0.00  0.00    +0.000 NA
ATOM      8  H   UNL     1       4.096   2.177  18.240  0.00  0.00    +0.000 HD
ENDROOT
BRANCH   1  13
ATOM      9  N   UNL     1       7.032   5.729  14.334  0.00  0.00    +0.000 N 
ATOM     10  C   UNL     1       6.176   5.060  15.221  0.00  0.00    +0.000 A 
ATOM     11  C   UNL     1       5.108   5.739  15.800  0.00  0.00    +0.000 A 
ATOM     12  C   UNL     1       4.260   5.063  16.689  0.00  0.00    +0.000 A 
ATOM     13  C   UNL     1       4.546   3.752  17.057  0.00  0.00    +0.000 A 
ATOM     14  C   UNL     1       5.652   3.170  16.447  0.00  0.00    +0.000 A 
ATOM     15  N   UNL     1       6.451   3.785  15.553  0.00  0.00    +0.000 NA
ATOM     16  H   UNL     1       6.510   6.409  13.781  0.00  0.00    +0.000 HD
BRANCH   9  17
ATOM     17  C   UNL     1       7.723   4.812  13.413  0.00  0.00    +0.000 C 
BRANCH  17  18
ATOM     18  C   UNL     1       6.827   4.513  12.183  0.00  0.00    +0.000 C 
BRANCH  18  20
ATOM     19  C   UNL     1       4.849   3.170  11.738  0.00  0.00    +0.000 C 
ATOM     20  N   UNL     1       6.244   3.146  12.188  0.00  0.00    +0.000 NA
ATOM     21  C   UNL     1       7.019   2.266  11.306  0.00  0.00    +0.000 C 
ENDBRANCH  18  20
ENDBRANCH  17  18
ENDBRANCH   9  17
ENDBRANCH   1  13
BRANCH   6  22
ATOM     22  C   UNL     1       1.840   6.900  19.998  0.00  0.00    +0.000 A 
ATOM     23  C   UNL     1       1.999   7.610  18.804  0.00  0.00    +0.000 A 
ATOM     24  C   UNL     1       1.725   8.983  18.728  0.00  0.00    +0.000 A 
ATOM     25  C   UNL     1       1.260   9.721  19.830  0.00  0.00    +0.000 A 
ATOM     26  C   UNL     1       1.046   8.993  21.025  0.00  0.00    +0.000 A 
ATOM     27  C   UNL     1       1.323   7.612  21.092  0.00  0.00    +0.000 A 
BRANCH  25  28
ATOM     28  N   UNL     1       1.025  11.090  19.736  0.00  0.00    +0.000 N 
ATOM     29  C   UNL     1      -0.327  11.661  19.729  0.00  0.00    +0.000 C 
ATOM     30  C   UNL     1      -0.385  12.499  18.460  0.00  0.00    +0.000 C 
ATOM     31  C   UNL     1       1.032  13.026  18.341  0.00  0.00    +0.000 C 
ATOM     32  C   UNL     1       1.896  11.861  18.827  0.00  0.00    +0.000 C 
ENDBRANCH  25  28
BRANCH  26  33
ATOM     33  C   UNL     1       0.514   9.617  22.207  0.00  0.00    +0.000 C 
ATOM     34  N   UNL     1       0.056  10.082  23.171  0.00  0.00    +0.000 NA
ENDBRANCH  26  33
ENDBRANCH   6  22
TORSDOF 7
ENDMDL
MODEL 8
REMARK VINA RESULT:      -6.8      5.255     11.206
REMARK  Name = 
REMARK  9 active torsions:
REMARK  status: ('A' for Active; 'I' for Inactive)
REMARK    1  A    between atoms: C_1  and  N_2
REMARK    2  A    between atoms: N_2  and  C_3
REMARK    3  A    between atoms: N_2  and  C_4
REMARK    4  A    between atoms: C_4  and  C_5
REMARK    5  A    between atoms: C_5  and  N_6
REMARK    6  A    between atoms: C_10  and  N_11
REMARK    7  A    between atoms: C_16  and  C_17
REMARK    8  A    between atoms: C_20  and  N_21
REMARK    9  A    between atoms: C_26  and  C_27
REMARK                            x       y       z     vdW  Elec       q    Type
REMARK                         _______ _______ _______ _____ _____    ______ ____
ROOT
ATOM      1  N   UNL     1      -7.001  13.043  20.661  0.00  0.00    +0.000 N 
ATOM      2  C   UNL     1      -6.381  12.629  19.474  0.00  0.00    +0.000 A 
ATOM      3  N   UNL     1      -7.100  12.721  18.348  0.00  0.00    +0.000 NA
ATOM      4  C   UNL     1      -6.476  12.382  17.208  0.00  0.00    +0.000 A 
ATOM      5  C   UNL     1      -5.161  11.984  17.149  0.00  0.00    +0.000 A 
ATOM      6  C   UNL     1      -4.491  11.910  18.351  0.00  0.00    +0.000 A 
ATOM      7  N   UNL     1      -5.103  12.218  19.508  0.00  0.00    +0.000 NA
ATOM      8  H   UNL     1      -7.834  13.546  20.375  0.00  0.00    +0.000 HD
ENDROOT
BRANCH   1  13
ATOM      9  N   UNL     1      -4.090  15.551  24.719  0.00  0.00    +0.000 N 
ATOM     10  C   UNL     1      -4.809  14.930  23.687  0.00  0.00    +0.000 A 
ATOM     11  C   UNL     1      -5.380  15.700  22.679  0.00  0.00    +0.000 A 
ATOM     12  C   UNL     1      -6.100  15.071  21.653  0.00  0.00    +0.000 A 
ATOM     13  C   UNL     1      -6.317  13.697  21.702  0.00  0.00    +0.000 A 
ATOM     14  C   UNL     1      -5.732  13.020  22.766  0.00  0.00    +0.000 A 
ATOM     15  N   UNL     1      -4.994  13.598  23.735  0.00  0.00    +0.000 NA
ATOM     16  H   UNL     1      -3.589  16.365  24.364  0.00  0.00    +0.000 HD
BRANCH   9  17
ATOM     17  C   UNL     1      -3.118  14.647  25.357  0.00  0.00    +0.000 C 
BRANCH  17  18
ATOM     18  C   UNL     1      -1.894  15.451  25.865  0.00  0.00    +0.000 C 
BRANCH  18  20
ATOM     19  C   UNL     1      -1.005  14.551  23.787  0.00  0.00    +0.000 C 
ATOM     20  N   UNL     1      -0.731  15.416  24.939  0.00  0.00    +0.000 NA
ATOM     21  C   UNL     1      -0.426  16.770  24.463  0.00  0.00    +0.000 C 
ENDBRANCH  18  20
ENDBRANCH  17  18
ENDBRANCH   9  17
ENDBRANCH   1  13
BRANCH   6  22
ATOM     22  C   UNL     1      -3.093  11.453  18.469  0.00  0.00    +0.000 A 
ATOM     23  C   UNL     1      -2.554  10.494  17.606  0.00  0.00    +0.000 A 
ATOM     24  C   UNL     1      -1.255   9.997  17.786  0.00  0.00    +0.000 A 
ATOM     25  C   UNL     1      -0.416  10.439  18.822  0.00  0.00    +0.000 A 
ATOM     26  C   UNL     1      -0.940  11.450  19.664  0.00  0.00    +0.000 A 
ATOM     27  C   UNL     1      -2.247  11.945  19.475  0.00  0.00    +0.000 A 
BRANCH  25  28
ATOM     28  N   UNL     1       0.859   9.907  18.997  0.00  0.00    +0.000 N 
ATOM     29  C   UNL     1       1.785   9.689  17.880  0.00  0.00    +0.000 C 
ATOM     30  C   UNL     1       2.162   8.217  17.974  0.00  0.00    +0.000 C 
ATOM     31  C   UNL     1       2.164   7.966  19.469  0.00  0.00    +0.000 C 
ATOM     32  C   UNL     1       1.002   8.817  19.984  0.00  0.00    +0.000 C 
ENDBRANCH  25  28
BRANCH  26  33
ATOM     33  C   UNL     1      -0.160  12.032  20.723  0.00  0.00    +0.000 C 
ATOM     34  N   UNL     1       0.469  12.546  21.558  0.00  0.00    +0.000 NA
ENDBRANCH  26  33
ENDBRANCH   6  22
TORSDOF 7
ENDMDL
MODEL 9
REMARK VINA RESULT:      -6.8      1.227      1.967
REMARK  Name = 
REMARK  9 active torsions:
REMARK  status: ('A' for Active; 'I' for Inactive)
REMARK    1  A    between atoms: C_1  and  N_2
REMARK    2  A    between atoms: N_2  and  C_3
REMARK    3  A    between atoms: N_2  and  C_4
REMARK    4  A    between atoms: C_4  and  C_5
REMARK    5  A    between atoms: C_5  and  N_6
REMARK    6  A    between atoms: C_10  and  N_11
REMARK    7  A    between atoms: C_16  and  C_17
REMARK    8  A    between atoms: C_20  and  N_21
REMARK    9  A    between atoms: C_26  and  C_27
REMARK                            x       y       z     vdW  Elec       q    Type
REMARK                         _______ _______ _______ _____ _____    ______ ____
ROOT
ATOM      1  N   UNL     1       4.582   4.376  18.053  0.00  0.00    +0.000 N 
ATOM      2  C   UNL     1       3.448   4.514  18.865  0.00  0.00    +0.000 A 
ATOM      3  N   UNL     1       2.917   3.391  19.364  0.00  0.00    +0.000 NA
ATOM      4  C   UNL     1       1.870   3.538  20.192  0.00  0.00    +0.000 A 
ATOM      5  C   UNL     1       1.355   4.759  20.560  0.00  0.00    +0.000 A 
ATOM      6  C   UNL     1       1.954   5.866  20.000  0.00  0.00    +0.000 A 
ATOM      7  N   UNL     1       2.986   5.743  19.146  0.00  0.00    +0.000 NA
ATOM      8  H   UNL     1       4.903   3.424  18.189  0.00  0.00    +0.000 HD
ENDROOT
BRANCH   1  13
ATOM      9  N   UNL     1       8.667   8.190  18.137  0.00  0.00    +0.000 N 
ATOM     10  C   UNL     1       7.640   7.234  18.136  0.00  0.00    +0.000 A 
ATOM     11  C   UNL     1       7.758   6.088  18.916  0.00  0.00    +0.000 A 
ATOM     12  C   UNL     1       6.728   5.137  18.905  0.00  0.00    +0.000 A 
ATOM     13  C   UNL     1       5.645   5.299  18.047  0.00  0.00    +0.000 A 
ATOM     14  C   UNL     1       5.633   6.462  17.285  0.00  0.00    +0.000 A 
ATOM     15  N   UNL     1       6.587   7.413  17.317  0.00  0.00    +0.000 NA
ATOM     16  H   UNL     1       9.093   8.253  19.062  0.00  0.00    +0.000 HD
BRANCH   9  17
ATOM     17  C   UNL     1       8.196   9.530  17.749  0.00  0.00    +0.000 C 
BRANCH  17  18
ATOM     18  C   UNL     1       8.924  10.615  18.583  0.00  0.00    +0.000 C 
BRANCH  18  20
ATOM     19  C   UNL     1       8.872  13.034  18.332  0.00  0.00    +0.000 C 
ATOM     20  N   UNL     1       9.384  11.777  17.778  0.00  0.00    +0.000 NA
ATOM     21  C   UNL     1      10.851  11.824  17.755  0.00  0.00    +0.000 C 
ENDBRANCH  18  20
ENDBRANCH  17  18
ENDBRANCH   9  17
ENDBRANCH   1  13
BRANCH   6  22
ATOM     22  C   UNL     1       1.491   7.246  20.248  0.00  0.00    +0.000 A 
ATOM     23  C   UNL     1       0.665   7.565  21.330  0.00  0.00    +0.000 A 
ATOM     24  C   UNL     1       0.155   8.859  21.504  0.00  0.00    +0.000 A 
ATOM     25  C   UNL     1       0.452   9.911  20.621  0.00  0.00    +0.000 A 
ATOM     26  C   UNL     1       1.333   9.604  19.556  0.00  0.00    +0.000 A 
ATOM     27  C   UNL     1       1.843   8.300  19.389  0.00  0.00    +0.000 A 
BRANCH  25  28
ATOM     28  N   UNL     1      -0.093  11.180  20.799  0.00  0.00    +0.000 N 
ATOM     29  C   UNL     1      -1.244  11.661  20.026  0.00  0.00    +0.000 C 
ATOM     30  C   UNL     1      -0.768  12.961  19.395  0.00  0.00    +0.000 C 
ATOM     31  C   UNL     1       0.162  13.527  20.450  0.00  0.00    +0.000 C 
ATOM     32  C   UNL     1       0.854  12.291  21.027  0.00  0.00    +0.000 C 
ENDBRANCH  25  28
BRANCH  26  33
ATOM     33  C   UNL     1       1.766  10.606  18.619  0.00  0.00    +0.000 C 
ATOM     34  N   UNL     1       2.078  11.444  17.873  0.00  0.00    +0.000 NA
ENDBRANCH  26  33
ENDBRANCH   6  22
TORSDOF 7
ENDMDL
