MODEL 1
REMARK VINA RESULT:      -7.9      0.000      0.000
REMARK  Name = 
REMARK  10 active torsions:
REMARK  status: ('A' for Active; 'I' for Inactive)
REMARK    1  A    between atoms: C_1  and  O_2
REMARK    2  A    between atoms: O_2  and  C_3
REMARK    3  A    between atoms: C_6  and  C_7
REMARK    4  A    between atoms: C_8  and  C_9
REMARK    5  A    between atoms: N_12  and  C_13
REMARK    6  A    between atoms: C_13  and  C_14
REMARK    7  A    between atoms: C_17  and  C_18
REMARK    8  A    between atoms: N_20  and  C_21
REMARK    9  A    between atoms: C_23  and  C_24
REMARK   10  A    between atoms: C_27  and  C_28
REMARK                            x       y       z     vdW  Elec       q    Type
REMARK                         _______ _______ _______ _____ _____    ______ ____
ROOT
ATOM      1  C   UNL     1      -0.047  12.591  21.630  0.00  0.00    +0.000 C 
ENDROOT
BRANCH   1   7
ATOM      2  C   UNL     1       1.914  15.580  20.195  0.00  0.00    +0.000 C 
ATOM      3  C   UNL     1       0.724  15.659  19.583  0.00  0.00    +0.000 C 
ATOM      4  C   UNL     1       0.335  16.464  18.401  0.00  0.00    +0.000 C 
ATOM      5  C   UNL     1      -0.249  14.684  20.169  0.00  0.00    +0.000 C 
ATOM      6  O   UNL     1      -1.411  14.574  19.819  0.00  0.00    +0.000 OA
ATOM      7  N   UNL     1       0.387  13.880  21.126  0.00  0.00    +0.000 N 
ATOM      8  S   UNL     1       1.921  14.434  21.479  0.00  0.00    +0.000 S 
ATOM      9  O   UNL     1       1.858  15.099  22.761  0.00  0.00    +0.000 OA
ATOM     10  O   UNL     1       2.862  13.365  21.219  0.00  0.00    +0.000 OA
BRANCH   2  14
ATOM     11  C   UNL     1       5.693  17.355  19.391  0.00  0.00    +0.000 A 
ATOM     12  C   UNL     1       5.226  16.307  18.592  0.00  0.00    +0.000 A 
ATOM     13  C   UNL     1       3.986  15.715  18.847  0.00  0.00    +0.000 A 
ATOM     14  C   UNL     1       3.208  16.163  19.916  0.00  0.00    +0.000 A 
ATOM     15  C   UNL     1       3.698  17.181  20.744  0.00  0.00    +0.000 A 
ATOM     16  C   UNL     1       4.931  17.779  20.478  0.00  0.00    +0.000 A 
BRANCH  11  18
ATOM     17  C   UNL     1       7.828  16.927  18.483  0.00  0.00    +0.000 C 
ATOM     18  O   UNL     1       6.914  17.864  19.046  0.00  0.00    +0.000 OA
ENDBRANCH  11  18
ENDBRANCH   2  14
ENDBRANCH   1   7
BRANCH   1  19
ATOM     19  C   UNL     1       0.463  11.433  20.793  0.00  0.00    +0.000 A 
ATOM     20  C   UNL     1       0.739  11.619  19.434  0.00  0.00    +0.000 A 
ATOM     21  C   UNL     1       1.228  10.566  18.664  0.00  0.00    +0.000 A 
ATOM     22  C   UNL     1       1.445   9.303  19.233  0.00  0.00    +0.000 A 
ATOM     23  C   UNL     1       1.154   9.097  20.583  0.00  0.00    +0.000 A 
ATOM     24  C   UNL     1       0.655  10.159  21.354  0.00  0.00    +0.000 A 
BRANCH  22  25
ATOM     25  C   UNL     1       2.075   8.274  18.364  0.00  0.00    +0.000 C 
ATOM     26  O   UNL     1       2.095   8.530  17.159  0.00  0.00    +0.000 OA
ATOM     27  N   UNL     1       2.518   7.105  18.960  0.00  0.00    +0.000 N 
ATOM     28  H   UNL     1       2.248   6.937  19.918  0.00  0.00    +0.000 HD
BRANCH  27  29
ATOM     29  C   UNL     1       3.114   6.022  18.253  0.00  0.00    +0.000 A 
ATOM     30  C   UNL     1       4.196   6.238  17.384  0.00  0.00    +0.000 A 
ATOM     31  C   UNL     1       4.754   5.211  16.615  0.00  0.00    +0.000 A 
ATOM     32  C   UNL     1       5.816   5.519  15.602  0.00  0.00    +0.000 C 
ATOM     33  C   UNL     1       4.272   3.915  16.775  0.00  0.00    +0.000 A 
ATOM     34  C   UNL     1       3.227   3.666  17.666  0.00  0.00    +0.000 A 
ATOM     35  C   UNL     1       2.618   4.710  18.392  0.00  0.00    +0.000 A 
ATOM     36  C   UNL     1       1.428   4.367  19.247  0.00  0.00    +0.000 C 
ENDBRANCH  27  29
ENDBRANCH  22  25
ENDBRANCH   1  19
TORSDOF 6
ENDMDL
MODEL 2
REMARK VINA RESULT:      -7.9      2.426      3.772
REMARK  Name = 
REMARK  10 active torsions:
REMARK  status: ('A' for Active; 'I' for Inactive)
REMARK    1  A    between atoms: C_1  and  O_2
REMARK    2  A    between atoms: O_2  and  C_3
REMARK    3  A    between atoms: C_6  and  C_7
REMARK    4  A    between atoms: C_8  and  C_9
REMARK    5  A    between atoms: N_12  and  C_13
REMARK    6  A    between atoms: C_13  and  C_14
REMARK    7  A    between atoms: C_17  and  C_18
REMARK    8  A    between atoms: N_20  and  C_21
REMARK    9  A    between atoms: C_23  and  C_24
REMARK   10  A    between atoms: C_27  and  C_28
REMARK                            x       y       z     vdW  Elec       q    Type
REMARK                         _______ _______ _______ _____ _____    ______ ____
ROOT
ATOM      1  C   UNL     1       0.112   9.325  21.304  0.00  0.00    +0.000 C 
ENDROOT
BRANCH   1   7
ATOM      2  C   UNL     1      -0.092  12.894  19.867  0.00  0.00    +0.000 C 
ATOM      3  C   UNL     1      -0.865  12.175  19.039  0.00  0.00    +0.000 C 
ATOM      4  C   UNL     1      -1.400  12.544  17.708  0.00  0.00    +0.000 C 
ATOM      5  C   UNL     1      -1.066  10.787  19.560  0.00  0.00    +0.000 C 
ATOM      6  O   UNL     1      -1.754   9.939  19.019  0.00  0.00    +0.000 OA
ATOM      7  N   UNL     1      -0.301  10.588  20.719  0.00  0.00    +0.000 N 
ATOM      8  S   UNL     1       0.367  12.014  21.272  0.00  0.00    +0.000 S 
ATOM      9  O   UNL     1      -0.406  12.438  22.419  0.00  0.00    +0.000 OA
ATOM     10  O   UNL     1       1.803  11.849  21.338  0.00  0.00    +0.000 OA
BRANCH   2  14
ATOM     11  C   UNL     1       1.667  16.751  19.549  0.00  0.00    +0.000 A 
ATOM     12  C   UNL     1       2.142  15.698  18.764  0.00  0.00    +0.000 A 
ATOM     13  C   UNL     1       1.573  14.425  18.860  0.00  0.00    +0.000 A 
ATOM     14  C   UNL     1       0.527  14.197  19.756  0.00  0.00    +0.000 A 
ATOM     15  C   UNL     1       0.083  15.242  20.575  0.00  0.00    +0.000 A 
ATOM     16  C   UNL     1       0.645  16.515  20.467  0.00  0.00    +0.000 A 
BRANCH  11  18
ATOM     17  C   UNL     1       2.686  18.621  20.564  0.00  0.00    +0.000 C 
ATOM     18  O   UNL     1       2.291  17.954  19.368  0.00  0.00    +0.000 OA
ENDBRANCH  11  18
ENDBRANCH   2  14
ENDBRANCH   1   7
BRANCH   1  19
ATOM     19  C   UNL     1       1.039   8.536  20.399  0.00  0.00    +0.000 A 
ATOM     20  C   UNL     1       1.484   7.267  20.786  0.00  0.00    +0.000 A 
ATOM     21  C   UNL     1       2.317   6.528  19.950  0.00  0.00    +0.000 A 
ATOM     22  C   UNL     1       2.731   7.043  18.713  0.00  0.00    +0.000 A 
ATOM     23  C   UNL     1       2.313   8.316  18.323  0.00  0.00    +0.000 A 
ATOM     24  C   UNL     1       1.479   9.061  19.171  0.00  0.00    +0.000 A 
BRANCH  22  25
ATOM     25  C   UNL     1       3.526   6.137  17.842  0.00  0.00    +0.000 C 
ATOM     26  O   UNL     1       3.169   4.959  17.827  0.00  0.00    +0.000 OA
ATOM     27  N   UNL     1       4.623   6.669  17.185  0.00  0.00    +0.000 N 
ATOM     28  H   UNL     1       4.926   7.594  17.453  0.00  0.00    +0.000 HD
BRANCH  27  29
ATOM     29  C   UNL     1       5.492   5.920  16.342  0.00  0.00    +0.000 A 
ATOM     30  C   UNL     1       5.028   5.369  15.136  0.00  0.00    +0.000 A 
ATOM     31  C   UNL     1       5.831   4.563  14.323  0.00  0.00    +0.000 A 
ATOM     32  C   UNL     1       5.248   3.888  13.118  0.00  0.00    +0.000 C 
ATOM     33  C   UNL     1       7.161   4.363  14.682  0.00  0.00    +0.000 A 
ATOM     34  C   UNL     1       7.660   4.936  15.852  0.00  0.00    +0.000 A 
ATOM     35  C   UNL     1       6.834   5.693  16.708  0.00  0.00    +0.000 A 
ATOM     36  C   UNL     1       7.427   6.182  18.001  0.00  0.00    +0.000 C 
ENDBRANCH  27  29
ENDBRANCH  22  25
ENDBRANCH   1  19
TORSDOF 6
ENDMDL
MODEL 3
REMARK VINA RESULT:      -7.8      0.970      1.279
REMARK  Name = 
REMARK  10 active torsions:
REMARK  status: ('A' for Active; 'I' for Inactive)
REMARK    1  A    between atoms: C_1  and  O_2
REMARK    2  A    between atoms: O_2  and  C_3
REMARK    3  A    between atoms: C_6  and  C_7
REMARK    4  A    between atoms: C_8  and  C_9
REMARK    5  A    between atoms: N_12  and  C_13
REMARK    6  A    between atoms: C_13  and  C_14
REMARK    7  A    between atoms: C_17  and  C_18
REMARK    8  A    between atoms: N_20  and  C_21
REMARK    9  A    between atoms: C_23  and  C_24
REMARK   10  A    between atoms: C_27  and  C_28
REMARK                            x       y       z     vdW  Elec       q    Type
REMARK                         _______ _______ _______ _____ _____    ______ ____
ROOT
ATOM      1  C   UNL     1      -0.730  12.005  21.316  0.00  0.00    +0.000 C 
ENDROOT
BRANCH   1   7
ATOM      2  C   UNL     1       1.073  15.220  20.198  0.00  0.00    +0.000 C 
ATOM      3  C   UNL     1      -0.101  15.275  19.552  0.00  0.00    +0.000 C 
ATOM      4  C   UNL     1      -0.505  16.147  18.424  0.00  0.00    +0.000 C 
ATOM      5  C   UNL     1      -1.025  14.195  20.021  0.00  0.00    +0.000 C 
ATOM      6  O   UNL     1      -2.166  14.040  19.622  0.00  0.00    +0.000 OA
ATOM      7  N   UNL     1      -0.367  13.357  20.934  0.00  0.00    +0.000 N 
ATOM      8  S   UNL     1       1.115  13.976  21.385  0.00  0.00    +0.000 S 
ATOM      9  O   UNL     1       0.968  14.527  22.714  0.00  0.00    +0.000 OA
ATOM     10  O   UNL     1       2.132  12.994  21.075  0.00  0.00    +0.000 OA
BRANCH   2  14
ATOM     11  C   UNL     1       4.798  17.185  19.619  0.00  0.00    +0.000 A 
ATOM     12  C   UNL     1       4.149  17.263  20.854  0.00  0.00    +0.000 A 
ATOM     13  C   UNL     1       2.923  16.623  21.057  0.00  0.00    +0.000 A 
ATOM     14  C   UNL     1       2.333  15.905  20.014  0.00  0.00    +0.000 A 
ATOM     15  C   UNL     1       2.963  15.867  18.763  0.00  0.00    +0.000 A 
ATOM     16  C   UNL     1       4.193  16.498  18.569  0.00  0.00    +0.000 A 
BRANCH  11  18
ATOM     17  C   UNL     1       6.336  18.631  20.672  0.00  0.00    +0.000 C 
ATOM     18  O   UNL     1       5.994  17.842  19.535  0.00  0.00    +0.000 OA
ENDBRANCH  11  18
ENDBRANCH   2  14
ENDBRANCH   1   7
BRANCH   1  19
ATOM     19  C   UNL     1       0.026  10.951  20.531  0.00  0.00    +0.000 A 
ATOM     20  C   UNL     1       0.127  11.051  19.139  0.00  0.00    +0.000 A 
ATOM     21  C   UNL     1       0.839  10.099  18.414  0.00  0.00    +0.000 A 
ATOM     22  C   UNL     1       1.459   9.020  19.062  0.00  0.00    +0.000 A 
ATOM     23  C   UNL     1       1.348   8.895  20.448  0.00  0.00    +0.000 A 
ATOM     24  C   UNL     1       0.624   9.854  21.175  0.00  0.00    +0.000 A 
BRANCH  22  25
ATOM     25  C   UNL     1       2.289   8.119  18.220  0.00  0.00    +0.000 C 
ATOM     26  O   UNL     1       2.472   8.488  17.060  0.00  0.00    +0.000 OA
ATOM     27  N   UNL     1       2.724   6.929  18.780  0.00  0.00    +0.000 N 
ATOM     28  H   UNL     1       2.325   6.655  19.665  0.00  0.00    +0.000 HD
BRANCH  27  29
ATOM     29  C   UNL     1       3.500   5.956  18.089  0.00  0.00    +0.000 A 
ATOM     30  C   UNL     1       4.836   6.215  17.741  0.00  0.00    +0.000 A 
ATOM     31  C   UNL     1       5.604   5.315  16.995  0.00  0.00    +0.000 A 
ATOM     32  C   UNL     1       6.978   5.697  16.533  0.00  0.00    +0.000 C 
ATOM     33  C   UNL     1       5.049   4.086  16.651  0.00  0.00    +0.000 A 
ATOM     34  C   UNL     1       3.737   3.785  17.021  0.00  0.00    +0.000 A 
ATOM     35  C   UNL     1       2.940   4.717  17.716  0.00  0.00    +0.000 A 
ATOM     36  C   UNL     1       1.505   4.352  17.981  0.00  0.00    +0.000 C 
ENDBRANCH  27  29
ENDBRANCH  22  25
ENDBRANCH   1  19
TORSDOF 6
ENDMDL
MODEL 4
REMARK VINA RESULT:      -7.7      2.562      3.860
REMARK  Name = 
REMARK  10 active torsions:
REMARK  status: ('A' for Active; 'I' for Inactive)
REMARK    1  A    between atoms: C_1  and  O_2
REMARK    2  A    between atoms: O_2  and  C_3
REMARK    3  A    between atoms: C_6  and  C_7
REMARK    4  A    between atoms: C_8  and  C_9
REMARK    5  A    between atoms: N_12  and  C_13
REMARK    6  A    between atoms: C_13  and  C_14
REMARK    7  A    between atoms: C_17  and  C_18
REMARK    8  A    between atoms: N_20  and  C_21
REMARK    9  A    between atoms: C_23  and  C_24
REMARK   10  A    between atoms: C_27  and  C_28
REMARK                            x       y       z     vdW  Elec       q    Type
REMARK                         _______ _______ _______ _____ _____    ______ ____
ROOT
ATOM      1  C   UNL     1       0.330   9.355  21.394  0.00  0.00    +0.000 C 
ENDROOT
BRANCH   1   7
ATOM      2  C   UNL     1      -0.137  12.639  19.434  0.00  0.00    +0.000 C 
ATOM      3  C   UNL     1      -0.929  11.770  18.789  0.00  0.00    +0.000 C 
ATOM      4  C   UNL     1      -1.569  11.902  17.459  0.00  0.00    +0.000 C 
ATOM      5  C   UNL     1      -1.029  10.476  19.535  0.00  0.00    +0.000 C 
ATOM      6  O   UNL     1      -1.712   9.529  19.186  0.00  0.00    +0.000 OA
ATOM      7  N   UNL     1      -0.179  10.493  20.650  0.00  0.00    +0.000 N 
ATOM      8  S   UNL     1       0.456  12.011  20.921  0.00  0.00    +0.000 S 
ATOM      9  O   UNL     1      -0.256  12.586  22.042  0.00  0.00    +0.000 OA
ATOM     10  O   UNL     1       1.900  11.911  20.907  0.00  0.00    +0.000 OA
BRANCH   2  14
ATOM     11  C   UNL     1       1.413  16.449  18.360  0.00  0.00    +0.000 A 
ATOM     12  C   UNL     1       2.163  15.295  18.121  0.00  0.00    +0.000 A 
ATOM     13  C   UNL     1       1.665  14.037  18.470  0.00  0.00    +0.000 A 
ATOM     14  C   UNL     1       0.411  13.928  19.074  0.00  0.00    +0.000 A 
ATOM     15  C   UNL     1      -0.319  15.090  19.355  0.00  0.00    +0.000 A 
ATOM     16  C   UNL     1       0.176  16.344  18.994  0.00  0.00    +0.000 A 
BRANCH  11  18
ATOM     17  C   UNL     1       2.840  17.537  16.829  0.00  0.00    +0.000 C 
ATOM     18  O   UNL     1       1.993  17.625  17.971  0.00  0.00    +0.000 OA
ENDBRANCH  11  18
ENDBRANCH   2  14
ENDBRANCH   1   7
BRANCH   1  19
ATOM     19  C   UNL     1       1.135   8.404  20.529  0.00  0.00    +0.000 A 
ATOM     20  C   UNL     1       1.679   8.846  19.318  0.00  0.00    +0.000 A 
ATOM     21  C   UNL     1       2.439   7.985  18.530  0.00  0.00    +0.000 A 
ATOM     22  C   UNL     1       2.665   6.660  18.931  0.00  0.00    +0.000 A 
ATOM     23  C   UNL     1       2.111   6.198  20.127  0.00  0.00    +0.000 A 
ATOM     24  C   UNL     1       1.341   7.068  20.914  0.00  0.00    +0.000 A 
BRANCH  22  25
ATOM     25  C   UNL     1       3.580   5.850  18.084  0.00  0.00    +0.000 C 
ATOM     26  O   UNL     1       3.578   4.638  18.301  0.00  0.00    +0.000 OA
ATOM     27  N   UNL     1       4.394   6.520  17.185  0.00  0.00    +0.000 N 
ATOM     28  H   UNL     1       4.447   7.525  17.261  0.00  0.00    +0.000 HD
BRANCH  27  29
ATOM     29  C   UNL     1       5.338   5.883  16.331  0.00  0.00    +0.000 A 
ATOM     30  C   UNL     1       4.929   5.277  15.131  0.00  0.00    +0.000 A 
ATOM     31  C   UNL     1       5.816   4.576  14.307  0.00  0.00    +0.000 A 
ATOM     32  C   UNL     1       5.304   3.832  13.110  0.00  0.00    +0.000 C 
ATOM     33  C   UNL     1       7.165   4.543  14.648  0.00  0.00    +0.000 A 
ATOM     34  C   UNL     1       7.605   5.175  15.812  0.00  0.00    +0.000 A 
ATOM     35  C   UNL     1       6.702   5.826  16.679  0.00  0.00    +0.000 A 
ATOM     36  C   UNL     1       7.247   6.386  17.964  0.00  0.00    +0.000 C 
ENDBRANCH  27  29
ENDBRANCH  22  25
ENDBRANCH   1  19
TORSDOF 6
ENDMDL
MODEL 5
REMARK VINA RESULT:      -7.7      1.237      1.503
REMARK  Name = 
REMARK  10 active torsions:
REMARK  status: ('A' for Active; 'I' for Inactive)
REMARK    1  A    between atoms: C_1  and  O_2
REMARK    2  A    between atoms: O_2  and  C_3
REMARK    3  A    between atoms: C_6  and  C_7
REMARK    4  A    between atoms: C_8  and  C_9
REMARK    5  A    between atoms: N_12  and  C_13
REMARK    6  A    between atoms: C_13  and  C_14
REMARK    7  A    between atoms: C_17  and  C_18
REMARK    8  A    between atoms: N_20  and  C_21
REMARK    9  A    between atoms: C_23  and  C_24
REMARK   10  A    between atoms: C_27  and  C_28
REMARK                            x       y       z     vdW  Elec       q    Type
REMARK                         _______ _______ _______ _____ _____    ______ ____
ROOT
ATOM      1  C   UNL     1      -0.741  12.197  21.688  0.00  0.00    +0.000 C 
ENDROOT
BRANCH   1   7
ATOM      2  C   UNL     1       1.102  15.260  20.253  0.00  0.00    +0.000 C 
ATOM      3  C   UNL     1      -0.087  15.287  19.633  0.00  0.00    +0.000 C 
ATOM      4  C   UNL     1      -0.501  16.069  18.444  0.00  0.00    +0.000 C 
ATOM      5  C   UNL     1      -1.021  14.274  20.216  0.00  0.00    +0.000 C 
ATOM      6  O   UNL     1      -2.175  14.113  19.859  0.00  0.00    +0.000 OA
ATOM      7  N   UNL     1      -0.359  13.502  21.182  0.00  0.00    +0.000 N 
ATOM      8  S   UNL     1       1.148  14.121  21.542  0.00  0.00    +0.000 S 
ATOM      9  O   UNL     1       1.047  14.789  22.821  0.00  0.00    +0.000 OA
ATOM     10  O   UNL     1       2.135  13.092  21.294  0.00  0.00    +0.000 OA
BRANCH   2  14
ATOM     11  C   UNL     1       4.808  17.190  19.467  0.00  0.00    +0.000 A 
ATOM     12  C   UNL     1       4.386  16.127  18.663  0.00  0.00    +0.000 A 
ATOM     13  C   UNL     1       3.171  15.484  18.912  0.00  0.00    +0.000 A 
ATOM     14  C   UNL     1       2.372  15.897  19.980  0.00  0.00    +0.000 A 
ATOM     15  C   UNL     1       2.818  16.931  20.813  0.00  0.00    +0.000 A 
ATOM     16  C   UNL     1       4.026  17.579  20.554  0.00  0.00    +0.000 A 
BRANCH  11  18
ATOM     17  C   UNL     1       6.945  17.872  20.195  0.00  0.00    +0.000 C 
ATOM     18  O   UNL     1       6.008  17.750  19.128  0.00  0.00    +0.000 OA
ENDBRANCH  11  18
ENDBRANCH   2  14
ENDBRANCH   1   7
BRANCH   1  19
ATOM     19  C   UNL     1       0.022  11.065  21.028  0.00  0.00    +0.000 A 
ATOM     20  C   UNL     1       0.579  10.046  21.808  0.00  0.00    +0.000 A 
ATOM     21  C   UNL     1       1.262   8.991  21.207  0.00  0.00    +0.000 A 
ATOM     22  C   UNL     1       1.411   8.936  19.814  0.00  0.00    +0.000 A 
ATOM     23  C   UNL     1       0.880   9.958  19.024  0.00  0.00    +0.000 A 
ATOM     24  C   UNL     1       0.198  11.022  19.634  0.00  0.00    +0.000 A 
BRANCH  22  25
ATOM     25  C   UNL     1       2.055   7.718  19.256  0.00  0.00    +0.000 C 
ATOM     26  O   UNL     1       2.082   7.641  18.027  0.00  0.00    +0.000 OA
ATOM     27  N   UNL     1       2.503   6.756  20.146  0.00  0.00    +0.000 N 
ATOM     28  H   UNL     1       2.227   6.849  21.113  0.00  0.00    +0.000 HD
BRANCH  27  29
ATOM     29  C   UNL     1       3.112   5.529  19.760  0.00  0.00    +0.000 A 
ATOM     30  C   UNL     1       4.400   5.509  19.201  0.00  0.00    +0.000 A 
ATOM     31  C   UNL     1       4.997   4.331  18.739  0.00  0.00    +0.000 A 
ATOM     32  C   UNL     1       6.315   4.383  18.027  0.00  0.00    +0.000 C 
ATOM     33  C   UNL     1       4.323   3.126  18.910  0.00  0.00    +0.000 A 
ATOM     34  C   UNL     1       3.059   3.112  19.503  0.00  0.00    +0.000 A 
ATOM     35  C   UNL     1       2.427   4.305  19.909  0.00  0.00    +0.000 A 
ATOM     36  C   UNL     1       1.023   4.209  20.439  0.00  0.00    +0.000 C 
ENDBRANCH  27  29
ENDBRANCH  22  25
ENDBRANCH   1  19
TORSDOF 6
ENDMDL
MODEL 6
REMARK VINA RESULT:      -7.6      1.856      2.771
REMARK  Name = 
REMARK  10 active torsions:
REMARK  status: ('A' for Active; 'I' for Inactive)
REMARK    1  A    between atoms: C_1  and  O_2
REMARK    2  A    between atoms: O_2  and  C_3
REMARK    3  A    between atoms: C_6  and  C_7
REMARK    4  A    between atoms: C_8  and  C_9
REMARK    5  A    between atoms: N_12  and  C_13
REMARK    6  A    between atoms: C_13  and  C_14
REMARK    7  A    between atoms: C_17  and  C_18
REMARK    8  A    between atoms: N_20  and  C_21
REMARK    9  A    between atoms: C_23  and  C_24
REMARK   10  A    between atoms: C_27  and  C_28
REMARK                            x       y       z     vdW  Elec       q    Type
REMARK                         _______ _______ _______ _____ _____    ______ ____
ROOT
ATOM      1  C   UNL     1      -0.246  10.393  20.865  0.00  0.00    +0.000 C 
ENDROOT
BRANCH   1   7
ATOM      2  C   UNL     1       0.915  13.891  19.744  0.00  0.00    +0.000 C 
ATOM      3  C   UNL     1       0.028  13.536  18.804  0.00  0.00    +0.000 C 
ATOM      4  C   UNL     1      -0.220  14.147  17.476  0.00  0.00    +0.000 C 
ATOM      5  C   UNL     1      -0.683  12.274  19.182  0.00  0.00    +0.000 C 
ATOM      6  O   UNL     1      -1.563  11.751  18.521  0.00  0.00    +0.000 OA
ATOM      7  N   UNL     1      -0.146  11.753  20.369  0.00  0.00    +0.000 N 
ATOM      8  S   UNL     1       0.909  12.823  21.093  0.00  0.00    +0.000 S 
ATOM      9  O   UNL     1       0.220  13.418  22.217  0.00  0.00    +0.000 OA
ATOM     10  O   UNL     1       2.191  12.167  21.244  0.00  0.00    +0.000 OA
BRANCH   2  14
ATOM     11  C   UNL     1       3.993  16.819  19.904  0.00  0.00    +0.000 A 
ATOM     12  C   UNL     1       2.730  17.100  20.431  0.00  0.00    +0.000 A 
ATOM     13  C   UNL     1       1.709  16.147  20.383  0.00  0.00    +0.000 A 
ATOM     14  C   UNL     1       1.947  14.903  19.795  0.00  0.00    +0.000 A 
ATOM     15  C   UNL     1       3.200  14.640  19.226  0.00  0.00    +0.000 A 
ATOM     16  C   UNL     1       4.220  15.590  19.287  0.00  0.00    +0.000 A 
BRANCH  11  18
ATOM     17  C   UNL     1       5.865  17.665  21.064  0.00  0.00    +0.000 C 
ATOM     18  O   UNL     1       4.917  17.821  20.011  0.00  0.00    +0.000 OA
ENDBRANCH  11  18
ENDBRANCH   2  14
ENDBRANCH   1   7
BRANCH   1  19
ATOM     19  C   UNL     1       0.687   9.437  20.146  0.00  0.00    +0.000 A 
ATOM     20  C   UNL     1       1.223   8.337  20.825  0.00  0.00    +0.000 A 
ATOM     21  C   UNL     1       2.063   7.443  20.164  0.00  0.00    +0.000 A 
ATOM     22  C   UNL     1       2.393   7.633  18.815  0.00  0.00    +0.000 A 
ATOM     23  C   UNL     1       1.883   8.738  18.130  0.00  0.00    +0.000 A 
ATOM     24  C   UNL     1       1.042   9.640  18.801  0.00  0.00    +0.000 A 
BRANCH  22  25
ATOM     25  C   UNL     1       3.202   6.568  18.166  0.00  0.00    +0.000 C 
ATOM     26  O   UNL     1       2.704   5.442  18.165  0.00  0.00    +0.000 OA
ATOM     27  N   UNL     1       4.456   6.909  17.685  0.00  0.00    +0.000 N 
ATOM     28  H   UNL     1       4.825   7.813  17.941  0.00  0.00    +0.000 HD
BRANCH  27  29
ATOM     29  C   UNL     1       5.353   5.993  17.067  0.00  0.00    +0.000 A 
ATOM     30  C   UNL     1       5.215   5.653  15.712  0.00  0.00    +0.000 A 
ATOM     31  C   UNL     1       6.029   4.699  15.092  0.00  0.00    +0.000 A 
ATOM     32  C   UNL     1       5.752   4.272  13.682  0.00  0.00    +0.000 C 
ATOM     33  C   UNL     1       7.062   4.122  15.825  0.00  0.00    +0.000 A 
ATOM     34  C   UNL     1       7.250   4.475  17.162  0.00  0.00    +0.000 A 
ATOM     35  C   UNL     1       6.389   5.387  17.807  0.00  0.00    +0.000 A 
ATOM     36  C   UNL     1       6.599   5.628  19.277  0.00  0.00    +0.000 C 
ENDBRANCH  27  29
ENDBRANCH  22  25
ENDBRANCH   1  19
TORSDOF 6
ENDMDL
MODEL 7
REMARK VINA RESULT:      -7.5      1.268      1.578
REMARK  Name = 
REMARK  10 active torsions:
REMARK  status: ('A' for Active; 'I' for Inactive)
REMARK    1  A    between atoms: C_1  and  O_2
REMARK    2  A    between atoms: O_2  and  C_3
REMARK    3  A    between atoms: C_6  and  C_7
REMARK    4  A    between atoms: C_8  and  C_9
REMARK    5  A    between atoms: N_12  and  C_13
REMARK    6  A    between atoms: C_13  and  C_14
REMARK    7  A    between atoms: C_17  and  C_18
REMARK    8  A    between atoms: N_20  and  C_21
REMARK    9  A    between atoms: C_23  and  C_24
REMARK   10  A    between atoms: C_27  and  C_28
REMARK                            x       y       z     vdW  Elec       q    Type
REMARK                         _______ _______ _______ _____ _____    ______ ____
ROOT
ATOM      1  C   UNL     1      -0.529  11.750  21.752  0.00  0.00    +0.000 C 
ENDROOT
BRANCH   1   7
ATOM      2  C   UNL     1       1.169  14.692  19.936  0.00  0.00    +0.000 C 
ATOM      3  C   UNL     1       0.026  14.518  19.256  0.00  0.00    +0.000 C 
ATOM      4  C   UNL     1      -0.365  15.062  17.934  0.00  0.00    +0.000 C 
ATOM      5  C   UNL     1      -0.866  13.534  19.946  0.00  0.00    +0.000 C 
ATOM      6  O   UNL     1      -1.978  13.220  19.558  0.00  0.00    +0.000 OA
ATOM      7  N   UNL     1      -0.214  12.985  21.060  0.00  0.00    +0.000 N 
ATOM      8  S   UNL     1       1.214  13.782  21.395  0.00  0.00    +0.000 S 
ATOM      9  O   UNL     1       0.977  14.633  22.540  0.00  0.00    +0.000 OA
ATOM     10  O   UNL     1       2.291  12.815  21.373  0.00  0.00    +0.000 OA
BRANCH   2  14
ATOM     11  C   UNL     1       4.763  16.783  19.052  0.00  0.00    +0.000 A 
ATOM     12  C   UNL     1       4.433  15.626  18.343  0.00  0.00    +0.000 A 
ATOM     13  C   UNL     1       3.255  14.929  18.625  0.00  0.00    +0.000 A 
ATOM     14  C   UNL     1       2.402  15.384  19.632  0.00  0.00    +0.000 A 
ATOM     15  C   UNL     1       2.758  16.518  20.373  0.00  0.00    +0.000 A 
ATOM     16  C   UNL     1       3.929  17.219  20.080  0.00  0.00    +0.000 A 
BRANCH  11  18
ATOM     17  C   UNL     1       7.099  16.575  18.796  0.00  0.00    +0.000 C 
ATOM     18  O   UNL     1       5.934  17.389  18.688  0.00  0.00    +0.000 OA
ENDBRANCH  11  18
ENDBRANCH   2  14
ENDBRANCH   1   7
BRANCH   1  19
ATOM     19  C   UNL     1       0.235  10.560  21.205  0.00  0.00    +0.000 A 
ATOM     20  C   UNL     1       0.788   9.618  22.080  0.00  0.00    +0.000 A 
ATOM     21  C   UNL     1       1.471   8.511  21.583  0.00  0.00    +0.000 A 
ATOM     22  C   UNL     1       1.624   8.324  20.201  0.00  0.00    +0.000 A 
ATOM     23  C   UNL     1       1.096   9.266  19.316  0.00  0.00    +0.000 A 
ATOM     24  C   UNL     1       0.414  10.384  19.821  0.00  0.00    +0.000 A 
BRANCH  22  25
ATOM     25  C   UNL     1       2.268   7.057  19.763  0.00  0.00    +0.000 C 
ATOM     26  O   UNL     1       2.243   6.134  20.578  0.00  0.00    +0.000 OA
ATOM     27  N   UNL     1       2.890   7.041  18.526  0.00  0.00    +0.000 N 
ATOM     28  H   UNL     1       3.019   7.925  18.055  0.00  0.00    +0.000 HD
BRANCH  27  29
ATOM     29  C   UNL     1       3.571   5.913  17.986  0.00  0.00    +0.000 A 
ATOM     30  C   UNL     1       4.964   5.930  17.809  0.00  0.00    +0.000 A 
ATOM     31  C   UNL     1       5.655   4.872  17.210  0.00  0.00    +0.000 A 
ATOM     32  C   UNL     1       7.121   4.996  16.920  0.00  0.00    +0.000 C 
ATOM     33  C   UNL     1       4.948   3.729  16.848  0.00  0.00    +0.000 A 
ATOM     34  C   UNL     1       3.569   3.668  17.053  0.00  0.00    +0.000 A 
ATOM     35  C   UNL     1       2.860   4.760  17.595  0.00  0.00    +0.000 A 
ATOM     36  C   UNL     1       1.363   4.649  17.683  0.00  0.00    +0.000 C 
ENDBRANCH  27  29
ENDBRANCH  22  25
ENDBRANCH   1  19
TORSDOF 6
ENDMDL
MODEL 8
REMARK VINA RESULT:      -7.5      4.174      6.611
REMARK  Name = 
REMARK  10 active torsions:
REMARK  status: ('A' for Active; 'I' for Inactive)
REMARK    1  A    between atoms: C_1  and  O_2
REMARK    2  A    between atoms: O_2  and  C_3
REMARK    3  A    between atoms: C_6  and  C_7
REMARK    4  A    between atoms: C_8  and  C_9
REMARK    5  A    between atoms: N_12  and  C_13
REMARK    6  A    between atoms: C_13  and  C_14
REMARK    7  A    between atoms: C_17  and  C_18
REMARK    8  A    between atoms: N_20  and  C_21
REMARK    9  A    between atoms: C_23  and  C_24
REMARK   10  A    between atoms: C_27  and  C_28
REMARK                            x       y       z     vdW  Elec       q    Type
REMARK                         _______ _______ _______ _____ _____    ______ ____
ROOT
ATOM      1  C   UNL     1      -0.529  12.410  18.607  0.00  0.00    +0.000 C 
ENDROOT
BRANCH   1   7
ATOM      2  C   UNL     1      -3.969  12.818  20.292  0.00  0.00    +0.000 C 
ATOM      3  C   UNL     1      -4.249  12.163  19.156  0.00  0.00    +0.000 C 
ATOM      4  C   UNL     1      -5.563  11.939  18.508  0.00  0.00    +0.000 C 
ATOM      5  C   UNL     1      -2.996  11.739  18.456  0.00  0.00    +0.000 C 
ATOM      6  O   UNL     1      -2.966  11.098  17.420  0.00  0.00    +0.000 OA
ATOM      7  N   UNL     1      -1.871  12.237  19.130  0.00  0.00    +0.000 N 
ATOM      8  S   UNL     1      -2.279  12.907  20.603  0.00  0.00    +0.000 S 
ATOM      9  O   UNL     1      -1.895  11.963  21.629  0.00  0.00    +0.000 OA
ATOM     10  O   UNL     1      -1.824  14.281  20.621  0.00  0.00    +0.000 OA
BRANCH   2  14
ATOM     11  C   UNL     1      -6.397  14.946  23.057  0.00  0.00    +0.000 A 
ATOM     12  C   UNL     1      -5.940  15.576  21.897  0.00  0.00    +0.000 A 
ATOM     13  C   UNL     1      -5.140  14.887  20.981  0.00  0.00    +0.000 A 
ATOM     14  C   UNL     1      -4.783  13.560  21.229  0.00  0.00    +0.000 A 
ATOM     15  C   UNL     1      -5.203  12.946  22.415  0.00  0.00    +0.000 A 
ATOM     16  C   UNL     1      -6.013  13.633  23.322  0.00  0.00    +0.000 A 
BRANCH  11  18
ATOM     17  C   UNL     1      -7.917  16.742  23.229  0.00  0.00    +0.000 C 
ATOM     18  O   UNL     1      -7.179  15.711  23.879  0.00  0.00    +0.000 OA
ENDBRANCH  11  18
ENDBRANCH   2  14
ENDBRANCH   1   7
BRANCH   1  19
ATOM     19  C   UNL     1       0.303  11.146  18.700  0.00  0.00    +0.000 A 
ATOM     20  C   UNL     1      -0.154  10.059  19.453  0.00  0.00    +0.000 A 
ATOM     21  C   UNL     1       0.595   8.886  19.524  0.00  0.00    +0.000 A 
ATOM     22  C   UNL     1       1.820   8.776  18.851  0.00  0.00    +0.000 A 
ATOM     23  C   UNL     1       2.299   9.860  18.112  0.00  0.00    +0.000 A 
ATOM     24  C   UNL     1       1.545  11.042  18.049  0.00  0.00    +0.000 A 
BRANCH  22  25
ATOM     25  C   UNL     1       2.491   7.450  18.892  0.00  0.00    +0.000 C 
ATOM     26  O   UNL     1       2.567   6.922  20.002  0.00  0.00    +0.000 OA
ATOM     27  N   UNL     1       3.025   6.958  17.712  0.00  0.00    +0.000 N 
ATOM     28  H   UNL     1       3.080   7.587  16.925  0.00  0.00    +0.000 HD
BRANCH  27  29
ATOM     29  C   UNL     1       3.720   5.720  17.603  0.00  0.00    +0.000 A 
ATOM     30  C   UNL     1       5.117   5.688  17.464  0.00  0.00    +0.000 A 
ATOM     31  C   UNL     1       5.823   4.495  17.276  0.00  0.00    +0.000 A 
ATOM     32  C   UNL     1       7.296   4.527  16.997  0.00  0.00    +0.000 C 
ATOM     33  C   UNL     1       5.126   3.291  17.305  0.00  0.00    +0.000 A 
ATOM     34  C   UNL     1       3.742   3.292  17.485  0.00  0.00    +0.000 A 
ATOM     35  C   UNL     1       3.019   4.496  17.608  0.00  0.00    +0.000 A 
ATOM     36  C   UNL     1       1.520   4.408  17.691  0.00  0.00    +0.000 C 
ENDBRANCH  27  29
ENDBRANCH  22  25
ENDBRANCH   1  19
TORSDOF 6
ENDMDL
MODEL 9
REMARK VINA RESULT:      -7.5      4.074      6.515
REMARK  Name = 
REMARK  10 active torsions:
REMARK  status: ('A' for Active; 'I' for Inactive)
REMARK    1  A    between atoms: C_1  and  O_2
REMARK    2  A    between atoms: O_2  and  C_3
REMARK    3  A    between atoms: C_6  and  C_7
REMARK    4  A    between atoms: C_8  and  C_9
REMARK    5  A    between atoms: N_12  and  C_13
REMARK    6  A    between atoms: C_13  and  C_14
REMARK    7  A    between atoms: C_17  and  C_18
REMARK    8  A    between atoms: N_20  and  C_21
REMARK    9  A    between atoms: C_23  and  C_24
REMARK   10  A    between atoms: C_27  and  C_28
REMARK                            x       y       z     vdW  Elec       q    Type
REMARK                         _______ _______ _______ _____ _____    ______ ____
ROOT
ATOM      1  C   UNL     1       0.413  12.071  19.369  0.00  0.00    +0.000 C 
ENDROOT
BRANCH   1   7
ATOM      2  C   UNL     1      -3.198  12.619  20.595  0.00  0.00    +0.000 C 
ATOM      3  C   UNL     1      -3.355  12.061  19.386  0.00  0.00    +0.000 C 
ATOM      4  C   UNL     1      -4.577  11.975  18.551  0.00  0.00    +0.000 C 
ATOM      5  C   UNL     1      -2.046  11.593  18.834  0.00  0.00    +0.000 C 
ATOM      6  O   UNL     1      -1.911  11.020  17.767  0.00  0.00    +0.000 OA
ATOM      7  N   UNL     1      -0.998  11.963  19.690  0.00  0.00    +0.000 N 
ATOM      8  S   UNL     1      -1.566  12.564  21.139  0.00  0.00    +0.000 S 
ATOM      9  O   UNL     1      -1.391  11.531  22.135  0.00  0.00    +0.000 OA
ATOM     10  O   UNL     1      -1.032  13.897  21.321  0.00  0.00    +0.000 OA
BRANCH   2  14
ATOM     11  C   UNL     1      -5.858  14.740  23.144  0.00  0.00    +0.000 A 
ATOM     12  C   UNL     1      -5.033  15.436  22.256  0.00  0.00    +0.000 A 
ATOM     13  C   UNL     1      -4.154  14.750  21.414  0.00  0.00    +0.000 A 
ATOM     14  C   UNL     1      -4.087  13.356  21.465  0.00  0.00    +0.000 A 
ATOM     15  C   UNL     1      -4.880  12.664  22.388  0.00  0.00    +0.000 A 
ATOM     16  C   UNL     1      -5.767  13.351  23.219  0.00  0.00    +0.000 A 
BRANCH  11  18
ATOM     17  C   UNL     1      -7.833  16.026  23.248  0.00  0.00    +0.000 C 
ATOM     18  O   UNL     1      -6.684  15.511  23.915  0.00  0.00    +0.000 OA
ENDBRANCH  11  18
ENDBRANCH   2  14
ENDBRANCH   1   7
BRANCH   1  19
ATOM     19  C   UNL     1       1.064  10.723  19.131  0.00  0.00    +0.000 A 
ATOM     20  C   UNL     1       0.970   9.717  20.100  0.00  0.00    +0.000 A 
ATOM     21  C   UNL     1       1.547   8.469  19.878  0.00  0.00    +0.000 A 
ATOM     22  C   UNL     1       2.237   8.199  18.687  0.00  0.00    +0.000 A 
ATOM     23  C   UNL     1       2.358   9.200  17.720  0.00  0.00    +0.000 A 
ATOM     24  C   UNL     1       1.781  10.459  17.951  0.00  0.00    +0.000 A 
BRANCH  22  25
ATOM     25  C   UNL     1       2.720   6.807  18.492  0.00  0.00    +0.000 C 
ATOM     26  O   UNL     1       3.619   6.663  17.663  0.00  0.00    +0.000 OA
ATOM     27  N   UNL     1       2.084   5.797  19.194  0.00  0.00    +0.000 N 
ATOM     28  H   UNL     1       1.226   6.028  19.674  0.00  0.00    +0.000 HD
BRANCH  27  29
ATOM     29  C   UNL     1       2.416   4.416  19.088  0.00  0.00    +0.000 A 
ATOM     30  C   UNL     1       3.360   3.835  19.949  0.00  0.00    +0.000 A 
ATOM     31  C   UNL     1       3.767   2.502  19.824  0.00  0.00    +0.000 A 
ATOM     32  C   UNL     1       4.877   1.969  20.679  0.00  0.00    +0.000 C 
ATOM     33  C   UNL     1       3.159   1.703  18.860  0.00  0.00    +0.000 A 
ATOM     34  C   UNL     1       2.185   2.245  18.020  0.00  0.00    +0.000 A 
ATOM     35  C   UNL     1       1.821   3.605  18.101  0.00  0.00    +0.000 A 
ATOM     36  C   UNL     1       0.842   4.129  17.086  0.00  0.00    +0.000 C 
ENDBRANCH  27  29
ENDBRANCH  22  25
ENDBRANCH   1  19
TORSDOF 6
ENDMDL
