MODEL 1
REMARK VINA RESULT:      -9.1      0.000      0.000
REMARK  Name = 
REMARK  11 active torsions:
REMARK  status: ('A' for Active; 'I' for Inactive)
REMARK    1  A    between atoms: C_1  and  C_2
REMARK    2  A    between atoms: C_2  and  C_3
REMARK    3  A    between atoms: C_2  and  C_4
REMARK    4  A    between atoms: C_2  and  C_5
REMARK    5  A    between atoms: C_7  and  C_8
REMARK    6  A    between atoms: N_15  and  O_16
REMARK    7  A    between atoms: C_21  and  C_22
REMARK    8  A    between atoms: C_22  and  C_23
REMARK    9  A    between atoms: C_22  and  C_24
REMARK   10  A    between atoms: C_22  and  C_25
REMARK   11  A    between atoms: C_26  and  O_27
REMARK                            x       y       z     vdW  Elec       q    Type
REMARK                         _______ _______ _______ _____ _____    ______ ____
ROOT
ATOM      1  C   UNL     1       3.144   4.411  19.172  0.00  0.00    +0.000 A 
ATOM      2  C   UNL     1       2.424   5.604  18.907  0.00  0.00    +0.000 A 
ATOM      3  C   UNL     1       3.036   6.732  18.345  0.00  0.00    +0.000 A 
ATOM      4  C   UNL     1       4.392   6.647  18.018  0.00  0.00    +0.000 A 
ATOM      5  C   UNL     1       5.196   5.532  18.307  0.00  0.00    +0.000 A 
ATOM      6  C   UNL     1       4.521   4.410  18.828  0.00  0.00    +0.000 A 
ENDROOT
BRANCH   3   7
ATOM      7  C   UNL     1       2.270   7.970  18.066  0.00  0.00    +0.000 C 
ATOM      8  C   UNL     1       1.685   8.757  18.991  0.00  0.00    +0.000 C 
ATOM      9  C   UNL     1       1.555   8.605  20.478  0.00  0.00    +0.000 C 
ATOM     10  C   UNL     1       0.257   9.303  20.893  0.00  0.00    +0.000 C 
ATOM     11  N   UNL     1       0.095  10.486  20.022  0.00  0.00    +0.000 N 
ATOM     12  C   UNL     1      -0.845  11.484  20.293  0.00  0.00    +0.000 C 
ATOM     13  O   UNL     1      -1.521  11.448  21.320  0.00  0.00    +0.000 OA
ATOM     14  N   UNL     1      -0.952  12.535  19.423  0.00  0.00    +0.000 N 
ATOM     15  S   UNL     1       0.793  10.176  18.523  0.00  0.00    +0.000 S 
ATOM     16  O   UNL     1       1.679  11.286  18.232  0.00  0.00    +0.000 OA
ATOM     17  O   UNL     1      -0.267   9.806  17.613  0.00  0.00    +0.000 OA
ATOM     18  H   UNL     1      -0.219  12.749  18.754  0.00  0.00    +0.000 HD
BRANCH  14  19
ATOM     19  O   UNL     1      -1.764  13.615  19.851  0.00  0.00    +0.000 OA
ATOM     20  H   UNL     1      -1.127  14.364  19.877  0.00  0.00    +0.000 HD
ENDBRANCH  14  19
ENDBRANCH   3   7
BRANCH   1  22
ATOM     21  C   UNL     1       0.968   3.573  20.111  0.00  0.00    +0.000 C 
ATOM     22  C   UNL     1       2.420   3.175  19.781  0.00  0.00    +0.000 C 
ATOM     23  C   UNL     1       3.088   2.674  21.089  0.00  0.00    +0.000 C 
ATOM     24  C   UNL     1       2.390   1.927  18.859  0.00  0.00    +0.000 C 
ENDBRANCH   1  22
BRANCH   5  25
ATOM     25  C   UNL     1       6.734   5.669  18.147  0.00  0.00    +0.000 C 
ATOM     26  C   UNL     1       6.994   7.029  17.453  0.00  0.00    +0.000 C 
ATOM     27  C   UNL     1       7.543   5.630  19.460  0.00  0.00    +0.000 C 
ATOM     28  C   UNL     1       7.359   4.568  17.249  0.00  0.00    +0.000 C 
ENDBRANCH   5  25
BRANCH   6  29
ATOM     29  O   UNL     1       5.214   3.243  18.960  0.00  0.00    +0.000 OA
ATOM     30  H   UNL     1       6.017   3.460  19.462  0.00  0.00    +0.000 HD
ENDBRANCH   6  29
TORSDOF 5
ENDMDL
MODEL 2
REMARK VINA RESULT:      -9.1      0.095      1.153
REMARK  Name = 
REMARK  11 active torsions:
REMARK  status: ('A' for Active; 'I' for Inactive)
REMARK    1  A    between atoms: C_1  and  C_2
REMARK    2  A    between atoms: C_2  and  C_3
REMARK    3  A    between atoms: C_2  and  C_4
REMARK    4  A    between atoms: C_2  and  C_5
REMARK    5  A    between atoms: C_7  and  C_8
REMARK    6  A    between atoms: N_15  and  O_16
REMARK    7  A    between atoms: C_21  and  C_22
REMARK    8  A    between atoms: C_22  and  C_23
REMARK    9  A    between atoms: C_22  and  C_24
REMARK   10  A    between atoms: C_22  and  C_25
REMARK   11  A    between atoms: C_26  and  O_27
REMARK                            x       y       z     vdW  Elec       q    Type
REMARK                         _______ _______ _______ _____ _____    ______ ____
ROOT
ATOM      1  C   UNL     1       3.137   4.424  19.119  0.00  0.00    +0.000 A 
ATOM      2  C   UNL     1       2.423   5.624  18.870  0.00  0.00    +0.000 A 
ATOM      3  C   UNL     1       3.037   6.751  18.306  0.00  0.00    +0.000 A 
ATOM      4  C   UNL     1       4.389   6.657  17.963  0.00  0.00    +0.000 A 
ATOM      5  C   UNL     1       5.187   5.534  18.237  0.00  0.00    +0.000 A 
ATOM      6  C   UNL     1       4.510   4.415  18.760  0.00  0.00    +0.000 A 
ENDROOT
BRANCH   3   7
ATOM      7  C   UNL     1       2.277   7.996  18.042  0.00  0.00    +0.000 C 
ATOM      8  C   UNL     1       1.690   8.770  18.976  0.00  0.00    +0.000 C 
ATOM      9  C   UNL     1       1.549   8.595  20.460  0.00  0.00    +0.000 C 
ATOM     10  C   UNL     1       0.251   9.291  20.878  0.00  0.00    +0.000 C 
ATOM     11  N   UNL     1       0.099  10.488  20.025  0.00  0.00    +0.000 N 
ATOM     12  C   UNL     1      -0.839  11.485  20.306  0.00  0.00    +0.000 C 
ATOM     13  O   UNL     1      -1.522  11.435  21.327  0.00  0.00    +0.000 OA
ATOM     14  N   UNL     1      -0.936  12.550  19.452  0.00  0.00    +0.000 N 
ATOM     15  S   UNL     1       0.805  10.200  18.526  0.00  0.00    +0.000 S 
ATOM     16  O   UNL     1       1.698  11.311  18.259  0.00  0.00    +0.000 OA
ATOM     17  O   UNL     1      -0.249   9.849  17.602  0.00  0.00    +0.000 OA
ATOM     18  H   UNL     1      -0.198  12.773  18.792  0.00  0.00    +0.000 HD
BRANCH  14  19
ATOM     19  O   UNL     1      -1.747  13.627  19.892  0.00  0.00    +0.000 OA
ATOM     20  H   UNL     1      -2.588  13.178  20.132  0.00  0.00    +0.000 HD
ENDBRANCH  14  19
ENDBRANCH   3   7
BRANCH   1  22
ATOM     21  C   UNL     1       2.299   2.103  18.644  0.00  0.00    +0.000 C 
ATOM     22  C   UNL     1       2.411   3.191  19.731  0.00  0.00    +0.000 C 
ATOM     23  C   UNL     1       0.978   3.522  20.224  0.00  0.00    +0.000 C 
ATOM     24  C   UNL     1       3.115   2.577  20.970  0.00  0.00    +0.000 C 
ENDBRANCH   1  22
BRANCH   5  25
ATOM     25  C   UNL     1       6.724   5.661  18.059  0.00  0.00    +0.000 C 
ATOM     26  C   UNL     1       7.345   5.620  19.477  0.00  0.00    +0.000 C 
ATOM     27  C   UNL     1       7.386   4.559  17.206  0.00  0.00    +0.000 C 
ATOM     28  C   UNL     1       7.159   7.000  17.406  0.00  0.00    +0.000 C 
ENDBRANCH   5  25
BRANCH   6  29
ATOM     29  O   UNL     1       5.195   3.242  18.878  0.00  0.00    +0.000 OA
ATOM     30  H   UNL     1       4.798   2.771  19.629  0.00  0.00    +0.000 HD
ENDBRANCH   6  29
TORSDOF 5
ENDMDL
MODEL 3
REMARK VINA RESULT:      -9.0      0.457      3.573
REMARK  Name = 
REMARK  11 active torsions:
REMARK  status: ('A' for Active; 'I' for Inactive)
REMARK    1  A    between atoms: C_1  and  C_2
REMARK    2  A    between atoms: C_2  and  C_3
REMARK    3  A    between atoms: C_2  and  C_4
REMARK    4  A    between atoms: C_2  and  C_5
REMARK    5  A    between atoms: C_7  and  C_8
REMARK    6  A    between atoms: N_15  and  O_16
REMARK    7  A    between atoms: C_21  and  C_22
REMARK    8  A    between atoms: C_22  and  C_23
REMARK    9  A    between atoms: C_22  and  C_24
REMARK   10  A    between atoms: C_22  and  C_25
REMARK   11  A    between atoms: C_26  and  O_27
REMARK                            x       y       z     vdW  Elec       q    Type
REMARK                         _______ _______ _______ _____ _____    ______ ____
ROOT
ATOM      1  C   UNL     1       5.381   5.666  18.249  0.00  0.00    +0.000 A 
ATOM      2  C   UNL     1       4.571   6.807  18.013  0.00  0.00    +0.000 A 
ATOM      3  C   UNL     1       3.180   6.778  18.181  0.00  0.00    +0.000 A 
ATOM      4  C   UNL     1       2.597   5.585  18.620  0.00  0.00    +0.000 A 
ATOM      5  C   UNL     1       3.313   4.392  18.811  0.00  0.00    +0.000 A 
ATOM      6  C   UNL     1       4.713   4.489  18.675  0.00  0.00    +0.000 A 
ENDROOT
BRANCH   3   7
ATOM      7  C   UNL     1       2.347   7.980  17.940  0.00  0.00    +0.000 C 
ATOM      8  C   UNL     1       1.763   8.735  18.892  0.00  0.00    +0.000 C 
ATOM      9  C   UNL     1       1.700   8.571  20.382  0.00  0.00    +0.000 C 
ATOM     10  C   UNL     1       0.387   9.206  20.852  0.00  0.00    +0.000 C 
ATOM     11  N   UNL     1       0.136  10.383  19.995  0.00  0.00    +0.000 N 
ATOM     12  C   UNL     1      -0.838  11.334  20.308  0.00  0.00    +0.000 C 
ATOM     13  O   UNL     1      -1.470  11.263  21.360  0.00  0.00    +0.000 OA
ATOM     14  N   UNL     1      -1.028  12.383  19.449  0.00  0.00    +0.000 N 
ATOM     15  S   UNL     1       0.787  10.112  18.468  0.00  0.00    +0.000 S 
ATOM     16  O   UNL     1       1.609  11.264  18.148  0.00  0.00    +0.000 OA
ATOM     17  O   UNL     1      -0.289   9.696  17.598  0.00  0.00    +0.000 OA
ATOM     18  H   UNL     1      -0.334  12.634  18.753  0.00  0.00    +0.000 HD
BRANCH  14  19
ATOM     19  O   UNL     1      -1.873  13.423  19.915  0.00  0.00    +0.000 OA
ATOM     20  H   UNL     1      -2.297  13.741  19.087  0.00  0.00    +0.000 HD
ENDBRANCH  14  19
ENDBRANCH   3   7
BRANCH   1  22
ATOM     21  C   UNL     1       7.265   7.086  17.381  0.00  0.00    +0.000 C 
ATOM     22  C   UNL     1       6.925   5.748  18.067  0.00  0.00    +0.000 C 
ATOM     23  C   UNL     1       7.485   4.602  17.185  0.00  0.00    +0.000 C 
ATOM     24  C   UNL     1       7.734   5.652  19.388  0.00  0.00    +0.000 C 
ENDBRANCH   1  22
BRANCH   5  25
ATOM     25  C   UNL     1       2.514   3.080  19.029  0.00  0.00    +0.000 C 
ATOM     26  C   UNL     1       1.063   3.354  18.563  0.00  0.00    +0.000 C 
ATOM     27  C   UNL     1       3.045   1.846  18.269  0.00  0.00    +0.000 C 
ATOM     28  C   UNL     1       2.444   2.643  20.518  0.00  0.00    +0.000 C 
ENDBRANCH   5  25
BRANCH   6  29
ATOM     29  O   UNL     1       5.472   3.411  19.022  0.00  0.00    +0.000 OA
ATOM     30  H   UNL     1       5.875   3.088  18.199  0.00  0.00    +0.000 HD
ENDBRANCH   6  29
TORSDOF 5
ENDMDL
MODEL 4
REMARK VINA RESULT:      -8.9      0.473      3.549
REMARK  Name = 
REMARK  11 active torsions:
REMARK  status: ('A' for Active; 'I' for Inactive)
REMARK    1  A    between atoms: C_1  and  C_2
REMARK    2  A    between atoms: C_2  and  C_3
REMARK    3  A    between atoms: C_2  and  C_4
REMARK    4  A    between atoms: C_2  and  C_5
REMARK    5  A    between atoms: C_7  and  C_8
REMARK    6  A    between atoms: N_15  and  O_16
REMARK    7  A    between atoms: C_21  and  C_22
REMARK    8  A    between atoms: C_22  and  C_23
REMARK    9  A    between atoms: C_22  and  C_24
REMARK   10  A    between atoms: C_22  and  C_25
REMARK   11  A    between atoms: C_26  and  O_27
REMARK                            x       y       z     vdW  Elec       q    Type
REMARK                         _______ _______ _______ _____ _____    ______ ____
ROOT
ATOM      1  C   UNL     1       5.346   5.638  18.212  0.00  0.00    +0.000 A 
ATOM      2  C   UNL     1       4.540   6.790  18.018  0.00  0.00    +0.000 A 
ATOM      3  C   UNL     1       3.152   6.766  18.209  0.00  0.00    +0.000 A 
ATOM      4  C   UNL     1       2.568   5.567  18.630  0.00  0.00    +0.000 A 
ATOM      5  C   UNL     1       3.279   4.365  18.781  0.00  0.00    +0.000 A 
ATOM      6  C   UNL     1       4.677   4.455  18.623  0.00  0.00    +0.000 A 
ENDROOT
BRANCH   3   7
ATOM      7  C   UNL     1       2.322   7.978  18.011  0.00  0.00    +0.000 C 
ATOM      8  C   UNL     1       1.760   8.714  18.990  0.00  0.00    +0.000 C 
ATOM      9  C   UNL     1       1.721   8.516  20.477  0.00  0.00    +0.000 C 
ATOM     10  C   UNL     1       0.421   9.148  20.984  0.00  0.00    +0.000 C 
ATOM     11  N   UNL     1       0.164  10.346  20.159  0.00  0.00    +0.000 N 
ATOM     12  C   UNL     1      -0.799  11.296  20.511  0.00  0.00    +0.000 C 
ATOM     13  O   UNL     1      -1.414  11.204  21.572  0.00  0.00    +0.000 OA
ATOM     14  N   UNL     1      -0.996  12.366  19.680  0.00  0.00    +0.000 N 
ATOM     15  S   UNL     1       0.787  10.108  18.615  0.00  0.00    +0.000 S 
ATOM     16  O   UNL     1       1.611  11.261  18.309  0.00  0.00    +0.000 OA
ATOM     17  O   UNL     1      -0.307   9.719  17.754  0.00  0.00    +0.000 OA
ATOM     18  H   UNL     1      -0.312  12.629  18.979  0.00  0.00    +0.000 HD
BRANCH  14  19
ATOM     19  O   UNL     1      -1.825  13.400  20.185  0.00  0.00    +0.000 OA
ATOM     20  H   UNL     1      -1.435  14.205  19.778  0.00  0.00    +0.000 HD
ENDBRANCH  14  19
ENDBRANCH   3   7
BRANCH   1  22
ATOM     21  C   UNL     1       7.567   5.647  19.387  0.00  0.00    +0.000 C 
ATOM     22  C   UNL     1       6.886   5.714  18.006  0.00  0.00    +0.000 C 
ATOM     23  C   UNL     1       7.335   7.028  17.315  0.00  0.00    +0.000 C 
ATOM     24  C   UNL     1       7.473   4.587  17.115  0.00  0.00    +0.000 C 
ENDBRANCH   1  22
BRANCH   5  25
ATOM     25  C   UNL     1       2.475   3.053  18.983  0.00  0.00    +0.000 C 
ATOM     26  C   UNL     1       2.589   2.681  20.482  0.00  0.00    +0.000 C 
ATOM     27  C   UNL     1       0.979   3.129  18.613  0.00  0.00    +0.000 C 
ATOM     28  C   UNL     1       3.036   1.857  18.169  0.00  0.00    +0.000 C 
ENDBRANCH   5  25
BRANCH   6  29
ATOM     29  O   UNL     1       5.434   3.365  18.931  0.00  0.00    +0.000 OA
ATOM     30  H   UNL     1       6.255   3.452  18.419  0.00  0.00    +0.000 HD
ENDBRANCH   6  29
TORSDOF 5
ENDMDL
MODEL 5
REMARK VINA RESULT:      -8.8      0.485      3.544
REMARK  Name = 
REMARK  11 active torsions:
REMARK  status: ('A' for Active; 'I' for Inactive)
REMARK    1  A    between atoms: C_1  and  C_2
REMARK    2  A    between atoms: C_2  and  C_3
REMARK    3  A    between atoms: C_2  and  C_4
REMARK    4  A    between atoms: C_2  and  C_5
REMARK    5  A    between atoms: C_7  and  C_8
REMARK    6  A    between atoms: N_15  and  O_16
REMARK    7  A    between atoms: C_21  and  C_22
REMARK    8  A    between atoms: C_22  and  C_23
REMARK    9  A    between atoms: C_22  and  C_24
REMARK   10  A    between atoms: C_22  and  C_25
REMARK   11  A    between atoms: C_26  and  O_27
REMARK                            x       y       z     vdW  Elec       q    Type
REMARK                         _______ _______ _______ _____ _____    ______ ____
ROOT
ATOM      1  C   UNL     1       5.340   5.696  18.170  0.00  0.00    +0.000 A 
ATOM      2  C   UNL     1       4.530   6.845  17.984  0.00  0.00    +0.000 A 
ATOM      3  C   UNL     1       3.143   6.816  18.181  0.00  0.00    +0.000 A 
ATOM      4  C   UNL     1       2.565   5.613  18.599  0.00  0.00    +0.000 A 
ATOM      5  C   UNL     1       3.281   4.413  18.742  0.00  0.00    +0.000 A 
ATOM      6  C   UNL     1       4.677   4.509  18.578  0.00  0.00    +0.000 A 
ENDROOT
BRANCH   3   7
ATOM      7  C   UNL     1       2.308   8.026  17.990  0.00  0.00    +0.000 C 
ATOM      8  C   UNL     1       1.741   8.751  18.974  0.00  0.00    +0.000 C 
ATOM      9  C   UNL     1       1.699   8.541  20.459  0.00  0.00    +0.000 C 
ATOM     10  C   UNL     1       0.395   9.162  20.969  0.00  0.00    +0.000 C 
ATOM     11  N   UNL     1       0.134  10.366  20.154  0.00  0.00    +0.000 N 
ATOM     12  C   UNL     1      -0.834  11.309  20.512  0.00  0.00    +0.000 C 
ATOM     13  O   UNL     1      -1.450  11.206  21.570  0.00  0.00    +0.000 OA
ATOM     14  N   UNL     1      -1.034  12.385  19.689  0.00  0.00    +0.000 N 
ATOM     15  S   UNL     1       0.762  10.143  18.609  0.00  0.00    +0.000 S 
ATOM     16  O   UNL     1       1.581  11.303  18.314  0.00  0.00    +0.000 OA
ATOM     17  O   UNL     1      -0.328   9.757  17.742  0.00  0.00    +0.000 OA
ATOM     18  H   UNL     1      -0.349  12.657  18.991  0.00  0.00    +0.000 HD
BRANCH  14  19
ATOM     19  O   UNL     1      -1.869  13.411  20.200  0.00  0.00    +0.000 OA
ATOM     20  H   UNL     1      -2.551  13.501  19.498  0.00  0.00    +0.000 HD
ENDBRANCH  14  19
ENDBRANCH   3   7
BRANCH   1  22
ATOM     21  C   UNL     1       7.303   4.636  17.013  0.00  0.00    +0.000 C 
ATOM     22  C   UNL     1       6.880   5.778  17.958  0.00  0.00    +0.000 C 
ATOM     23  C   UNL     1       7.676   5.624  19.281  0.00  0.00    +0.000 C 
ATOM     24  C   UNL     1       7.378   7.120  17.360  0.00  0.00    +0.000 C 
ENDBRANCH   1  22
BRANCH   5  25
ATOM     25  C   UNL     1       2.482   3.097  18.942  0.00  0.00    +0.000 C 
ATOM     26  C   UNL     1       2.893   2.143  17.793  0.00  0.00    +0.000 C 
ATOM     27  C   UNL     1       2.720   2.374  20.284  0.00  0.00    +0.000 C 
ATOM     28  C   UNL     1       0.944   3.292  18.850  0.00  0.00    +0.000 C 
ENDBRANCH   5  25
BRANCH   6  29
ATOM     29  O   UNL     1       5.440   3.420  18.879  0.00  0.00    +0.000 OA
ATOM     30  H   UNL     1       5.869   3.616  19.729  0.00  0.00    +0.000 HD
ENDBRANCH   6  29
TORSDOF 5
ENDMDL
MODEL 6
REMARK VINA RESULT:      -8.6      0.806      3.578
REMARK  Name = 
REMARK  11 active torsions:
REMARK  status: ('A' for Active; 'I' for Inactive)
REMARK    1  A    between atoms: C_1  and  C_2
REMARK    2  A    between atoms: C_2  and  C_3
REMARK    3  A    between atoms: C_2  and  C_4
REMARK    4  A    between atoms: C_2  and  C_5
REMARK    5  A    between atoms: C_7  and  C_8
REMARK    6  A    between atoms: N_15  and  O_16
REMARK    7  A    between atoms: C_21  and  C_22
REMARK    8  A    between atoms: C_22  and  C_23
REMARK    9  A    between atoms: C_22  and  C_24
REMARK   10  A    between atoms: C_22  and  C_25
REMARK   11  A    between atoms: C_26  and  O_27
REMARK                            x       y       z     vdW  Elec       q    Type
REMARK                         _______ _______ _______ _____ _____    ______ ____
ROOT
ATOM      1  C   UNL     1       4.695   5.138  17.511  0.00  0.00    +0.000 A 
ATOM      2  C   UNL     1       4.018   6.382  17.421  0.00  0.00    +0.000 A 
ATOM      3  C   UNL     1       2.843   6.642  18.139  0.00  0.00    +0.000 A 
ATOM      4  C   UNL     1       2.355   5.639  18.982  0.00  0.00    +0.000 A 
ATOM      5  C   UNL     1       2.921   4.358  19.080  0.00  0.00    +0.000 A 
ATOM      6  C   UNL     1       4.126   4.165  18.375  0.00  0.00    +0.000 A 
ENDROOT
BRANCH   3   7
ATOM      7  C   UNL     1       2.151   7.949  18.043  0.00  0.00    +0.000 C 
ATOM      8  C   UNL     1       1.668   8.660  19.081  0.00  0.00    +0.000 C 
ATOM      9  C   UNL     1       1.601   8.348  20.547  0.00  0.00    +0.000 C 
ATOM     10  C   UNL     1       0.376   9.074  21.110  0.00  0.00    +0.000 C 
ATOM     11  N   UNL     1       0.253  10.356  20.386  0.00  0.00    +0.000 N 
ATOM     12  C   UNL     1      -0.602  11.373  20.818  0.00  0.00    +0.000 C 
ATOM     13  O   UNL     1      -1.227  11.263  21.871  0.00  0.00    +0.000 OA
ATOM     14  N   UNL     1      -0.679  12.521  20.077  0.00  0.00    +0.000 N 
ATOM     15  S   UNL     1       0.853  10.176  18.824  0.00  0.00    +0.000 S 
ATOM     16  O   UNL     1       1.798  11.255  18.608  0.00  0.00    +0.000 OA
ATOM     17  O   UNL     1      -0.273   9.980  17.940  0.00  0.00    +0.000 OA
ATOM     18  H   UNL     1       0.033  12.765  19.396  0.00  0.00    +0.000 HD
BRANCH  14  19
ATOM     19  O   UNL     1      -1.393  13.595  20.667  0.00  0.00    +0.000 OA
ATOM     20  H   UNL     1      -2.310  13.444  20.347  0.00  0.00    +0.000 HD
ENDBRANCH  14  19
ENDBRANCH   3   7
BRANCH   1  22
ATOM     21  C   UNL     1       7.151   4.646  17.713  0.00  0.00    +0.000 C 
ATOM     22  C   UNL     1       6.007   4.898  16.710  0.00  0.00    +0.000 C 
ATOM     23  C   UNL     1       6.403   6.113  15.830  0.00  0.00    +0.000 C 
ATOM     24  C   UNL     1       5.950   3.704  15.721  0.00  0.00    +0.000 C 
ENDBRANCH   1  22
BRANCH   5  25
ATOM     25  C   UNL     1       2.129   3.257  19.835  0.00  0.00    +0.000 C 
ATOM     26  C   UNL     1       0.816   3.909  20.334  0.00  0.00    +0.000 C 
ATOM     27  C   UNL     1       1.767   2.011  19.000  0.00  0.00    +0.000 C 
ATOM     28  C   UNL     1       2.874   2.710  21.082  0.00  0.00    +0.000 C 
ENDBRANCH   5  25
BRANCH   6  29
ATOM     29  O   UNL     1       4.813   3.005  18.574  0.00  0.00    +0.000 OA
ATOM     30  H   UNL     1       4.503   2.386  17.892  0.00  0.00    +0.000 HD
ENDBRANCH   6  29
TORSDOF 5
ENDMDL
MODEL 7
REMARK VINA RESULT:      -8.3      1.333      3.698
REMARK  Name = 
REMARK  11 active torsions:
REMARK  status: ('A' for Active; 'I' for Inactive)
REMARK    1  A    between atoms: C_1  and  C_2
REMARK    2  A    between atoms: C_2  and  C_3
REMARK    3  A    between atoms: C_2  and  C_4
REMARK    4  A    between atoms: C_2  and  C_5
REMARK    5  A    between atoms: C_7  and  C_8
REMARK    6  A    between atoms: N_15  and  O_16
REMARK    7  A    between atoms: C_21  and  C_22
REMARK    8  A    between atoms: C_22  and  C_23
REMARK    9  A    between atoms: C_22  and  C_24
REMARK   10  A    between atoms: C_22  and  C_25
REMARK   11  A    between atoms: C_26  and  O_27
REMARK                            x       y       z     vdW  Elec       q    Type
REMARK                         _______ _______ _______ _____ _____    ______ ____
ROOT
ATOM      1  C   UNL     1       4.381   5.551  17.334  0.00  0.00    +0.000 A 
ATOM      2  C   UNL     1       3.669   6.770  17.474  0.00  0.00    +0.000 A 
ATOM      3  C   UNL     1       2.605   6.910  18.375  0.00  0.00    +0.000 A 
ATOM      4  C   UNL     1       2.269   5.810  19.169  0.00  0.00    +0.000 A 
ATOM      5  C   UNL     1       2.875   4.548  19.049  0.00  0.00    +0.000 A 
ATOM      6  C   UNL     1       3.969   4.475  18.163  0.00  0.00    +0.000 A 
ENDROOT
BRANCH   3   7
ATOM      7  C   UNL     1       1.875   8.192  18.517  0.00  0.00    +0.000 C 
ATOM      8  C   UNL     1       1.452   8.731  19.678  0.00  0.00    +0.000 C 
ATOM      9  C   UNL     1       1.501   8.211  21.085  0.00  0.00    +0.000 C 
ATOM     10  C   UNL     1       0.302   8.805  21.830  0.00  0.00    +0.000 C 
ATOM     11  N   UNL     1       0.094  10.172  21.309  0.00  0.00    +0.000 N 
ATOM     12  C   UNL     1      -0.752  11.086  21.942  0.00  0.00    +0.000 C 
ATOM     13  O   UNL     1      -1.295  10.805  23.009  0.00  0.00    +0.000 OA
ATOM     14  N   UNL     1      -0.912  12.325  21.382  0.00  0.00    +0.000 N 
ATOM     15  S   UNL     1       0.582  10.238  19.701  0.00  0.00    +0.000 S 
ATOM     16  O   UNL     1       1.482  11.369  19.578  0.00  0.00    +0.000 OA
ATOM     17  O   UNL     1      -0.600  10.130  18.877  0.00  0.00    +0.000 OA
ATOM     18  H   UNL     1      -0.258  12.688  20.696  0.00  0.00    +0.000 HD
BRANCH  14  19
ATOM     19  O   UNL     1      -1.608  13.277  22.169  0.00  0.00    +0.000 OA
ATOM     20  H   UNL     1      -2.493  12.863  22.274  0.00  0.00    +0.000 HD
ENDBRANCH  14  19
ENDBRANCH   3   7
BRANCH   1  22
ATOM     21  C   UNL     1       5.425   6.566  15.285  0.00  0.00    +0.000 C 
ATOM     22  C   UNL     1       5.568   5.445  16.334  0.00  0.00    +0.000 C 
ATOM     23  C   UNL     1       5.599   4.088  15.582  0.00  0.00    +0.000 C 
ATOM     24  C   UNL     1       6.972   5.559  16.985  0.00  0.00    +0.000 C 
ENDBRANCH   1  22
BRANCH   5  25
ATOM     25  C   UNL     1       2.228   3.346  19.788  0.00  0.00    +0.000 C 
ATOM     26  C   UNL     1       1.759   2.349  18.701  0.00  0.00    +0.000 C 
ATOM     27  C   UNL     1       3.152   2.597  20.770  0.00  0.00    +0.000 C 
ATOM     28  C   UNL     1       0.979   3.738  20.623  0.00  0.00    +0.000 C 
ENDBRANCH   5  25
BRANCH   6  29
ATOM     29  O   UNL     1       4.705   3.328  18.138  0.00  0.00    +0.000 OA
ATOM     30  H   UNL     1       4.083   2.603  18.314  0.00  0.00    +0.000 HD
ENDBRANCH   6  29
TORSDOF 5
ENDMDL
