MODEL 1
REMARK VINA RESULT:      -8.0      0.000      0.000
REMARK  Name = 
REMARK  4 active torsions:
REMARK  status: ('A' for Active; 'I' for Inactive)
REMARK    1  A    between atoms: C_2  and  C_10
REMARK    2  A    between atoms: N_3  and  C_4
REMARK    3  A    between atoms: N_16  and  C_17
REMARK    4  A    between atoms: C_17  and  C_18
REMARK                            x       y       z     vdW  Elec       q    Type
REMARK                         _______ _______ _______ _____ _____    ______ ____
ROOT
ATOM      1  C   UNL     1       2.508   4.973  19.660  0.00  0.00    +0.000 C 
ATOM      2  C   UNL     1       1.116   4.487  20.151  0.00  0.00    +0.000 C 
ATOM      3  O   UNL     1       1.214   3.556  21.231  0.00  0.00    +0.000 OA
ATOM      4  C   UNL     1       2.538   3.095  21.289  0.00  0.00    +0.000 C 
ATOM      5  C   UNL     1       3.396   4.099  20.534  0.00  0.00    +0.000 C 
ATOM      6  C   UNL     1       4.276   3.238  19.615  0.00  0.00    +0.000 C 
ATOM      7  N   UNL     1       4.426   3.943  18.358  0.00  0.00    +0.000 NA
ATOM      8  C   UNL     1       3.466   5.057  18.427  0.00  0.00    +0.000 C 
ENDROOT
BRANCH   1  10
ATOM      9  O   UNL     1       2.341   7.192  18.652  0.00  0.00    +0.000 OA
ATOM     10  C   UNL     1       2.101   6.470  19.615  0.00  0.00    +0.000 C 
ATOM     11  N   UNL     1       1.443   6.874  20.805  0.00  0.00    +0.000 N 
ATOM     12  H   UNL     1       1.223   6.189  21.525  0.00  0.00    +0.000 HD
BRANCH  11  13
ATOM     13  C   UNL     1       1.155   8.308  21.044  0.00  0.00    +0.000 C 
ATOM     14  C   UNL     1      -0.294   8.661  21.493  0.00  0.00    +0.000 C 
ATOM     15  C   UNL     1       0.361   9.769  22.364  0.00  0.00    +0.000 C 
ATOM     16  F   UNL     1      -0.239  10.029  23.545  0.00  0.00    +0.000 F 
ATOM     17  F   UNL     1       0.548  10.958  21.745  0.00  0.00    +0.000 F 
ATOM     18  C   UNL     1       1.602   8.845  22.416  0.00  0.00    +0.000 C 
ENDBRANCH  11  13
ENDBRANCH   1  10
BRANCH   7  19
ATOM     19  C   UNL     1       5.830   4.378  18.172  0.00  0.00    +0.000 C 
BRANCH  19  20
ATOM     20  C   UNL     1       6.235   4.525  16.723  0.00  0.00    +0.000 A 
ATOM     21  C   UNL     1       5.620   3.781  15.706  0.00  0.00    +0.000 A 
ATOM     22  C   UNL     1       6.026   3.933  14.381  0.00  0.00    +0.000 A 
ATOM     23  C   UNL     1       7.036   4.840  14.104  0.00  0.00    +0.000 A 
ATOM     24  N   UNL     1       7.648   5.586  15.052  0.00  0.00    +0.000 NA
ATOM     25  C   UNL     1       7.236   5.408  16.328  0.00  0.00    +0.000 A 
ENDBRANCH  19  20
ENDBRANCH   7  19
TORSDOF 4
ENDMDL
MODEL 2
REMARK VINA RESULT:      -7.7      2.378      4.858
REMARK  Name = 
REMARK  4 active torsions:
REMARK  status: ('A' for Active; 'I' for Inactive)
REMARK    1  A    between atoms: C_2  and  C_10
REMARK    2  A    between atoms: N_3  and  C_4
REMARK    3  A    between atoms: N_16  and  C_17
REMARK    4  A    between atoms: C_17  and  C_18
REMARK                            x       y       z     vdW  Elec       q    Type
REMARK                         _______ _______ _______ _____ _____    ______ ____
ROOT
ATOM      1  C   UNL     1       4.334   5.969  17.723  0.00  0.00    +0.000 C 
ATOM      2  C   UNL     1       4.877   7.170  16.902  0.00  0.00    +0.000 C 
ATOM      3  O   UNL     1       5.514   6.759  15.690  0.00  0.00    +0.000 OA
ATOM      4  C   UNL     1       5.767   5.382  15.778  0.00  0.00    +0.000 C 
ATOM      5  C   UNL     1       4.857   4.827  16.864  0.00  0.00    +0.000 C 
ATOM      6  C   UNL     1       5.778   3.956  17.730  0.00  0.00    +0.000 C 
ATOM      7  N   UNL     1       5.367   4.113  19.111  0.00  0.00    +0.000 NA
ATOM      8  C   UNL     1       4.407   5.228  19.099  0.00  0.00    +0.000 C 
ENDROOT
BRANCH   1  10
ATOM      9  O   UNL     1       1.938   5.973  18.201  0.00  0.00    +0.000 OA
ATOM     10  C   UNL     1       2.957   6.627  17.999  0.00  0.00    +0.000 C 
ATOM     11  N   UNL     1       3.034   8.043  17.978  0.00  0.00    +0.000 N 
ATOM     12  H   UNL     1       3.936   8.504  17.873  0.00  0.00    +0.000 HD
BRANCH  11  13
ATOM     13  C   UNL     1       1.796   8.856  18.018  0.00  0.00    +0.000 C 
ATOM     14  C   UNL     1       1.198   9.144  19.427  0.00  0.00    +0.000 C 
ATOM     15  C   UNL     1       0.790  10.529  18.852  0.00  0.00    +0.000 C 
ATOM     16  F   UNL     1       0.830  11.567  19.716  0.00  0.00    +0.000 F 
ATOM     17  F   UNL     1      -0.416  10.570  18.240  0.00  0.00    +0.000 F 
ATOM     18  C   UNL     1       2.008  10.377  17.909  0.00  0.00    +0.000 C 
ENDBRANCH  11  13
ENDBRANCH   1  10
BRANCH   7  19
ATOM     19  C   UNL     1       4.801   2.846  19.630  0.00  0.00    +0.000 C 
BRANCH  19  20
ATOM     20  C   UNL     1       3.293   2.780  19.562  0.00  0.00    +0.000 A 
ATOM     21  C   UNL     1       2.489   3.128  20.656  0.00  0.00    +0.000 A 
ATOM     22  C   UNL     1       1.100   3.045  20.562  0.00  0.00    +0.000 A 
ATOM     23  C   UNL     1       0.548   2.624  19.363  0.00  0.00    +0.000 A 
ATOM     24  N   UNL     1       1.285   2.290  18.279  0.00  0.00    +0.000 NA
ATOM     25  C   UNL     1       2.630   2.375  18.407  0.00  0.00    +0.000 A 
ENDBRANCH  19  20
ENDBRANCH   7  19
TORSDOF 4
ENDMDL
MODEL 3
REMARK VINA RESULT:      -7.7      2.353      4.868
REMARK  Name = 
REMARK  4 active torsions:
REMARK  status: ('A' for Active; 'I' for Inactive)
REMARK    1  A    between atoms: C_2  and  C_10
REMARK    2  A    between atoms: N_3  and  C_4
REMARK    3  A    between atoms: N_16  and  C_17
REMARK    4  A    between atoms: C_17  and  C_18
REMARK                            x       y       z     vdW  Elec       q    Type
REMARK                         _______ _______ _______ _____ _____    ______ ____
ROOT
ATOM      1  C   UNL     1       4.291   5.956  17.869  0.00  0.00    +0.000 C 
ATOM      2  C   UNL     1       4.825   7.156  17.039  0.00  0.00    +0.000 C 
ATOM      3  O   UNL     1       5.286   6.762  15.745  0.00  0.00    +0.000 OA
ATOM      4  C   UNL     1       5.443   5.367  15.746  0.00  0.00    +0.000 C 
ATOM      5  C   UNL     1       4.625   4.825  16.908  0.00  0.00    +0.000 C 
ATOM      6  C   UNL     1       5.571   3.850  17.624  0.00  0.00    +0.000 C 
ATOM      7  N   UNL     1       5.334   3.967  19.049  0.00  0.00    +0.000 NA
ATOM      8  C   UNL     1       4.465   5.146  19.196  0.00  0.00    +0.000 C 
ENDROOT
BRANCH   1  10
ATOM      9  O   UNL     1       2.143   6.155  19.017  0.00  0.00    +0.000 OA
ATOM     10  C   UNL     1       3.007   6.695  18.332  0.00  0.00    +0.000 C 
ATOM     11  N   UNL     1       2.969   8.033  17.862  0.00  0.00    +0.000 N 
ATOM     12  H   UNL     1       3.764   8.419  17.358  0.00  0.00    +0.000 HD
BRANCH  11  13
ATOM     13  C   UNL     1       1.737   8.841  18.022  0.00  0.00    +0.000 C 
ATOM     14  C   UNL     1       1.274   9.121  19.484  0.00  0.00    +0.000 C 
ATOM     15  C   UNL     1       0.811  10.507  18.957  0.00  0.00    +0.000 C 
ATOM     16  F   UNL     1       0.929  11.540  19.819  0.00  0.00    +0.000 F 
ATOM     17  F   UNL     1      -0.448  10.547  18.462  0.00  0.00    +0.000 F 
ATOM     18  C   UNL     1       1.935  10.364  17.902  0.00  0.00    +0.000 C 
ENDBRANCH  11  13
ENDBRANCH   1  10
BRANCH   7  19
ATOM     19  C   UNL     1       4.738   2.719  19.579  0.00  0.00    +0.000 C 
BRANCH  19  20
ATOM     20  C   UNL     1       3.236   2.779  19.733  0.00  0.00    +0.000 A 
ATOM     21  C   UNL     1       2.373   2.503  18.664  0.00  0.00    +0.000 A 
ATOM     22  C   UNL     1       0.992   2.579  18.839  0.00  0.00    +0.000 A 
ATOM     23  C   UNL     1       0.506   2.920  20.091  0.00  0.00    +0.000 A 
ATOM     24  N   UNL     1       1.302   3.182  21.153  0.00  0.00    +0.000 NA
ATOM     25  C   UNL     1       2.637   3.107  20.947  0.00  0.00    +0.000 A 
ENDBRANCH  19  20
ENDBRANCH   7  19
TORSDOF 4
ENDMDL
MODEL 4
REMARK VINA RESULT:      -7.6      1.401      1.865
REMARK  Name = 
REMARK  4 active torsions:
REMARK  status: ('A' for Active; 'I' for Inactive)
REMARK    1  A    between atoms: C_2  and  C_10
REMARK    2  A    between atoms: N_3  and  C_4
REMARK    3  A    between atoms: N_16  and  C_17
REMARK    4  A    between atoms: C_17  and  C_18
REMARK                            x       y       z     vdW  Elec       q    Type
REMARK                         _______ _______ _______ _____ _____    ______ ____
ROOT
ATOM      1  C   UNL     1       2.554   4.791  19.373  0.00  0.00    +0.000 C 
ATOM      2  C   UNL     1       1.418   4.632  20.421  0.00  0.00    +0.000 C 
ATOM      3  O   UNL     1       1.736   3.669  21.428  0.00  0.00    +0.000 OA
ATOM      4  C   UNL     1       2.821   2.905  20.971  0.00  0.00    +0.000 C 
ATOM      5  C   UNL     1       3.496   3.702  19.865  0.00  0.00    +0.000 C 
ATOM      6  C   UNL     1       3.696   2.690  18.728  0.00  0.00    +0.000 C 
ATOM      7  N   UNL     1       3.472   3.382  17.474  0.00  0.00    +0.000 NA
ATOM      8  C   UNL     1       2.909   4.688  17.854  0.00  0.00    +0.000 C 
ENDROOT
BRANCH   1  10
ATOM      9  O   UNL     1       3.159   7.031  18.607  0.00  0.00    +0.000 OA
ATOM     10  C   UNL     1       2.520   6.342  19.397  0.00  0.00    +0.000 C 
ATOM     11  N   UNL     1       1.683   6.837  20.430  0.00  0.00    +0.000 N 
ATOM     12  H   UNL     1       1.135   6.192  20.995  0.00  0.00    +0.000 HD
BRANCH  11  13
ATOM     13  C   UNL     1       1.673   8.284  20.750  0.00  0.00    +0.000 C 
ATOM     14  C   UNL     1       0.955   9.217  19.729  0.00  0.00    +0.000 C 
ATOM     15  C   UNL     1       0.518  10.052  20.964  0.00  0.00    +0.000 C 
ATOM     16  F   UNL     1      -0.699  10.633  20.888  0.00  0.00    +0.000 F 
ATOM     17  F   UNL     1       1.390  11.010  21.353  0.00  0.00    +0.000 F 
ATOM     18  C   UNL     1       0.594   8.724  21.756  0.00  0.00    +0.000 C 
ENDBRANCH  11  13
ENDBRANCH   1  10
BRANCH   7  19
ATOM     19  C   UNL     1       4.732   3.478  16.702  0.00  0.00    +0.000 C 
BRANCH  19  20
ATOM     20  C   UNL     1       5.544   4.714  17.015  0.00  0.00    +0.000 A 
ATOM     21  C   UNL     1       6.439   4.755  18.092  0.00  0.00    +0.000 A 
ATOM     22  C   UNL     1       7.165   5.916  18.358  0.00  0.00    +0.000 A 
ATOM     23  C   UNL     1       6.983   7.009  17.526  0.00  0.00    +0.000 A 
ATOM     24  N   UNL     1       6.139   7.008  16.469  0.00  0.00    +0.000 NA
ATOM     25  C   UNL     1       5.445   5.869  16.244  0.00  0.00    +0.000 A 
ENDBRANCH  19  20
ENDBRANCH   7  19
TORSDOF 4
ENDMDL
MODEL 5
REMARK VINA RESULT:      -7.6      5.296      8.082
REMARK  Name = 
REMARK  4 active torsions:
REMARK  status: ('A' for Active; 'I' for Inactive)
REMARK    1  A    between atoms: C_2  and  C_10
REMARK    2  A    between atoms: N_3  and  C_4
REMARK    3  A    between atoms: N_16  and  C_17
REMARK    4  A    between atoms: C_17  and  C_18
REMARK                            x       y       z     vdW  Elec       q    Type
REMARK                         _______ _______ _______ _____ _____    ______ ____
ROOT
ATOM      1  C   UNL     1       6.130   6.337  17.348  0.00  0.00    +0.000 C 
ATOM      2  C   UNL     1       6.759   7.752  17.219  0.00  0.00    +0.000 C 
ATOM      3  O   UNL     1       8.035   7.841  17.856  0.00  0.00    +0.000 OA
ATOM      4  C   UNL     1       8.176   6.732  18.704  0.00  0.00    +0.000 C 
ATOM      5  C   UNL     1       7.173   5.685  18.242  0.00  0.00    +0.000 C 
ATOM      6  C   UNL     1       6.480   5.221  19.532  0.00  0.00    +0.000 C 
ATOM      7  N   UNL     1       5.082   4.988  19.224  0.00  0.00    +0.000 NA
ATOM      8  C   UNL     1       4.893   5.535  17.871  0.00  0.00    +0.000 C 
ENDROOT
BRANCH   1  10
ATOM      9  O   UNL     1       4.995   7.086  15.317  0.00  0.00    +0.000 OA
ATOM     10  C   UNL     1       5.721   6.253  15.853  0.00  0.00    +0.000 C 
ATOM     11  N   UNL     1       6.277   5.114  15.216  0.00  0.00    +0.000 N 
ATOM     12  H   UNL     1       6.926   4.514  15.720  0.00  0.00    +0.000 HD
BRANCH  11  13
ATOM     13  C   UNL     1       5.845   4.743  13.848  0.00  0.00    +0.000 C 
ATOM     14  C   UNL     1       6.970   4.328  12.852  0.00  0.00    +0.000 C 
ATOM     15  C   UNL     1       5.938   3.319  12.276  0.00  0.00    +0.000 C 
ATOM     16  F   UNL     1       6.439   2.146  11.831  0.00  0.00    +0.000 F 
ATOM     17  F   UNL     1       5.136   3.803  11.300  0.00  0.00    +0.000 F 
ATOM     18  C   UNL     1       5.320   3.304  13.696  0.00  0.00    +0.000 C 
ENDBRANCH  11  13
ENDBRANCH   1  10
BRANCH   7  19
ATOM     19  C   UNL     1       4.761   3.546  19.334  0.00  0.00    +0.000 C 
BRANCH  19  20
ATOM     20  C   UNL     1       3.279   3.249  19.310  0.00  0.00    +0.000 A 
ATOM     21  C   UNL     1       2.446   3.569  20.391  0.00  0.00    +0.000 A 
ATOM     22  C   UNL     1       1.085   3.271  20.340  0.00  0.00    +0.000 A 
ATOM     23  C   UNL     1       0.587   2.667  19.196  0.00  0.00    +0.000 A 
ATOM     24  N   UNL     1       1.353   2.353  18.127  0.00  0.00    +0.000 NA
ATOM     25  C   UNL     1       2.671   2.648  18.212  0.00  0.00    +0.000 A 
ENDBRANCH  19  20
ENDBRANCH   7  19
TORSDOF 4
ENDMDL
MODEL 6
REMARK VINA RESULT:      -7.5      5.249      8.199
REMARK  Name = 
REMARK  4 active torsions:
REMARK  status: ('A' for Active; 'I' for Inactive)
REMARK    1  A    between atoms: C_2  and  C_10
REMARK    2  A    between atoms: N_3  and  C_4
REMARK    3  A    between atoms: N_16  and  C_17
REMARK    4  A    between atoms: C_17  and  C_18
REMARK                            x       y       z     vdW  Elec       q    Type
REMARK                         _______ _______ _______ _____ _____    ______ ____
ROOT
ATOM      1  C   UNL     1       6.195   6.392  17.351  0.00  0.00    +0.000 C 
ATOM      2  C   UNL     1       6.833   7.802  17.215  0.00  0.00    +0.000 C 
ATOM      3  O   UNL     1       8.096   7.896  17.875  0.00  0.00    +0.000 OA
ATOM      4  C   UNL     1       8.216   6.798  18.741  0.00  0.00    +0.000 C 
ATOM      5  C   UNL     1       7.219   5.748  18.275  0.00  0.00    +0.000 C 
ATOM      6  C   UNL     1       6.499   5.305  19.557  0.00  0.00    +0.000 C 
ATOM      7  N   UNL     1       5.107   5.073  19.225  0.00  0.00    +0.000 NA
ATOM      8  C   UNL     1       4.945   5.602  17.861  0.00  0.00    +0.000 C 
ENDROOT
BRANCH   1  10
ATOM      9  O   UNL     1       4.969   7.011  15.330  0.00  0.00    +0.000 OA
ATOM     10  C   UNL     1       5.815   6.289  15.850  0.00  0.00    +0.000 C 
ATOM     11  N   UNL     1       6.550   5.273  15.188  0.00  0.00    +0.000 N 
ATOM     12  H   UNL     1       7.284   4.768  15.681  0.00  0.00    +0.000 HD
BRANCH  11  13
ATOM     13  C   UNL     1       6.192   4.879  13.805  0.00  0.00    +0.000 C 
ATOM     14  C   UNL     1       7.368   4.763  12.788  0.00  0.00    +0.000 C 
ATOM     15  C   UNL     1       6.573   3.581  12.168  0.00  0.00    +0.000 C 
ATOM     16  F   UNL     1       7.311   2.566  11.667  0.00  0.00    +0.000 F 
ATOM     17  F   UNL     1       5.673   3.923  11.217  0.00  0.00    +0.000 F 
ATOM     18  C   UNL     1       5.990   3.368  13.587  0.00  0.00    +0.000 C 
ENDBRANCH  11  13
ENDBRANCH   1  10
BRANCH   7  19
ATOM     19  C   UNL     1       4.777   3.635  19.349  0.00  0.00    +0.000 C 
BRANCH  19  20
ATOM     20  C   UNL     1       3.297   3.358  19.478  0.00  0.00    +0.000 A 
ATOM     21  C   UNL     1       2.619   2.534  18.570  0.00  0.00    +0.000 A 
ATOM     22  C   UNL     1       1.250   2.309  18.713  0.00  0.00    +0.000 A 
ATOM     23  C   UNL     1       0.593   2.910  19.774  0.00  0.00    +0.000 A 
ATOM     24  N   UNL     1       1.210   3.702  20.680  0.00  0.00    +0.000 NA
ATOM     25  C   UNL     1       2.537   3.906  20.508  0.00  0.00    +0.000 A 
ENDBRANCH  19  20
ENDBRANCH   7  19
TORSDOF 4
ENDMDL
MODEL 7
REMARK VINA RESULT:      -7.5      3.938      7.739
REMARK  Name = 
REMARK  4 active torsions:
REMARK  status: ('A' for Active; 'I' for Inactive)
REMARK    1  A    between atoms: C_2  and  C_10
REMARK    2  A    between atoms: N_3  and  C_4
REMARK    3  A    between atoms: N_16  and  C_17
REMARK    4  A    between atoms: C_17  and  C_18
REMARK                            x       y       z     vdW  Elec       q    Type
REMARK                         _______ _______ _______ _____ _____    ______ ____
ROOT
ATOM      1  C   UNL     1       2.818   4.416  19.143  0.00  0.00    +0.000 C 
ATOM      2  C   UNL     1       3.282   3.063  19.749  0.00  0.00    +0.000 C 
ATOM      3  O   UNL     1       2.323   2.513  20.653  0.00  0.00    +0.000 OA
ATOM      4  C   UNL     1       1.413   3.526  20.991  0.00  0.00    +0.000 C 
ATOM      5  C   UNL     1       1.525   4.603  19.922  0.00  0.00    +0.000 C 
ATOM      6  C   UNL     1       1.623   5.918  20.710  0.00  0.00    +0.000 C 
ATOM      7  N   UNL     1       2.548   6.786  20.009  0.00  0.00    +0.000 NA
ATOM      8  C   UNL     1       3.174   5.931  18.987  0.00  0.00    +0.000 C 
ENDROOT
BRANCH   1  10
ATOM      9  O   UNL     1       2.489   3.355  16.967  0.00  0.00    +0.000 OA
ATOM     10  C   UNL     1       3.210   4.037  17.691  0.00  0.00    +0.000 C 
ATOM     11  N   UNL     1       4.477   4.562  17.330  0.00  0.00    +0.000 N 
ATOM     12  H   UNL     1       4.975   5.177  17.970  0.00  0.00    +0.000 HD
BRANCH  11  13
ATOM     13  C   UNL     1       5.121   4.146  16.062  0.00  0.00    +0.000 C 
ATOM     14  C   UNL     1       5.310   5.253  14.982  0.00  0.00    +0.000 C 
ATOM     15  C   UNL     1       6.638   4.528  14.626  0.00  0.00    +0.000 C 
ATOM     16  F   UNL     1       7.660   5.317  14.233  0.00  0.00    +0.000 F 
ATOM     17  F   UNL     1       6.528   3.536  13.712  0.00  0.00    +0.000 F 
ATOM     18  C   UNL     1       6.658   4.067  16.104  0.00  0.00    +0.000 C 
ENDBRANCH  11  13
ENDBRANCH   1  10
BRANCH   7  19
ATOM     19  C   UNL     1       1.837   7.959  19.450  0.00  0.00    +0.000 C 
BRANCH  19  20
ATOM     20  C   UNL     1       1.140   8.802  20.493  0.00  0.00    +0.000 A 
ATOM     21  C   UNL     1       0.116   9.697  20.154  0.00  0.00    +0.000 A 
ATOM     22  C   UNL     1      -0.498  10.467  21.141  0.00  0.00    +0.000 A 
ATOM     23  C   UNL     1      -0.077  10.312  22.451  0.00  0.00    +0.000 A 
ATOM     24  N   UNL     1       0.898   9.452  22.824  0.00  0.00    +0.000 NA
ATOM     25  C   UNL     1       1.479   8.726  21.841  0.00  0.00    +0.000 A 
ENDBRANCH  19  20
ENDBRANCH   7  19
TORSDOF 4
ENDMDL
MODEL 8
REMARK VINA RESULT:      -7.5      5.513      8.390
REMARK  Name = 
REMARK  4 active torsions:
REMARK  status: ('A' for Active; 'I' for Inactive)
REMARK    1  A    between atoms: C_2  and  C_10
REMARK    2  A    between atoms: N_3  and  C_4
REMARK    3  A    between atoms: N_16  and  C_17
REMARK    4  A    between atoms: C_17  and  C_18
REMARK                            x       y       z     vdW  Elec       q    Type
REMARK                         _______ _______ _______ _____ _____    ______ ____
ROOT
ATOM      1  C   UNL     1       6.523   5.682  17.093  0.00  0.00    +0.000 C 
ATOM      2  C   UNL     1       7.287   7.034  17.066  0.00  0.00    +0.000 C 
ATOM      3  O   UNL     1       8.196   7.168  18.160  0.00  0.00    +0.000 OA
ATOM      4  C   UNL     1       7.869   6.196  19.118  0.00  0.00    +0.000 C 
ATOM      5  C   UNL     1       7.042   5.132  18.413  0.00  0.00    +0.000 C 
ATOM      6  C   UNL     1       5.842   4.898  19.342  0.00  0.00    +0.000 C 
ATOM      7  N   UNL     1       4.675   4.677  18.512  0.00  0.00    +0.000 NA
ATOM      8  C   UNL     1       5.107   5.019  17.147  0.00  0.00    +0.000 C 
ENDROOT
BRANCH   1  10
ATOM      9  O   UNL     1       7.756   5.753  14.985  0.00  0.00    +0.000 OA
ATOM     10  C   UNL     1       6.750   5.388  15.586  0.00  0.00    +0.000 C 
ATOM     11  N   UNL     1       5.666   4.670  15.018  0.00  0.00    +0.000 N 
ATOM     12  H   UNL     1       4.903   4.347  15.609  0.00  0.00    +0.000 HD
BRANCH  11  13
ATOM     13  C   UNL     1       5.595   4.469  13.552  0.00  0.00    +0.000 C 
ATOM     14  C   UNL     1       6.719   3.598  12.915  0.00  0.00    +0.000 C 
ATOM     15  C   UNL     1       5.621   3.086  11.941  0.00  0.00    +0.000 C 
ATOM     16  F   UNL     1       5.729   1.798  11.548  0.00  0.00    +0.000 F 
ATOM     17  F   UNL     1       5.446   3.828  10.823  0.00  0.00    +0.000 F 
ATOM     18  C   UNL     1       4.622   3.370  13.089  0.00  0.00    +0.000 C 
ENDBRANCH  11  13
ENDBRANCH   1  10
BRANCH   7  19
ATOM     19  C   UNL     1       4.195   3.283  18.653  0.00  0.00    +0.000 C 
BRANCH  19  20
ATOM     20  C   UNL     1       3.132   3.110  19.714  0.00  0.00    +0.000 A 
ATOM     21  C   UNL     1       1.791   3.442  19.475  0.00  0.00    +0.000 A 
ATOM     22  C   UNL     1       0.838   3.280  20.480  0.00  0.00    +0.000 A 
ATOM     23  C   UNL     1       1.253   2.774  21.702  0.00  0.00    +0.000 A 
ATOM     24  N   UNL     1       2.533   2.429  21.971  0.00  0.00    +0.000 NA
ATOM     25  C   UNL     1       3.433   2.607  20.976  0.00  0.00    +0.000 A 
ENDBRANCH  19  20
ENDBRANCH   7  19
TORSDOF 4
ENDMDL
MODEL 9
REMARK VINA RESULT:      -7.5      3.917      7.695
REMARK  Name = 
REMARK  4 active torsions:
REMARK  status: ('A' for Active; 'I' for Inactive)
REMARK    1  A    between atoms: C_2  and  C_10
REMARK    2  A    between atoms: N_3  and  C_4
REMARK    3  A    between atoms: N_16  and  C_17
REMARK    4  A    between atoms: C_17  and  C_18
REMARK                            x       y       z     vdW  Elec       q    Type
REMARK                         _______ _______ _______ _____ _____    ______ ____
ROOT
ATOM      1  C   UNL     1       3.258   4.224  19.529  0.00  0.00    +0.000 C 
ATOM      2  C   UNL     1       3.329   2.762  20.051  0.00  0.00    +0.000 C 
ATOM      3  O   UNL     1       2.073   2.088  19.956  0.00  0.00    +0.000 OA
ATOM      4  C   UNL     1       1.076   3.053  19.751  0.00  0.00    +0.000 C 
ATOM      5  C   UNL     1       1.766   4.309  19.241  0.00  0.00    +0.000 C 
ATOM      6  C   UNL     1       1.176   5.445  20.091  0.00  0.00    +0.000 C 
ATOM      7  N   UNL     1       2.239   6.393  20.362  0.00  0.00    +0.000 NA
ATOM      8  C   UNL     1       3.471   5.726  19.912  0.00  0.00    +0.000 C 
ENDROOT
BRANCH   1  10
ATOM      9  O   UNL     1       5.585   3.597  19.125  0.00  0.00    +0.000 OA
ATOM     10  C   UNL     1       4.559   4.114  18.691  0.00  0.00    +0.000 C 
ATOM     11  N   UNL     1       4.407   4.683  17.401  0.00  0.00    +0.000 N 
ATOM     12  H   UNL     1       3.498   5.028  17.100  0.00  0.00    +0.000 HD
BRANCH  11  13
ATOM     13  C   UNL     1       5.587   4.861  16.523  0.00  0.00    +0.000 C 
ATOM     14  C   UNL     1       6.007   3.630  15.665  0.00  0.00    +0.000 C 
ATOM     15  C   UNL     1       6.401   4.662  14.572  0.00  0.00    +0.000 C 
ATOM     16  F   UNL     1       6.209   4.275  13.292  0.00  0.00    +0.000 F 
ATOM     17  F   UNL     1       7.664   5.140  14.656  0.00  0.00    +0.000 F 
ATOM     18  C   UNL     1       5.306   5.569  15.185  0.00  0.00    +0.000 C 
ENDBRANCH  11  13
ENDBRANCH   1  10
BRANCH   7  19
ATOM     19  C   UNL     1       1.973   7.678  19.676  0.00  0.00    +0.000 C 
BRANCH  19  20
ATOM     20  C   UNL     1       1.188   8.664  20.512  0.00  0.00    +0.000 A 
ATOM     21  C   UNL     1       1.079   8.529  21.903  0.00  0.00    +0.000 A 
ATOM     22  C   UNL     1       0.338   9.450  22.642  0.00  0.00    +0.000 A 
ATOM     23  C   UNL     1      -0.270  10.496  21.966  0.00  0.00    +0.000 A 
ATOM     24  N   UNL     1      -0.182  10.670  20.628  0.00  0.00    +0.000 NA
ATOM     25  C   UNL     1       0.539   9.754  19.940  0.00  0.00    +0.000 A 
ENDBRANCH  19  20
ENDBRANCH   7  19
TORSDOF 4
ENDMDL
