MODEL 1
REMARK VINA RESULT:      -7.0      0.000      0.000
REMARK  Name = 
REMARK  11 active torsions:
REMARK  status: ('A' for Active; 'I' for Inactive)
REMARK    1  A    between atoms: C_1  and  C_2
REMARK    2  A    between atoms: C_2  and  C_3
REMARK    3  A    between atoms: C_2  and  C_4
REMARK    4  A    between atoms: C_4  and  N_5
REMARK    5  A    between atoms: N_5  and  S_6
REMARK    6  A    between atoms: S_6  and  C_9
REMARK    7  A    between atoms: C_11  and  C_12
REMARK    8  A    between atoms: C_14  and  C_15
REMARK    9  A    between atoms: C_15  and  C_16
REMARK   10  A    between atoms: C_15  and  C_17
REMARK   11  A    between atoms: C_15  and  C_18
REMARK                            x       y       z     vdW  Elec       q    Type
REMARK                         _______ _______ _______ _____ _____    ______ ____
ROOT
ATOM      1  C   UNL     1       5.192   4.965  16.975  0.00  0.00    +0.000 A 
ATOM      2  C   UNL     1       4.612   6.088  17.536  0.00  0.00    +0.000 A 
ATOM      3  C   UNL     1       3.427   5.785  18.277  0.00  0.00    +0.000 A 
ATOM      4  C   UNL     1       3.126   4.441  18.214  0.00  0.00    +0.000 A 
ATOM      5  S   UNL     1       4.264   3.564  17.281  0.00  0.00    +0.000 S 
ENDROOT
BRANCH   3   6
ATOM      6  C   UNL     1       2.616   6.797  19.040  0.00  0.00    +0.000 A 
ATOM      7  N   UNL     1       2.341   7.982  18.525  0.00  0.00    +0.000 NA
ATOM      8  C   UNL     1       1.571   8.736  19.408  0.00  0.00    +0.000 A 
ATOM      9  C   UNL     1       1.318   8.104  20.612  0.00  0.00    +0.000 A 
ATOM     10  S   UNL     1       1.987   6.531  20.614  0.00  0.00    +0.000 S 
BRANCH   8  11
ATOM     11  C   UNL     1       1.057  10.105  18.982  0.00  0.00    +0.000 C 
ATOM     12  C   UNL     1       0.828  11.025  20.198  0.00  0.00    +0.000 C 
ATOM     13  C   UNL     1       2.096  10.778  18.060  0.00  0.00    +0.000 C 
ATOM     14  C   UNL     1      -0.278   9.981  18.220  0.00  0.00    +0.000 C 
ENDBRANCH   8  11
ENDBRANCH   3   6
BRANCH   1  15
ATOM     15  S   UNL     1       6.710   4.766  16.051  0.00  0.00    +0.000 S 
ATOM     16  O   UNL     1       7.723   4.272  16.954  0.00  0.00    +0.000 OA
ATOM     17  O   UNL     1       6.841   6.024  15.348  0.00  0.00    +0.000 OA
BRANCH  15  18
ATOM     18  N   UNL     1       6.395   3.585  14.877  0.00  0.00    +0.000 NA
ATOM     19  H   UNL     1       7.269   3.158  14.573  0.00  0.00    +0.000 HD
BRANCH  18  20
ATOM     20  C   UNL     1       5.476   3.976  13.794  0.00  0.00    +0.000 C 
BRANCH  20  22
ATOM     21  C   UNL     1       4.608   3.268  11.557  0.00  0.00    +0.000 C 
ATOM     22  C   UNL     1       5.823   3.245  12.488  0.00  0.00    +0.000 C 
ATOM     23  C   UNL     1       7.028   3.864  11.773  0.00  0.00    +0.000 C 
ENDBRANCH  20  22
ENDBRANCH  18  20
ENDBRANCH  15  18
ENDBRANCH   1  15
TORSDOF 6
ENDMDL
MODEL 2
REMARK VINA RESULT:      -6.9      2.204      3.231
REMARK  Name = 
REMARK  11 active torsions:
REMARK  status: ('A' for Active; 'I' for Inactive)
REMARK    1  A    between atoms: C_1  and  C_2
REMARK    2  A    between atoms: C_2  and  C_3
REMARK    3  A    between atoms: C_2  and  C_4
REMARK    4  A    between atoms: C_4  and  N_5
REMARK    5  A    between atoms: N_5  and  S_6
REMARK    6  A    between atoms: S_6  and  C_9
REMARK    7  A    between atoms: C_11  and  C_12
REMARK    8  A    between atoms: C_14  and  C_15
REMARK    9  A    between atoms: C_15  and  C_16
REMARK   10  A    between atoms: C_15  and  C_17
REMARK   11  A    between atoms: C_15  and  C_18
REMARK                            x       y       z     vdW  Elec       q    Type
REMARK                         _______ _______ _______ _____ _____    ______ ____
ROOT
ATOM      1  C   UNL     1       3.678   4.980  19.484  0.00  0.00    +0.000 A 
ATOM      2  C   UNL     1       3.392   6.249  19.014  0.00  0.00    +0.000 A 
ATOM      3  C   UNL     1       2.265   6.839  19.667  0.00  0.00    +0.000 A 
ATOM      4  C   UNL     1       1.707   5.973  20.584  0.00  0.00    +0.000 A 
ATOM      5  S   UNL     1       2.541   4.478  20.657  0.00  0.00    +0.000 S 
ENDROOT
BRANCH   3   6
ATOM      6  C   UNL     1       1.757   8.230  19.401  0.00  0.00    +0.000 A 
ATOM      7  N   UNL     1       1.101   8.907  20.326  0.00  0.00    +0.000 NA
ATOM      8  C   UNL     1       0.746  10.169  19.854  0.00  0.00    +0.000 A 
ATOM      9  C   UNL     1       1.113  10.400  18.540  0.00  0.00    +0.000 A 
ATOM     10  S   UNL     1       1.967   9.058  17.913  0.00  0.00    +0.000 S 
BRANCH   8  11
ATOM     11  C   UNL     1       0.060  11.159  20.786  0.00  0.00    +0.000 C 
ATOM     12  C   UNL     1       0.906  12.434  20.977  0.00  0.00    +0.000 C 
ATOM     13  C   UNL     1      -1.300  11.571  20.184  0.00  0.00    +0.000 C 
ATOM     14  C   UNL     1      -0.180  10.533  22.175  0.00  0.00    +0.000 C 
ENDBRANCH   8  11
ENDBRANCH   3   6
BRANCH   1  15
ATOM     15  S   UNL     1       5.011   3.855  19.092  0.00  0.00    +0.000 S 
ATOM     16  O   UNL     1       4.791   2.628  19.822  0.00  0.00    +0.000 OA
ATOM     17  O   UNL     1       6.196   4.665  19.271  0.00  0.00    +0.000 OA
BRANCH  15  18
ATOM     18  N   UNL     1       4.886   3.538  17.432  0.00  0.00    +0.000 NA
ATOM     19  H   UNL     1       4.553   2.585  17.286  0.00  0.00    +0.000 HD
BRANCH  18  20
ATOM     20  C   UNL     1       6.041   3.934  16.607  0.00  0.00    +0.000 C 
BRANCH  20  22
ATOM     21  C   UNL     1       5.243   6.176  15.837  0.00  0.00    +0.000 C 
ATOM     22  C   UNL     1       5.590   4.753  15.388  0.00  0.00    +0.000 C 
ATOM     23  C   UNL     1       6.658   4.808  14.292  0.00  0.00    +0.000 C 
ENDBRANCH  20  22
ENDBRANCH  18  20
ENDBRANCH  15  18
ENDBRANCH   1  15
TORSDOF 6
ENDMDL
MODEL 3
REMARK VINA RESULT:      -6.9      1.496      2.052
REMARK  Name = 
REMARK  11 active torsions:
REMARK  status: ('A' for Active; 'I' for Inactive)
REMARK    1  A    between atoms: C_1  and  C_2
REMARK    2  A    between atoms: C_2  and  C_3
REMARK    3  A    between atoms: C_2  and  C_4
REMARK    4  A    between atoms: C_4  and  N_5
REMARK    5  A    between atoms: N_5  and  S_6
REMARK    6  A    between atoms: S_6  and  C_9
REMARK    7  A    between atoms: C_11  and  C_12
REMARK    8  A    between atoms: C_14  and  C_15
REMARK    9  A    between atoms: C_15  and  C_16
REMARK   10  A    between atoms: C_15  and  C_17
REMARK   11  A    between atoms: C_15  and  C_18
REMARK                            x       y       z     vdW  Elec       q    Type
REMARK                         _______ _______ _______ _____ _____    ______ ____
ROOT
ATOM      1  C   UNL     1       5.204   5.808  17.325  0.00  0.00    +0.000 A 
ATOM      2  C   UNL     1       4.434   6.949  17.457  0.00  0.00    +0.000 A 
ATOM      3  C   UNL     1       3.352   6.781  18.377  0.00  0.00    +0.000 A 
ATOM      4  C   UNL     1       3.315   5.497  18.879  0.00  0.00    +0.000 A 
ATOM      5  S   UNL     1       4.574   4.519  18.253  0.00  0.00    +0.000 S 
ENDROOT
BRANCH   3   6
ATOM      6  C   UNL     1       2.384   7.867  18.762  0.00  0.00    +0.000 A 
ATOM      7  N   UNL     1       1.892   7.942  19.985  0.00  0.00    +0.000 NA
ATOM      8  C   UNL     1       1.032   9.033  20.104  0.00  0.00    +0.000 A 
ATOM      9  C   UNL     1       0.860   9.741  18.928  0.00  0.00    +0.000 A 
ATOM     10  S   UNL     1       1.831   9.083  17.684  0.00  0.00    +0.000 S 
BRANCH   8  11
ATOM     11  C   UNL     1       0.420   9.368  21.457  0.00  0.00    +0.000 C 
ATOM     12  C   UNL     1      -0.708   8.383  21.826  0.00  0.00    +0.000 C 
ATOM     13  C   UNL     1       1.509   9.282  22.547  0.00  0.00    +0.000 C 
ATOM     14  C   UNL     1      -0.172  10.792  21.457  0.00  0.00    +0.000 C 
ENDBRANCH   8  11
ENDBRANCH   3   6
BRANCH   1  15
ATOM     15  S   UNL     1       6.703   5.504  16.399  0.00  0.00    +0.000 S 
ATOM     16  O   UNL     1       7.292   4.279  16.890  0.00  0.00    +0.000 OA
ATOM     17  O   UNL     1       7.394   6.774  16.454  0.00  0.00    +0.000 OA
BRANCH  15  18
ATOM     18  N   UNL     1       6.226   5.280  14.789  0.00  0.00    +0.000 NA
ATOM     19  H   UNL     1       5.609   6.039  14.502  0.00  0.00    +0.000 HD
BRANCH  18  20
ATOM     20  C   UNL     1       5.765   3.926  14.433  0.00  0.00    +0.000 C 
BRANCH  20  22
ATOM     21  C   UNL     1       4.942   3.546  12.100  0.00  0.00    +0.000 C 
ATOM     22  C   UNL     1       6.182   3.564  12.999  0.00  0.00    +0.000 C 
ATOM     23  C   UNL     1       7.216   4.537  12.426  0.00  0.00    +0.000 C 
ENDBRANCH  20  22
ENDBRANCH  18  20
ENDBRANCH  15  18
ENDBRANCH   1  15
TORSDOF 6
ENDMDL
MODEL 4
REMARK VINA RESULT:      -6.8      3.240      4.121
REMARK  Name = 
REMARK  11 active torsions:
REMARK  status: ('A' for Active; 'I' for Inactive)
REMARK    1  A    between atoms: C_1  and  C_2
REMARK    2  A    between atoms: C_2  and  C_3
REMARK    3  A    between atoms: C_2  and  C_4
REMARK    4  A    between atoms: C_4  and  N_5
REMARK    5  A    between atoms: N_5  and  S_6
REMARK    6  A    between atoms: S_6  and  C_9
REMARK    7  A    between atoms: C_11  and  C_12
REMARK    8  A    between atoms: C_14  and  C_15
REMARK    9  A    between atoms: C_15  and  C_16
REMARK   10  A    between atoms: C_15  and  C_17
REMARK   11  A    between atoms: C_15  and  C_18
REMARK                            x       y       z     vdW  Elec       q    Type
REMARK                         _______ _______ _______ _____ _____    ______ ____
ROOT
ATOM      1  C   UNL     1       3.264   4.563  19.386  0.00  0.00    +0.000 A 
ATOM      2  C   UNL     1       3.040   5.817  18.847  0.00  0.00    +0.000 A 
ATOM      3  C   UNL     1       2.177   6.619  19.657  0.00  0.00    +0.000 A 
ATOM      4  C   UNL     1       1.740   5.925  20.765  0.00  0.00    +0.000 A 
ATOM      5  S   UNL     1       2.373   4.334  20.825  0.00  0.00    +0.000 S 
ENDROOT
BRANCH   3   6
ATOM      6  C   UNL     1       1.802   8.044  19.351  0.00  0.00    +0.000 A 
ATOM      7  N   UNL     1       1.120   8.773  20.217  0.00  0.00    +0.000 NA
ATOM      8  C   UNL     1       0.905  10.056  19.718  0.00  0.00    +0.000 A 
ATOM      9  C   UNL     1       1.400  10.252  18.441  0.00  0.00    +0.000 A 
ATOM     10  S   UNL     1       2.201   8.847  17.888  0.00  0.00    +0.000 S 
BRANCH   8  11
ATOM     11  C   UNL     1       0.218  11.099  20.589  0.00  0.00    +0.000 C 
ATOM     12  C   UNL     1      -0.065  10.556  22.004  0.00  0.00    +0.000 C 
ATOM     13  C   UNL     1       1.131  12.336  20.723  0.00  0.00    +0.000 C 
ATOM     14  C   UNL     1      -1.125  11.537  19.969  0.00  0.00    +0.000 C 
ENDBRANCH   8  11
ENDBRANCH   3   6
BRANCH   1  15
ATOM     15  S   UNL     1       4.319   3.224  18.845  0.00  0.00    +0.000 S 
ATOM     16  O   UNL     1       4.017   2.948  17.459  0.00  0.00    +0.000 OA
ATOM     17  O   UNL     1       4.162   2.233  19.887  0.00  0.00    +0.000 OA
BRANCH  15  18
ATOM     18  N   UNL     1       5.908   3.801  18.958  0.00  0.00    +0.000 NA
ATOM     19  H   UNL     1       6.079   4.164  19.895  0.00  0.00    +0.000 HD
BRANCH  18  20
ATOM     20  C   UNL     1       6.363   4.668  17.856  0.00  0.00    +0.000 C 
BRANCH  20  22
ATOM     21  C   UNL     1       7.993   5.786  19.389  0.00  0.00    +0.000 C 
ATOM     22  C   UNL     1       6.857   6.021  18.390  0.00  0.00    +0.000 C 
ATOM     23  C   UNL     1       7.341   6.950  17.273  0.00  0.00    +0.000 C 
ENDBRANCH  20  22
ENDBRANCH  18  20
ENDBRANCH  15  18
ENDBRANCH   1  15
TORSDOF 6
ENDMDL
MODEL 5
REMARK VINA RESULT:      -6.8      0.745      1.128
REMARK  Name = 
REMARK  11 active torsions:
REMARK  status: ('A' for Active; 'I' for Inactive)
REMARK    1  A    between atoms: C_1  and  C_2
REMARK    2  A    between atoms: C_2  and  C_3
REMARK    3  A    between atoms: C_2  and  C_4
REMARK    4  A    between atoms: C_4  and  N_5
REMARK    5  A    between atoms: N_5  and  S_6
REMARK    6  A    between atoms: S_6  and  C_9
REMARK    7  A    between atoms: C_11  and  C_12
REMARK    8  A    between atoms: C_14  and  C_15
REMARK    9  A    between atoms: C_15  and  C_16
REMARK   10  A    between atoms: C_15  and  C_17
REMARK   11  A    between atoms: C_15  and  C_18
REMARK                            x       y       z     vdW  Elec       q    Type
REMARK                         _______ _______ _______ _____ _____    ______ ____
ROOT
ATOM      1  C   UNL     1       5.272   5.574  17.086  0.00  0.00    +0.000 A 
ATOM      2  C   UNL     1       4.633   6.640  17.691  0.00  0.00    +0.000 A 
ATOM      3  C   UNL     1       3.396   6.267  18.303  0.00  0.00    +0.000 A 
ATOM      4  C   UNL     1       3.118   4.932  18.100  0.00  0.00    +0.000 A 
ATOM      5  S   UNL     1       4.340   4.146  17.192  0.00  0.00    +0.000 S 
ENDROOT
BRANCH   3   6
ATOM      6  C   UNL     1       2.513   7.205  19.082  0.00  0.00    +0.000 A 
ATOM      7  N   UNL     1       2.155   8.376  18.587  0.00  0.00    +0.000 NA
ATOM      8  C   UNL     1       1.330   9.057  19.480  0.00  0.00    +0.000 A 
ATOM      9  C   UNL     1       1.119   8.386  20.671  0.00  0.00    +0.000 A 
ATOM     10  S   UNL     1       1.899   6.865  20.648  0.00  0.00    +0.000 S 
BRANCH   8  11
ATOM     11  C   UNL     1       0.722  10.393  19.077  0.00  0.00    +0.000 C 
ATOM     12  C   UNL     1       1.763  11.308  18.401  0.00  0.00    +0.000 C 
ATOM     13  C   UNL     1      -0.428  10.152  18.076  0.00  0.00    +0.000 C 
ATOM     14  C   UNL     1       0.162  11.137  20.307  0.00  0.00    +0.000 C 
ENDBRANCH   8  11
ENDBRANCH   3   6
BRANCH   1  15
ATOM     15  S   UNL     1       6.862   5.465  16.275  0.00  0.00    +0.000 S 
ATOM     16  O   UNL     1       7.549   4.302  16.791  0.00  0.00    +0.000 OA
ATOM     17  O   UNL     1       7.396   6.803  16.404  0.00  0.00    +0.000 OA
BRANCH  15  18
ATOM     18  N   UNL     1       6.537   5.227  14.629  0.00  0.00    +0.000 NA
ATOM     19  H   UNL     1       5.871   5.926  14.304  0.00  0.00    +0.000 HD
BRANCH  18  20
ATOM     20  C   UNL     1       6.245   3.841  14.220  0.00  0.00    +0.000 C 
BRANCH  20  22
ATOM     21  C   UNL     1       5.229   3.430  11.971  0.00  0.00    +0.000 C 
ATOM     22  C   UNL     1       6.545   3.635  12.727  0.00  0.00    +0.000 C 
ATOM     23  C   UNL     1       7.308   4.813  12.115  0.00  0.00    +0.000 C 
ENDBRANCH  20  22
ENDBRANCH  18  20
ENDBRANCH  15  18
ENDBRANCH   1  15
TORSDOF 6
ENDMDL
MODEL 6
REMARK VINA RESULT:      -6.8      3.050      4.106
REMARK  Name = 
REMARK  11 active torsions:
REMARK  status: ('A' for Active; 'I' for Inactive)
REMARK    1  A    between atoms: C_1  and  C_2
REMARK    2  A    between atoms: C_2  and  C_3
REMARK    3  A    between atoms: C_2  and  C_4
REMARK    4  A    between atoms: C_4  and  N_5
REMARK    5  A    between atoms: N_5  and  S_6
REMARK    6  A    between atoms: S_6  and  C_9
REMARK    7  A    between atoms: C_11  and  C_12
REMARK    8  A    between atoms: C_14  and  C_15
REMARK    9  A    between atoms: C_15  and  C_16
REMARK   10  A    between atoms: C_15  and  C_17
REMARK   11  A    between atoms: C_15  and  C_18
REMARK                            x       y       z     vdW  Elec       q    Type
REMARK                         _______ _______ _______ _____ _____    ______ ____
ROOT
ATOM      1  C   UNL     1       3.203   4.848  19.054  0.00  0.00    +0.000 A 
ATOM      2  C   UNL     1       2.900   6.113  18.586  0.00  0.00    +0.000 A 
ATOM      3  C   UNL     1       2.131   6.877  19.519  0.00  0.00    +0.000 A 
ATOM      4  C   UNL     1       1.840   6.142  20.649  0.00  0.00    +0.000 A 
ATOM      5  S   UNL     1       2.496   4.561  20.582  0.00  0.00    +0.000 S 
ENDROOT
BRANCH   3   6
ATOM      6  C   UNL     1       1.702   8.304  19.306  0.00  0.00    +0.000 A 
ATOM      7  N   UNL     1       1.019   8.958  20.228  0.00  0.00    +0.000 NA
ATOM      8  C   UNL     1       0.750  10.260  19.811  0.00  0.00    +0.000 A 
ATOM      9  C   UNL     1       1.209  10.546  18.537  0.00  0.00    +0.000 A 
ATOM     10  S   UNL     1       2.042   9.203  17.885  0.00  0.00    +0.000 S 
BRANCH   8  11
ATOM     11  C   UNL     1       0.051  11.227  20.756  0.00  0.00    +0.000 C 
ATOM     12  C   UNL     1      -1.343  11.623  20.229  0.00  0.00    +0.000 C 
ATOM     13  C   UNL     1      -0.130  10.555  22.134  0.00  0.00    +0.000 C 
ATOM     14  C   UNL     1       0.877  12.517  20.936  0.00  0.00    +0.000 C 
ENDBRANCH   8  11
ENDBRANCH   3   6
BRANCH   1  15
ATOM     15  S   UNL     1       4.202   3.544  18.347  0.00  0.00    +0.000 S 
ATOM     16  O   UNL     1       4.200   3.707  16.911  0.00  0.00    +0.000 OA
ATOM     17  O   UNL     1       3.701   2.351  18.994  0.00  0.00    +0.000 OA
BRANCH  15  18
ATOM     18  N   UNL     1       5.775   3.788  18.928  0.00  0.00    +0.000 NA
ATOM     19  H   UNL     1       5.958   3.155  19.705  0.00  0.00    +0.000 HD
BRANCH  18  20
ATOM     20  C   UNL     1       6.174   5.189  19.149  0.00  0.00    +0.000 C 
BRANCH  20  22
ATOM     21  C   UNL     1       7.646   4.580  17.219  0.00  0.00    +0.000 C 
ATOM     22  C   UNL     1       7.497   5.502  18.433  0.00  0.00    +0.000 C 
ATOM     23  C   UNL     1       7.588   6.962  17.982  0.00  0.00    +0.000 C 
ENDBRANCH  20  22
ENDBRANCH  18  20
ENDBRANCH  15  18
ENDBRANCH   1  15
TORSDOF 6
ENDMDL
MODEL 7
REMARK VINA RESULT:      -6.8      2.848      3.638
REMARK  Name = 
REMARK  11 active torsions:
REMARK  status: ('A' for Active; 'I' for Inactive)
REMARK    1  A    between atoms: C_1  and  C_2
REMARK    2  A    between atoms: C_2  and  C_3
REMARK    3  A    between atoms: C_2  and  C_4
REMARK    4  A    between atoms: C_4  and  N_5
REMARK    5  A    between atoms: N_5  and  S_6
REMARK    6  A    between atoms: S_6  and  C_9
REMARK    7  A    between atoms: C_11  and  C_12
REMARK    8  A    between atoms: C_14  and  C_15
REMARK    9  A    between atoms: C_15  and  C_16
REMARK   10  A    between atoms: C_15  and  C_17
REMARK   11  A    between atoms: C_15  and  C_18
REMARK                            x       y       z     vdW  Elec       q    Type
REMARK                         _______ _______ _______ _____ _____    ______ ____
ROOT
ATOM      1  C   UNL     1       3.308   4.574  19.254  0.00  0.00    +0.000 A 
ATOM      2  C   UNL     1       3.069   5.838  18.747  0.00  0.00    +0.000 A 
ATOM      3  C   UNL     1       2.206   6.614  19.582  0.00  0.00    +0.000 A 
ATOM      4  C   UNL     1       1.784   5.890  20.678  0.00  0.00    +0.000 A 
ATOM      5  S   UNL     1       2.431   4.304  20.695  0.00  0.00    +0.000 S 
ENDROOT
BRANCH   3   6
ATOM      6  C   UNL     1       1.815   8.042  19.312  0.00  0.00    +0.000 A 
ATOM      7  N   UNL     1       1.129   8.743  20.198  0.00  0.00    +0.000 NA
ATOM      8  C   UNL     1       0.900  10.035  19.732  0.00  0.00    +0.000 A 
ATOM      9  C   UNL     1       1.390  10.268  18.459  0.00  0.00    +0.000 A 
ATOM     10  S   UNL     1       2.204   8.885  17.869  0.00  0.00    +0.000 S 
BRANCH   8  11
ATOM     11  C   UNL     1       0.205  11.050  20.630  0.00  0.00    +0.000 C 
ATOM     12  C   UNL     1      -0.042  10.479  22.041  0.00  0.00    +0.000 C 
ATOM     13  C   UNL     1       1.093  12.304  20.767  0.00  0.00    +0.000 C 
ATOM     14  C   UNL     1      -1.158  11.467  20.039  0.00  0.00    +0.000 C 
ENDBRANCH   8  11
ENDBRANCH   3   6
BRANCH   1  15
ATOM     15  S   UNL     1       4.369   3.258  18.673  0.00  0.00    +0.000 S 
ATOM     16  O   UNL     1       3.530   2.200  18.158  0.00  0.00    +0.000 OA
ATOM     17  O   UNL     1       5.285   3.056  19.775  0.00  0.00    +0.000 OA
BRANCH  15  18
ATOM     18  N   UNL     1       5.276   3.911  17.400  0.00  0.00    +0.000 NA
ATOM     19  H   UNL     1       5.381   3.218  16.659  0.00  0.00    +0.000 HD
BRANCH  18  20
ATOM     20  C   UNL     1       6.512   4.617  17.780  0.00  0.00    +0.000 C 
BRANCH  20  22
ATOM     21  C   UNL     1       5.551   6.076  15.990  0.00  0.00    +0.000 C 
ATOM     22  C   UNL     1       6.810   5.766  16.805  0.00  0.00    +0.000 C 
ATOM     23  C   UNL     1       7.281   7.035  17.522  0.00  0.00    +0.000 C 
ENDBRANCH  20  22
ENDBRANCH  18  20
ENDBRANCH  15  18
ENDBRANCH   1  15
TORSDOF 6
ENDMDL
MODEL 8
REMARK VINA RESULT:      -6.8      3.162      3.997
REMARK  Name = 
REMARK  11 active torsions:
REMARK  status: ('A' for Active; 'I' for Inactive)
REMARK    1  A    between atoms: C_1  and  C_2
REMARK    2  A    between atoms: C_2  and  C_3
REMARK    3  A    between atoms: C_2  and  C_4
REMARK    4  A    between atoms: C_4  and  N_5
REMARK    5  A    between atoms: N_5  and  S_6
REMARK    6  A    between atoms: S_6  and  C_9
REMARK    7  A    between atoms: C_11  and  C_12
REMARK    8  A    between atoms: C_14  and  C_15
REMARK    9  A    between atoms: C_15  and  C_16
REMARK   10  A    between atoms: C_15  and  C_17
REMARK   11  A    between atoms: C_15  and  C_18
REMARK                            x       y       z     vdW  Elec       q    Type
REMARK                         _______ _______ _______ _____ _____    ______ ____
ROOT
ATOM      1  C   UNL     1       3.576   5.501  18.636  0.00  0.00    +0.000 A 
ATOM      2  C   UNL     1       2.753   6.216  19.487  0.00  0.00    +0.000 A 
ATOM      3  C   UNL     1       2.449   7.522  18.990  0.00  0.00    +0.000 A 
ATOM      4  C   UNL     1       3.092   7.767  17.795  0.00  0.00    +0.000 A 
ATOM      5  S   UNL     1       4.038   6.434  17.282  0.00  0.00    +0.000 S 
ENDROOT
BRANCH   3   6
ATOM      6  C   UNL     1       1.534   8.503  19.673  0.00  0.00    +0.000 A 
ATOM      7  N   UNL     1       0.950   9.478  18.999  0.00  0.00    +0.000 NA
ATOM      8  C   UNL     1       0.145  10.243  19.839  0.00  0.00    +0.000 A 
ATOM      9  C   UNL     1       0.177   9.844  21.164  0.00  0.00    +0.000 A 
ATOM     10  S   UNL     1       1.166   8.462  21.349  0.00  0.00    +0.000 S 
BRANCH   8  11
ATOM     11  C   UNL     1      -0.699  11.369  19.257  0.00  0.00    +0.000 C 
ATOM     12  C   UNL     1       0.182  12.497  18.684  0.00  0.00    +0.000 C 
ATOM     13  C   UNL     1      -1.574  10.814  18.113  0.00  0.00    +0.000 C 
ATOM     14  C   UNL     1      -1.618  11.983  20.333  0.00  0.00    +0.000 C 
ENDBRANCH   8  11
ENDBRANCH   3   6
BRANCH   1  15
ATOM     15  S   UNL     1       4.174   3.818  18.723  0.00  0.00    +0.000 S 
ATOM     16  O   UNL     1       4.053   3.232  17.408  0.00  0.00    +0.000 OA
ATOM     17  O   UNL     1       3.492   3.279  19.880  0.00  0.00    +0.000 OA
BRANCH  15  18
ATOM     18  N   UNL     1       5.816   3.921  19.131  0.00  0.00    +0.000 NA
ATOM     19  H   UNL     1       6.035   3.242  19.858  0.00  0.00    +0.000 HD
BRANCH  18  20
ATOM     20  C   UNL     1       6.343   5.279  19.358  0.00  0.00    +0.000 C 
BRANCH  20  22
ATOM     21  C   UNL     1       7.582   4.602  17.293  0.00  0.00    +0.000 C 
ATOM     22  C   UNL     1       7.602   5.527  18.513  0.00  0.00    +0.000 C 
ATOM     23  C   UNL     1       7.718   6.982  18.050  0.00  0.00    +0.000 C 
ENDBRANCH  20  22
ENDBRANCH  18  20
ENDBRANCH  15  18
ENDBRANCH   1  15
TORSDOF 6
ENDMDL
MODEL 9
REMARK VINA RESULT:      -6.8      0.491      1.048
REMARK  Name = 
REMARK  11 active torsions:
REMARK  status: ('A' for Active; 'I' for Inactive)
REMARK    1  A    between atoms: C_1  and  C_2
REMARK    2  A    between atoms: C_2  and  C_3
REMARK    3  A    between atoms: C_2  and  C_4
REMARK    4  A    between atoms: C_4  and  N_5
REMARK    5  A    between atoms: N_5  and  S_6
REMARK    6  A    between atoms: S_6  and  C_9
REMARK    7  A    between atoms: C_11  and  C_12
REMARK    8  A    between atoms: C_14  and  C_15
REMARK    9  A    between atoms: C_15  and  C_16
REMARK   10  A    between atoms: C_15  and  C_17
REMARK   11  A    between atoms: C_15  and  C_18
REMARK                            x       y       z     vdW  Elec       q    Type
REMARK                         _______ _______ _______ _____ _____    ______ ____
ROOT
ATOM      1  C   UNL     1       5.216   5.099  17.504  0.00  0.00    +0.000 A 
ATOM      2  C   UNL     1       4.469   6.216  17.833  0.00  0.00    +0.000 A 
ATOM      3  C   UNL     1       3.458   5.936  18.805  0.00  0.00    +0.000 A 
ATOM      4  C   UNL     1       3.447   4.600  19.147  0.00  0.00    +0.000 A 
ATOM      5  S   UNL     1       4.646   3.706  18.311  0.00  0.00    +0.000 S 
ENDROOT
BRANCH   3   6
ATOM      6  C   UNL     1       2.532   6.967  19.393  0.00  0.00    +0.000 A 
ATOM      7  N   UNL     1       2.319   8.120  18.785  0.00  0.00    +0.000 NA
ATOM      8  C   UNL     1       1.419   8.899  19.509  0.00  0.00    +0.000 A 
ATOM      9  C   UNL     1       1.002   8.319  20.694  0.00  0.00    +0.000 A 
ATOM     10  S   UNL     1       1.685   6.761  20.871  0.00  0.00    +0.000 S 
BRANCH   8  11
ATOM     11  C   UNL     1       0.954  10.236  18.947  0.00  0.00    +0.000 C 
ATOM     12  C   UNL     1      -0.349  10.085  18.137  0.00  0.00    +0.000 C 
ATOM     13  C   UNL     1       0.687  11.215  20.110  0.00  0.00    +0.000 C 
ATOM     14  C   UNL     1       2.024  10.846  18.019  0.00  0.00    +0.000 C 
ENDBRANCH   8  11
ENDBRANCH   3   6
BRANCH   1  15
ATOM     15  S   UNL     1       6.638   4.912  16.436  0.00  0.00    +0.000 S 
ATOM     16  O   UNL     1       7.733   4.407  17.233  0.00  0.00    +0.000 OA
ATOM     17  O   UNL     1       6.703   6.179  15.740  0.00  0.00    +0.000 OA
BRANCH  15  18
ATOM     18  N   UNL     1       6.212   3.745  15.284  0.00  0.00    +0.000 NA
ATOM     19  H   UNL     1       6.995   3.113  15.126  0.00  0.00    +0.000 HD
BRANCH  18  20
ATOM     20  C   UNL     1       5.555   4.248  14.065  0.00  0.00    +0.000 C 
BRANCH  20  22
ATOM     21  C   UNL     1       4.896   3.269  11.858  0.00  0.00    +0.000 C 
ATOM     22  C   UNL     1       6.065   3.505  12.820  0.00  0.00    +0.000 C 
ATOM     23  C   UNL     1       7.176   4.270  12.096  0.00  0.00    +0.000 C 
ENDBRANCH  20  22
ENDBRANCH  18  20
ENDBRANCH  15  18
ENDBRANCH   1  15
TORSDOF 6
ENDMDL
