MODEL 1
REMARK VINA RESULT:      -7.3      0.000      0.000
REMARK  Name = 
REMARK  10 active torsions:
REMARK  status: ('A' for Active; 'I' for Inactive)
REMARK    1  A    between atoms: C_1  and  C_2
REMARK    2  A    between atoms: C_2  and  C_3
REMARK    3  A    between atoms: C_2  and  N_11
REMARK    4  A    between atoms: N_11  and  C_12
REMARK    5  A    between atoms: N_11  and  C_13
REMARK    6  A    between atoms: C_13  and  C_14
REMARK    7  A    between atoms: C_14  and  S_15
REMARK    8  A    between atoms: S_15  and  C_18
REMARK    9  A    between atoms: C_18  and  C_19
REMARK   10  A    between atoms: C_19  and  C_20
REMARK                            x       y       z     vdW  Elec       q    Type
REMARK                         _______ _______ _______ _____ _____    ______ ____
ROOT
ATOM      1  N   UNL     1       2.432   7.508  18.002  0.00  0.00    +0.000 NA
ATOM      2  C   UNL     1       1.822   8.847  18.046  0.00  0.00    +0.000 C 
ENDROOT
BRANCH   1   4
ATOM      3  C   UNL     1       1.760   7.655  20.450  0.00  0.00    +0.000 C 
ATOM      4  C   UNL     1       2.453   6.849  19.335  0.00  0.00    +0.000 C 
BRANCH   4   5
ATOM      5  C   UNL     1       1.945   5.403  19.283  0.00  0.00    +0.000 A 
ATOM      6  C   UNL     1       1.803   4.724  18.057  0.00  0.00    +0.000 A 
ATOM      7  C   UNL     1       1.354   3.407  18.005  0.00  0.00    +0.000 A 
ATOM      8  C   UNL     1       1.039   2.751  19.184  0.00  0.00    +0.000 A 
ATOM      9  F   UNL     1       0.609   1.484  19.130  0.00  0.00    +0.000 F 
ATOM     10  C   UNL     1       1.163   3.399  20.406  0.00  0.00    +0.000 A 
ATOM     11  F   UNL     1       0.841   2.761  21.539  0.00  0.00    +0.000 F 
ATOM     12  C   UNL     1       1.620   4.718  20.466  0.00  0.00    +0.000 A 
ENDBRANCH   4   5
ENDBRANCH   1   4
BRANCH   1  13
ATOM     13  C   UNL     1       3.775   7.613  17.377  0.00  0.00    +0.000 C 
BRANCH  13  14
ATOM     14  C   UNL     1       4.724   6.474  17.741  0.00  0.00    +0.000 C 
BRANCH  14  15
ATOM     15  S   UNL     1       5.388   5.716  16.268  0.00  0.00    +0.000 S 
ATOM     16  O   UNL     1       4.705   4.454  16.057  0.00  0.00    +0.000 OA
ATOM     17  O   UNL     1       5.424   6.723  15.225  0.00  0.00    +0.000 OA
BRANCH  15  18
ATOM     18  C   UNL     1       7.070   5.347  16.726  0.00  0.00    +0.000 C 
BRANCH  18  19
ATOM     19  C   UNL     1       7.145   4.912  18.183  0.00  0.00    +0.000 C 
BRANCH  19  20
ATOM     20  C   UNL     1       7.954   5.888  18.995  0.00  0.00    +0.000 C 
ATOM     21  N   UNL     1       8.471   5.378  20.150  0.00  0.00    +0.000 N 
ATOM     22  O   UNL     1       8.151   7.051  18.673  0.00  0.00    +0.000 OA
ATOM     23  H   UNL     1       8.321   4.429  20.462  0.00  0.00    +0.000 HD
ATOM     24  H   UNL     1       9.018   5.997  20.734  0.00  0.00    +0.000 HD
ENDBRANCH  19  20
ENDBRANCH  18  19
ENDBRANCH  15  18
ENDBRANCH  14  15
ENDBRANCH  13  14
ENDBRANCH   1  13
TORSDOF 8
ENDMDL
MODEL 2
REMARK VINA RESULT:      -7.2      3.275      4.864
REMARK  Name = 
REMARK  10 active torsions:
REMARK  status: ('A' for Active; 'I' for Inactive)
REMARK    1  A    between atoms: C_1  and  C_2
REMARK    2  A    between atoms: C_2  and  C_3
REMARK    3  A    between atoms: C_2  and  N_11
REMARK    4  A    between atoms: N_11  and  C_12
REMARK    5  A    between atoms: N_11  and  C_13
REMARK    6  A    between atoms: C_13  and  C_14
REMARK    7  A    between atoms: C_14  and  S_15
REMARK    8  A    between atoms: S_15  and  C_18
REMARK    9  A    between atoms: C_18  and  C_19
REMARK   10  A    between atoms: C_19  and  C_20
REMARK                            x       y       z     vdW  Elec       q    Type
REMARK                         _______ _______ _______ _____ _____    ______ ____
ROOT
ATOM      1  N   UNL     1       3.437   4.299  19.502  0.00  0.00    +0.000 NA
ATOM      2  C   UNL     1       2.636   3.169  20.000  0.00  0.00    +0.000 C 
ENDROOT
BRANCH   1   4
ATOM      3  C   UNL     1       1.600   4.267  17.744  0.00  0.00    +0.000 C 
ATOM      4  C   UNL     1       2.754   5.041  18.409  0.00  0.00    +0.000 C 
BRANCH   4   5
ATOM      5  C   UNL     1       2.320   6.448  18.836  0.00  0.00    +0.000 A 
ATOM      6  C   UNL     1       1.934   6.719  20.164  0.00  0.00    +0.000 A 
ATOM      7  C   UNL     1       1.551   7.999  20.561  0.00  0.00    +0.000 A 
ATOM      8  C   UNL     1       1.548   9.024  19.630  0.00  0.00    +0.000 A 
ATOM      9  F   UNL     1       1.182  10.253  20.015  0.00  0.00    +0.000 F 
ATOM     10  C   UNL     1       1.918   8.783  18.313  0.00  0.00    +0.000 A 
ATOM     11  F   UNL     1       1.896   9.778  17.417  0.00  0.00    +0.000 F 
ATOM     12  C   UNL     1       2.310   7.503  17.910  0.00  0.00    +0.000 A 
ENDBRANCH   4   5
ENDBRANCH   1   4
BRANCH   1  13
ATOM     13  C   UNL     1       4.785   3.801  19.124  0.00  0.00    +0.000 C 
BRANCH  13  14
ATOM     14  C   UNL     1       5.902   4.825  19.310  0.00  0.00    +0.000 C 
BRANCH  14  15
ATOM     15  S   UNL     1       6.773   5.089  17.774  0.00  0.00    +0.000 S 
ATOM     16  O   UNL     1       6.721   6.504  17.458  0.00  0.00    +0.000 OA
ATOM     17  O   UNL     1       8.042   4.394  17.856  0.00  0.00    +0.000 OA
BRANCH  15  18
ATOM     18  C   UNL     1       5.760   4.234  16.584  0.00  0.00    +0.000 C 
BRANCH  18  19
ATOM     19  C   UNL     1       5.604   5.066  15.318  0.00  0.00    +0.000 C 
BRANCH  19  20
ATOM     20  C   UNL     1       6.574   4.617  14.257  0.00  0.00    +0.000 C 
ATOM     21  N   UNL     1       7.746   5.314  14.224  0.00  0.00    +0.000 N 
ATOM     22  O   UNL     1       6.360   3.704  13.474  0.00  0.00    +0.000 OA
ATOM     23  H   UNL     1       7.959   6.086  14.842  0.00  0.00    +0.000 HD
ATOM     24  H   UNL     1       8.429   5.054  13.524  0.00  0.00    +0.000 HD
ENDBRANCH  19  20
ENDBRANCH  18  19
ENDBRANCH  15  18
ENDBRANCH  14  15
ENDBRANCH  13  14
ENDBRANCH   1  13
TORSDOF 8
ENDMDL
MODEL 3
REMARK VINA RESULT:      -7.1      3.085      4.164
REMARK  Name = 
REMARK  10 active torsions:
REMARK  status: ('A' for Active; 'I' for Inactive)
REMARK    1  A    between atoms: C_1  and  C_2
REMARK    2  A    between atoms: C_2  and  C_3
REMARK    3  A    between atoms: C_2  and  N_11
REMARK    4  A    between atoms: N_11  and  C_12
REMARK    5  A    between atoms: N_11  and  C_13
REMARK    6  A    between atoms: C_13  and  C_14
REMARK    7  A    between atoms: C_14  and  S_15
REMARK    8  A    between atoms: S_15  and  C_18
REMARK    9  A    between atoms: C_18  and  C_19
REMARK   10  A    between atoms: C_19  and  C_20
REMARK                            x       y       z     vdW  Elec       q    Type
REMARK                         _______ _______ _______ _____ _____    ______ ____
ROOT
ATOM      1  N   UNL     1       5.394   5.589  18.925  0.00  0.00    +0.000 NA
ATOM      2  C   UNL     1       5.415   4.143  19.200  0.00  0.00    +0.000 C 
ENDROOT
BRANCH   1   4
ATOM      3  C   UNL     1       3.757   7.198  17.830  0.00  0.00    +0.000 C 
ATOM      4  C   UNL     1       4.016   6.148  18.927  0.00  0.00    +0.000 C 
BRANCH   4   5
ATOM      5  C   UNL     1       2.940   5.055  18.930  0.00  0.00    +0.000 A 
ATOM      6  C   UNL     1       2.474   4.488  17.728  0.00  0.00    +0.000 A 
ATOM      7  C   UNL     1       1.506   3.486  17.726  0.00  0.00    +0.000 A 
ATOM      8  C   UNL     1       0.990   3.040  18.931  0.00  0.00    +0.000 A 
ATOM      9  F   UNL     1       0.061   2.075  18.925  0.00  0.00    +0.000 F 
ATOM     10  C   UNL     1       1.426   3.587  20.131  0.00  0.00    +0.000 A 
ATOM     11  F   UNL     1       0.909   3.159  21.290  0.00  0.00    +0.000 F 
ATOM     12  C   UNL     1       2.402   4.587  20.141  0.00  0.00    +0.000 A 
ENDBRANCH   4   5
ENDBRANCH   1   4
BRANCH   1  13
ATOM     13  C   UNL     1       6.133   5.849  17.663  0.00  0.00    +0.000 C 
BRANCH  13  14
ATOM     14  C   UNL     1       6.260   4.629  16.753  0.00  0.00    +0.000 C 
BRANCH  14  15
ATOM     15  S   UNL     1       6.418   5.132  15.048  0.00  0.00    +0.000 S 
ATOM     16  O   UNL     1       5.343   6.056  14.744  0.00  0.00    +0.000 OA
ATOM     17  O   UNL     1       7.801   5.501  14.819  0.00  0.00    +0.000 OA
BRANCH  15  18
ATOM     18  C   UNL     1       6.102   3.625  14.152  0.00  0.00    +0.000 C 
BRANCH  18  19
ATOM     19  C   UNL     1       6.285   3.844  12.656  0.00  0.00    +0.000 C 
BRANCH  19  20
ATOM     20  C   UNL     1       5.472   2.853  11.865  0.00  0.00    +0.000 C 
ATOM     21  N   UNL     1       6.049   1.624  11.726  0.00  0.00    +0.000 N 
ATOM     22  O   UNL     1       4.379   3.097  11.375  0.00  0.00    +0.000 OA
ATOM     23  H   UNL     1       6.956   1.384  12.100  0.00  0.00    +0.000 HD
ATOM     24  H   UNL     1       5.544   0.925  11.197  0.00  0.00    +0.000 HD
ENDBRANCH  19  20
ENDBRANCH  18  19
ENDBRANCH  15  18
ENDBRANCH  14  15
ENDBRANCH  13  14
ENDBRANCH   1  13
TORSDOF 8
ENDMDL
MODEL 4
REMARK VINA RESULT:      -7.1      3.224      4.682
REMARK  Name = 
REMARK  10 active torsions:
REMARK  status: ('A' for Active; 'I' for Inactive)
REMARK    1  A    between atoms: C_1  and  C_2
REMARK    2  A    between atoms: C_2  and  C_3
REMARK    3  A    between atoms: C_2  and  N_11
REMARK    4  A    between atoms: N_11  and  C_12
REMARK    5  A    between atoms: N_11  and  C_13
REMARK    6  A    between atoms: C_13  and  C_14
REMARK    7  A    between atoms: C_14  and  S_15
REMARK    8  A    between atoms: S_15  and  C_18
REMARK    9  A    between atoms: C_18  and  C_19
REMARK   10  A    between atoms: C_19  and  C_20
REMARK                            x       y       z     vdW  Elec       q    Type
REMARK                         _______ _______ _______ _____ _____    ______ ____
ROOT
ATOM      1  N   UNL     1       3.805   3.655  19.811  0.00  0.00    +0.000 NA
ATOM      2  C   UNL     1       4.148   2.243  19.578  0.00  0.00    +0.000 C 
ENDROOT
BRANCH   1   4
ATOM      3  C   UNL     1       1.342   3.221  19.348  0.00  0.00    +0.000 C 
ATOM      4  C   UNL     1       2.591   4.077  19.062  0.00  0.00    +0.000 C 
BRANCH   4   5
ATOM      5  C   UNL     1       2.298   5.574  19.214  0.00  0.00    +0.000 A 
ATOM      6  C   UNL     1       1.822   6.104  20.429  0.00  0.00    +0.000 A 
ATOM      7  C   UNL     1       1.566   7.465  20.577  0.00  0.00    +0.000 A 
ATOM      8  C   UNL     1       1.783   8.315  19.504  0.00  0.00    +0.000 A 
ATOM      9  F   UNL     1       1.538   9.624  19.650  0.00  0.00    +0.000 F 
ATOM     10  C   UNL     1       2.245   7.818  18.292  0.00  0.00    +0.000 A 
ATOM     11  F   UNL     1       2.436   8.647  17.257  0.00  0.00    +0.000 F 
ATOM     12  C   UNL     1       2.510   6.455  18.140  0.00  0.00    +0.000 A 
ENDBRANCH   4   5
ENDBRANCH   1   4
BRANCH   1  13
ATOM     13  C   UNL     1       4.997   4.493  19.520  0.00  0.00    +0.000 C 
BRANCH  13  14
ATOM     14  C   UNL     1       5.728   4.112  18.234  0.00  0.00    +0.000 C 
BRANCH  14  15
ATOM     15  S   UNL     1       7.269   5.001  18.102  0.00  0.00    +0.000 S 
ATOM     16  O   UNL     1       7.556   5.610  19.386  0.00  0.00    +0.000 OA
ATOM     17  O   UNL     1       8.235   4.127  17.464  0.00  0.00    +0.000 OA
BRANCH  15  18
ATOM     18  C   UNL     1       6.883   6.311  16.959  0.00  0.00    +0.000 C 
BRANCH  18  19
ATOM     19  C   UNL     1       5.913   5.822  15.892  0.00  0.00    +0.000 C 
BRANCH  19  20
ATOM     20  C   UNL     1       6.644   5.095  14.794  0.00  0.00    +0.000 C 
ATOM     21  N   UNL     1       6.013   3.977  14.333  0.00  0.00    +0.000 N 
ATOM     22  O   UNL     1       7.716   5.453  14.329  0.00  0.00    +0.000 OA
ATOM     23  H   UNL     1       5.134   3.636  14.698  0.00  0.00    +0.000 HD
ATOM     24  H   UNL     1       6.467   3.450  13.598  0.00  0.00    +0.000 HD
ENDBRANCH  19  20
ENDBRANCH  18  19
ENDBRANCH  15  18
ENDBRANCH  14  15
ENDBRANCH  13  14
ENDBRANCH   1  13
TORSDOF 8
ENDMDL
MODEL 5
REMARK VINA RESULT:      -7.0      3.079      4.595
REMARK  Name = 
REMARK  10 active torsions:
REMARK  status: ('A' for Active; 'I' for Inactive)
REMARK    1  A    between atoms: C_1  and  C_2
REMARK    2  A    between atoms: C_2  and  C_3
REMARK    3  A    between atoms: C_2  and  N_11
REMARK    4  A    between atoms: N_11  and  C_12
REMARK    5  A    between atoms: N_11  and  C_13
REMARK    6  A    between atoms: C_13  and  C_14
REMARK    7  A    between atoms: C_14  and  S_15
REMARK    8  A    between atoms: S_15  and  C_18
REMARK    9  A    between atoms: C_18  and  C_19
REMARK   10  A    between atoms: C_19  and  C_20
REMARK                            x       y       z     vdW  Elec       q    Type
REMARK                         _______ _______ _______ _____ _____    ______ ____
ROOT
ATOM      1  N   UNL     1       3.676   4.716  19.764  0.00  0.00    +0.000 NA
ATOM      2  C   UNL     1       2.731   3.810  20.437  0.00  0.00    +0.000 C 
ENDROOT
BRANCH   1   4
ATOM      3  C   UNL     1       2.112   4.383  17.786  0.00  0.00    +0.000 C 
ATOM      4  C   UNL     1       3.113   5.298  18.516  0.00  0.00    +0.000 C 
BRANCH   4   5
ATOM      5  C   UNL     1       2.542   6.705  18.730  0.00  0.00    +0.000 A 
ATOM      6  C   UNL     1       2.504   7.643  17.680  0.00  0.00    +0.000 A 
ATOM      7  C   UNL     1       1.974   8.919  17.866  0.00  0.00    +0.000 A 
ATOM      8  C   UNL     1       1.478   9.272  19.110  0.00  0.00    +0.000 A 
ATOM      9  F   UNL     1       0.968  10.498  19.284  0.00  0.00    +0.000 F 
ATOM     10  C   UNL     1       1.511   8.369  20.164  0.00  0.00    +0.000 A 
ATOM     11  F   UNL     1       1.042   8.725  21.368  0.00  0.00    +0.000 F 
ATOM     12  C   UNL     1       2.033   7.085  19.983  0.00  0.00    +0.000 A 
ENDBRANCH   4   5
ENDBRANCH   1   4
BRANCH   1  13
ATOM     13  C   UNL     1       4.960   4.000  19.553  0.00  0.00    +0.000 C 
BRANCH  13  14
ATOM     14  C   UNL     1       5.509   4.110  18.132  0.00  0.00    +0.000 C 
BRANCH  14  15
ATOM     15  S   UNL     1       7.012   5.071  18.114  0.00  0.00    +0.000 S 
ATOM     16  O   UNL     1       7.084   5.829  19.348  0.00  0.00    +0.000 OA
ATOM     17  O   UNL     1       8.097   4.195  17.717  0.00  0.00    +0.000 OA
BRANCH  15  18
ATOM     18  C   UNL     1       6.736   6.228  16.787  0.00  0.00    +0.000 C 
BRANCH  18  19
ATOM     19  C   UNL     1       5.843   5.613  15.718  0.00  0.00    +0.000 C 
BRANCH  19  20
ATOM     20  C   UNL     1       6.666   4.928  14.659  0.00  0.00    +0.000 C 
ATOM     21  N   UNL     1       6.279   3.651  14.373  0.00  0.00    +0.000 N 
ATOM     22  O   UNL     1       7.611   5.446  14.082  0.00  0.00    +0.000 OA
ATOM     23  H   UNL     1       5.515   3.179  14.837  0.00  0.00    +0.000 HD
ATOM     24  H   UNL     1       6.805   3.146  13.672  0.00  0.00    +0.000 HD
ENDBRANCH  19  20
ENDBRANCH  18  19
ENDBRANCH  15  18
ENDBRANCH  14  15
ENDBRANCH  13  14
ENDBRANCH   1  13
TORSDOF 8
ENDMDL
MODEL 6
REMARK VINA RESULT:      -7.0      4.063      5.343
REMARK  Name = 
REMARK  10 active torsions:
REMARK  status: ('A' for Active; 'I' for Inactive)
REMARK    1  A    between atoms: C_1  and  C_2
REMARK    2  A    between atoms: C_2  and  C_3
REMARK    3  A    between atoms: C_2  and  N_11
REMARK    4  A    between atoms: N_11  and  C_12
REMARK    5  A    between atoms: N_11  and  C_13
REMARK    6  A    between atoms: C_13  and  C_14
REMARK    7  A    between atoms: C_14  and  S_15
REMARK    8  A    between atoms: S_15  and  C_18
REMARK    9  A    between atoms: C_18  and  C_19
REMARK   10  A    between atoms: C_19  and  C_20
REMARK                            x       y       z     vdW  Elec       q    Type
REMARK                         _______ _______ _______ _____ _____    ______ ____
ROOT
ATOM      1  N   UNL     1       2.822   6.398  19.568  0.00  0.00    +0.000 NA
ATOM      2  C   UNL     1       2.020   7.432  20.243  0.00  0.00    +0.000 C 
ENDROOT
BRANCH   1   4
ATOM      3  C   UNL     1       2.548   8.015  17.624  0.00  0.00    +0.000 C 
ATOM      4  C   UNL     1       2.856   6.580  18.092  0.00  0.00    +0.000 C 
BRANCH   4   5
ATOM      5  C   UNL     1       4.150   6.045  17.465  0.00  0.00    +0.000 A 
ATOM      6  C   UNL     1       4.134   4.931  16.602  0.00  0.00    +0.000 A 
ATOM      7  C   UNL     1       5.304   4.449  16.020  0.00  0.00    +0.000 A 
ATOM      8  C   UNL     1       6.507   5.078  16.296  0.00  0.00    +0.000 A 
ATOM      9  F   UNL     1       7.630   4.613  15.732  0.00  0.00    +0.000 F 
ATOM     10  C   UNL     1       6.552   6.174  17.148  0.00  0.00    +0.000 A 
ATOM     11  F   UNL     1       7.723   6.765  17.420  0.00  0.00    +0.000 F 
ATOM     12  C   UNL     1       5.381   6.667  17.730  0.00  0.00    +0.000 A 
ENDBRANCH   4   5
ENDBRANCH   1   4
BRANCH   1  13
ATOM     13  C   UNL     1       2.330   5.060  19.985  0.00  0.00    +0.000 C 
BRANCH  13  14
ATOM     14  C   UNL     1       1.373   4.409  18.990  0.00  0.00    +0.000 C 
BRANCH  14  15
ATOM     15  S   UNL     1       1.400   2.633  19.162  0.00  0.00    +0.000 S 
ATOM     16  O   UNL     1       1.593   2.314  20.564  0.00  0.00    +0.000 OA
ATOM     17  O   UNL     1       0.271   2.097  18.428  0.00  0.00    +0.000 OA
BRANCH  15  18
ATOM     18  C   UNL     1       2.884   2.166  18.294  0.00  0.00    +0.000 C 
BRANCH  18  19
ATOM     19  C   UNL     1       3.729   1.229  19.145  0.00  0.00    +0.000 C 
BRANCH  19  20
ATOM     20  C   UNL     1       4.712   2.003  19.984  0.00  0.00    +0.000 C 
ATOM     21  N   UNL     1       5.212   3.124  19.388  0.00  0.00    +0.000 N 
ATOM     22  O   UNL     1       5.054   1.681  21.112  0.00  0.00    +0.000 OA
ATOM     23  H   UNL     1       4.969   3.419  18.452  0.00  0.00    +0.000 HD
ATOM     24  H   UNL     1       5.881   3.675  19.909  0.00  0.00    +0.000 HD
ENDBRANCH  19  20
ENDBRANCH  18  19
ENDBRANCH  15  18
ENDBRANCH  14  15
ENDBRANCH  13  14
ENDBRANCH   1  13
TORSDOF 8
ENDMDL
MODEL 7
REMARK VINA RESULT:      -7.0      2.136      2.772
REMARK  Name = 
REMARK  10 active torsions:
REMARK  status: ('A' for Active; 'I' for Inactive)
REMARK    1  A    between atoms: C_1  and  C_2
REMARK    2  A    between atoms: C_2  and  C_3
REMARK    3  A    between atoms: C_2  and  N_11
REMARK    4  A    between atoms: N_11  and  C_12
REMARK    5  A    between atoms: N_11  and  C_13
REMARK    6  A    between atoms: C_13  and  C_14
REMARK    7  A    between atoms: C_14  and  S_15
REMARK    8  A    between atoms: S_15  and  C_18
REMARK    9  A    between atoms: C_18  and  C_19
REMARK   10  A    between atoms: C_19  and  C_20
REMARK                            x       y       z     vdW  Elec       q    Type
REMARK                         _______ _______ _______ _____ _____    ______ ____
ROOT
ATOM      1  N   UNL     1       2.862   7.281  17.945  0.00  0.00    +0.000 NA
ATOM      2  C   UNL     1       2.516   8.711  17.907  0.00  0.00    +0.000 C 
ENDROOT
BRANCH   1   4
ATOM      3  C   UNL     1       1.916   7.592  20.285  0.00  0.00    +0.000 C 
ATOM      4  C   UNL     1       2.673   6.686  19.295  0.00  0.00    +0.000 C 
BRANCH   4   5
ATOM      5  C   UNL     1       2.066   5.279  19.237  0.00  0.00    +0.000 A 
ATOM      6  C   UNL     1       1.865   4.623  18.007  0.00  0.00    +0.000 A 
ATOM      7  C   UNL     1       1.326   3.340  17.949  0.00  0.00    +0.000 A 
ATOM      8  C   UNL     1       0.979   2.697  19.126  0.00  0.00    +0.000 A 
ATOM      9  F   UNL     1       0.463   1.463  19.066  0.00  0.00    +0.000 F 
ATOM     10  C   UNL     1       1.161   3.324  20.352  0.00  0.00    +0.000 A 
ATOM     11  F   UNL     1       0.808   2.699  21.483  0.00  0.00    +0.000 F 
ATOM     12  C   UNL     1       1.708   4.608  20.417  0.00  0.00    +0.000 A 
ENDBRANCH   4   5
ENDBRANCH   1   4
BRANCH   1  13
ATOM     13  C   UNL     1       4.239   7.107  17.413  0.00  0.00    +0.000 C 
BRANCH  13  14
ATOM     14  C   UNL     1       5.210   6.457  18.395  0.00  0.00    +0.000 C 
BRANCH  14  15
ATOM     15  S   UNL     1       5.908   4.971  17.697  0.00  0.00    +0.000 S 
ATOM     16  O   UNL     1       7.350   5.037  17.833  0.00  0.00    +0.000 OA
ATOM     17  O   UNL     1       5.165   3.841  18.219  0.00  0.00    +0.000 OA
BRANCH  15  18
ATOM     18  C   UNL     1       5.524   5.120  15.963  0.00  0.00    +0.000 C 
BRANCH  18  19
ATOM     19  C   UNL     1       5.958   3.871  15.210  0.00  0.00    +0.000 C 
BRANCH  19  20
ATOM     20  C   UNL     1       6.564   4.230  13.878  0.00  0.00    +0.000 C 
ATOM     21  N   UNL     1       6.277   3.359  12.868  0.00  0.00    +0.000 N 
ATOM     22  O   UNL     1       7.259   5.216  13.684  0.00  0.00    +0.000 OA
ATOM     23  H   UNL     1       5.720   2.524  12.987  0.00  0.00    +0.000 HD
ATOM     24  H   UNL     1       6.666   3.554  11.954  0.00  0.00    +0.000 HD
ENDBRANCH  19  20
ENDBRANCH  18  19
ENDBRANCH  15  18
ENDBRANCH  14  15
ENDBRANCH  13  14
ENDBRANCH   1  13
TORSDOF 8
ENDMDL
MODEL 8
REMARK VINA RESULT:      -7.0      3.658      5.084
REMARK  Name = 
REMARK  10 active torsions:
REMARK  status: ('A' for Active; 'I' for Inactive)
REMARK    1  A    between atoms: C_1  and  C_2
REMARK    2  A    between atoms: C_2  and  C_3
REMARK    3  A    between atoms: C_2  and  N_11
REMARK    4  A    between atoms: N_11  and  C_12
REMARK    5  A    between atoms: N_11  and  C_13
REMARK    6  A    between atoms: C_13  and  C_14
REMARK    7  A    between atoms: C_14  and  S_15
REMARK    8  A    between atoms: S_15  and  C_18
REMARK    9  A    between atoms: C_18  and  C_19
REMARK   10  A    between atoms: C_19  and  C_20
REMARK                            x       y       z     vdW  Elec       q    Type
REMARK                         _______ _______ _______ _____ _____    ______ ____
ROOT
ATOM      1  N   UNL     1       4.167   4.872  19.389  0.00  0.00    +0.000 NA
ATOM      2  C   UNL     1       4.451   3.429  19.446  0.00  0.00    +0.000 C 
ENDROOT
BRANCH   1   4
ATOM      3  C   UNL     1       1.799   4.107  18.863  0.00  0.00    +0.000 C 
ATOM      4  C   UNL     1       2.896   5.173  18.677  0.00  0.00    +0.000 C 
BRANCH   4   5
ATOM      5  C   UNL     1       2.373   6.583  18.979  0.00  0.00    +0.000 A 
ATOM      6  C   UNL     1       1.924   6.932  20.268  0.00  0.00    +0.000 A 
ATOM      7  C   UNL     1       1.460   8.215  20.551  0.00  0.00    +0.000 A 
ATOM      8  C   UNL     1       1.438   9.165  19.544  0.00  0.00    +0.000 A 
ATOM      9  F   UNL     1       0.993  10.398  19.821  0.00  0.00    +0.000 F 
ATOM     10  C   UNL     1       1.868   8.845  18.263  0.00  0.00    +0.000 A 
ATOM     11  F   UNL     1       1.828   9.767  17.292  0.00  0.00    +0.000 F 
ATOM     12  C   UNL     1       2.341   7.562  17.973  0.00  0.00    +0.000 A 
ENDBRANCH   4   5
ENDBRANCH   1   4
BRANCH   1  13
ATOM     13  C   UNL     1       5.344   5.570  18.811  0.00  0.00    +0.000 C 
BRANCH  13  14
ATOM     14  C   UNL     1       6.196   4.699  17.890  0.00  0.00    +0.000 C 
BRANCH  14  15
ATOM     15  S   UNL     1       6.282   5.411  16.256  0.00  0.00    +0.000 S 
ATOM     16  O   UNL     1       4.979   5.954  15.925  0.00  0.00    +0.000 OA
ATOM     17  O   UNL     1       7.469   6.242  16.194  0.00  0.00    +0.000 OA
BRANCH  15  18
ATOM     18  C   UNL     1       6.555   3.994  15.212  0.00  0.00    +0.000 C 
BRANCH  18  19
ATOM     19  C   UNL     1       5.660   4.054  13.983  0.00  0.00    +0.000 C 
BRANCH  19  20
ATOM     20  C   UNL     1       6.446   3.767  12.730  0.00  0.00    +0.000 C 
ATOM     21  N   UNL     1       6.108   2.605  12.099  0.00  0.00    +0.000 N 
ATOM     22  O   UNL     1       7.320   4.496  12.287  0.00  0.00    +0.000 OA
ATOM     23  H   UNL     1       5.403   1.965  12.438  0.00  0.00    +0.000 HD
ATOM     24  H   UNL     1       6.612   2.365  11.255  0.00  0.00    +0.000 HD
ENDBRANCH  19  20
ENDBRANCH  18  19
ENDBRANCH  15  18
ENDBRANCH  14  15
ENDBRANCH  13  14
ENDBRANCH   1  13
TORSDOF 8
ENDMDL
MODEL 9
REMARK VINA RESULT:      -6.9      3.188      4.416
REMARK  Name = 
REMARK  10 active torsions:
REMARK  status: ('A' for Active; 'I' for Inactive)
REMARK    1  A    between atoms: C_1  and  C_2
REMARK    2  A    between atoms: C_2  and  C_3
REMARK    3  A    between atoms: C_2  and  N_11
REMARK    4  A    between atoms: N_11  and  C_12
REMARK    5  A    between atoms: N_11  and  C_13
REMARK    6  A    between atoms: C_13  and  C_14
REMARK    7  A    between atoms: C_14  and  S_15
REMARK    8  A    between atoms: S_15  and  C_18
REMARK    9  A    between atoms: C_18  and  C_19
REMARK   10  A    between atoms: C_19  and  C_20
REMARK                            x       y       z     vdW  Elec       q    Type
REMARK                         _______ _______ _______ _____ _____    ______ ____
ROOT
ATOM      1  N   UNL     1       2.962   2.421  19.386  0.00  0.00    +0.000 NA
ATOM      2  C   UNL     1       2.930   1.913  18.004  0.00  0.00    +0.000 C 
ENDROOT
BRANCH   1   4
ATOM      3  C   UNL     1       1.219   2.982  21.150  0.00  0.00    +0.000 C 
ATOM      4  C   UNL     1       1.753   3.219  19.725  0.00  0.00    +0.000 C 
BRANCH   4   5
ATOM      5  C   UNL     1       1.934   4.713  19.428  0.00  0.00    +0.000 A 
ATOM      6  C   UNL     1       2.152   5.173  18.115  0.00  0.00    +0.000 A 
ATOM      7  C   UNL     1       2.304   6.530  17.838  0.00  0.00    +0.000 A 
ATOM      8  C   UNL     1       2.240   7.444  18.876  0.00  0.00    +0.000 A 
ATOM      9  F   UNL     1       2.385   8.748  18.606  0.00  0.00    +0.000 F 
ATOM     10  C   UNL     1       2.033   7.017  20.181  0.00  0.00    +0.000 A 
ATOM     11  F   UNL     1       1.989   7.909  21.180  0.00  0.00    +0.000 F 
ATOM     12  C   UNL     1       1.873   5.658  20.465  0.00  0.00    +0.000 A 
ENDBRANCH   4   5
ENDBRANCH   1   4
BRANCH   1  13
ATOM     13  C   UNL     1       4.233   3.160  19.596  0.00  0.00    +0.000 C 
BRANCH  13  14
ATOM     14  C   UNL     1       5.139   3.205  18.367  0.00  0.00    +0.000 C 
BRANCH  14  15
ATOM     15  S   UNL     1       6.051   4.738  18.315  0.00  0.00    +0.000 S 
ATOM     16  O   UNL     1       5.459   5.653  19.272  0.00  0.00    +0.000 OA
ATOM     17  O   UNL     1       7.464   4.418  18.371  0.00  0.00    +0.000 OA
BRANCH  15  18
ATOM     18  C   UNL     1       5.699   5.362  16.684  0.00  0.00    +0.000 C 
BRANCH  18  19
ATOM     19  C   UNL     1       5.653   4.225  15.674  0.00  0.00    +0.000 C 
BRANCH  19  20
ATOM     20  C   UNL     1       6.598   4.485  14.530  0.00  0.00    +0.000 C 
ATOM     21  N   UNL     1       6.346   3.752  13.406  0.00  0.00    +0.000 N 
ATOM     22  O   UNL     1       7.523   5.281  14.571  0.00  0.00    +0.000 OA
ATOM     23  H   UNL     1       5.602   3.072  13.333  0.00  0.00    +0.000 HD
ATOM     24  H   UNL     1       6.957   3.887  12.611  0.00  0.00    +0.000 HD
ENDBRANCH  19  20
ENDBRANCH  18  19
ENDBRANCH  15  18
ENDBRANCH  14  15
ENDBRANCH  13  14
ENDBRANCH   1  13
TORSDOF 8
ENDMDL
