MODEL 1
REMARK VINA RESULT:      -8.9      0.000      0.000
REMARK  Name = 
REMARK  12 active torsions:
REMARK  status: ('A' for Active; 'I' for Inactive)
REMARK    1  A    between atoms: C_1  and  C_2
REMARK    2  A    between atoms: C_2  and  O_3
REMARK    3  A    between atoms: O_3  and  C_4
REMARK    4  A    between atoms: C_4  and  C_6
REMARK    5  A    between atoms: C_7  and  C_8
REMARK    6  A    between atoms: C_11  and  N_12
REMARK    7  A    between atoms: C_13  and  C_15
REMARK    8  A    between atoms: C_17  and  C_18
REMARK    9  A    between atoms: C_18  and  N_19
REMARK   10  A    between atoms: C_24  and  O_25
REMARK   11  A    between atoms: C_26  and  C_27
REMARK   12  A    between atoms: C_27  and  N_28
REMARK                            x       y       z     vdW  Elec       q    Type
REMARK                         _______ _______ _______ _____ _____    ______ ____
ROOT
ATOM      1  C   UNL     1       2.951   6.792  18.120  0.00  0.00    +0.000 A 
ATOM      2  C   UNL     1       4.131   6.922  17.391  0.00  0.00    +0.000 A 
ATOM      3  C   UNL     1       4.799   5.783  16.896  0.00  0.00    +0.000 A 
ATOM      4  C   UNL     1       4.221   4.525  17.107  0.00  0.00    +0.000 A 
ATOM      5  C   UNL     1       2.978   4.395  17.745  0.00  0.00    +0.000 A 
ATOM      6  C   UNL     1       2.403   5.529  18.338  0.00  0.00    +0.000 A 
ENDROOT
BRANCH   1   8
ATOM      7  N   UNL     1       1.709   7.840  19.912  0.00  0.00    +0.000 N 
ATOM      8  C   UNL     1       2.206   7.970  18.625  0.00  0.00    +0.000 C 
ATOM      9  O   UNL     1       2.145   8.954  17.894  0.00  0.00    +0.000 OA
ATOM     10  H   UNL     1       1.896   6.970  20.399  0.00  0.00    +0.000 HD
BRANCH   7  14
ATOM     11  C   UNL     1      -0.417  10.699  22.218  0.00  0.00    +0.000 A 
ATOM     12  C   UNL     1      -0.402  10.791  20.824  0.00  0.00    +0.000 A 
ATOM     13  C   UNL     1       0.295   9.860  20.049  0.00  0.00    +0.000 A 
ATOM     14  C   UNL     1       1.009   8.825  20.647  0.00  0.00    +0.000 A 
ATOM     15  C   UNL     1       1.042   8.760  22.047  0.00  0.00    +0.000 A 
ATOM     16  C   UNL     1       0.336   9.691  22.829  0.00  0.00    +0.000 A 
BRANCH  11  18
ATOM     17  C   UNL     1      -2.484  11.909  22.797  0.00  0.00    +0.000 C 
ATOM     18  C   UNL     1      -1.190  11.642  23.036  0.00  0.00    +0.000 C 
BRANCH  17  19
ATOM     19  C   UNL     1      -3.249  12.798  23.690  0.00  0.00    +0.000 C 
ATOM     20  O   UNL     1      -4.059  12.434  24.525  0.00  0.00    +0.000 OA
BRANCH  19  21
ATOM     21  O   UNL     1      -2.955  14.074  23.336  0.00  0.00    +0.000 OA
BRANCH  21  23
ATOM     22  C   UNL     1      -1.517  15.148  24.915  0.00  0.00    +0.000 C 
ATOM     23  C   UNL     1      -2.944  15.019  24.412  0.00  0.00    +0.000 C 
ENDBRANCH  21  23
ENDBRANCH  19  21
ENDBRANCH  17  19
ENDBRANCH  11  18
ENDBRANCH   7  14
ENDBRANCH   1   8
BRANCH   4  24
ATOM     24  O   UNL     1       4.835   3.387  16.662  0.00  0.00    +0.000 OA
ATOM     25  H   UNL     1       4.154   2.806  16.281  0.00  0.00    +0.000 HD
ENDBRANCH   4  24
BRANCH   3  26
ATOM     26  C   UNL     1       6.062   5.985  16.084  0.00  0.00    +0.000 C 
BRANCH  26  27
ATOM     27  N   UNL     1       7.152   6.437  16.931  0.00  0.00    +0.000 NA
ATOM     28  C   UNL     1       7.063   7.827  17.370  0.00  0.00    +0.000 C 
ATOM     29  C   UNL     1       8.291   7.878  18.258  0.00  0.00    +0.000 C 
ATOM     30  C   UNL     1       8.255   6.538  18.988  0.00  0.00    +0.000 C 
ATOM     31  C   UNL     1       7.345   5.649  18.142  0.00  0.00    +0.000 C 
ENDBRANCH  26  27
ENDBRANCH   3  26
BRANCH   5  32
ATOM     32  C   UNL     1       2.176   3.112  17.664  0.00  0.00    +0.000 C 
BRANCH  32  33
ATOM     33  N   UNL     1       2.196   2.263  18.875  0.00  0.00    +0.000 NA
ATOM     34  C   UNL     1       0.951   2.255  19.650  0.00  0.00    +0.000 C 
ATOM     35  C   UNL     1       1.165   3.235  20.791  0.00  0.00    +0.000 C 
ATOM     36  C   UNL     1       2.647   3.122  21.088  0.00  0.00    +0.000 C 
ATOM     37  C   UNL     1       3.277   2.545  19.822  0.00  0.00    +0.000 C 
ENDBRANCH  32  33
ENDBRANCH   5  32
TORSDOF 11
ENDMDL
MODEL 2
REMARK VINA RESULT:      -8.8      0.810      1.292
REMARK  Name = 
REMARK  12 active torsions:
REMARK  status: ('A' for Active; 'I' for Inactive)
REMARK    1  A    between atoms: C_1  and  C_2
REMARK    2  A    between atoms: C_2  and  O_3
REMARK    3  A    between atoms: O_3  and  C_4
REMARK    4  A    between atoms: C_4  and  C_6
REMARK    5  A    between atoms: C_7  and  C_8
REMARK    6  A    between atoms: C_11  and  N_12
REMARK    7  A    between atoms: C_13  and  C_15
REMARK    8  A    between atoms: C_17  and  C_18
REMARK    9  A    between atoms: C_18  and  N_19
REMARK   10  A    between atoms: C_24  and  O_25
REMARK   11  A    between atoms: C_26  and  C_27
REMARK   12  A    between atoms: C_27  and  N_28
REMARK                            x       y       z     vdW  Elec       q    Type
REMARK                         _______ _______ _______ _____ _____    ______ ____
ROOT
ATOM      1  C   UNL     1       2.969   6.881  17.928  0.00  0.00    +0.000 A 
ATOM      2  C   UNL     1       4.184   6.977  17.252  0.00  0.00    +0.000 A 
ATOM      3  C   UNL     1       4.884   5.816  16.864  0.00  0.00    +0.000 A 
ATOM      4  C   UNL     1       4.305   4.567  17.125  0.00  0.00    +0.000 A 
ATOM      5  C   UNL     1       3.032   4.465  17.707  0.00  0.00    +0.000 A 
ATOM      6  C   UNL     1       2.420   5.629  18.197  0.00  0.00    +0.000 A 
ENDROOT
BRANCH   1   8
ATOM      7  N   UNL     1       1.752   8.090  19.633  0.00  0.00    +0.000 N 
ATOM      8  C   UNL     1       2.192   8.081  18.318  0.00  0.00    +0.000 C 
ATOM      9  O   UNL     1       2.058   8.964  17.478  0.00  0.00    +0.000 OA
ATOM     10  H   UNL     1       1.997   7.295  20.213  0.00  0.00    +0.000 HD
BRANCH   7  14
ATOM     11  C   UNL     1      -0.485  11.111  21.603  0.00  0.00    +0.000 A 
ATOM     12  C   UNL     1       0.210  11.406  20.426  0.00  0.00    +0.000 A 
ATOM     13  C   UNL     1       0.954  10.424  19.766  0.00  0.00    +0.000 A 
ATOM     14  C   UNL     1       1.038   9.129  20.274  0.00  0.00    +0.000 A 
ATOM     15  C   UNL     1       0.387   8.844  21.482  0.00  0.00    +0.000 A 
ATOM     16  C   UNL     1      -0.368   9.827  22.144  0.00  0.00    +0.000 A 
BRANCH  11  18
ATOM     17  C   UNL     1      -2.337  11.798  23.076  0.00  0.00    +0.000 C 
ATOM     18  C   UNL     1      -1.310  12.123  22.273  0.00  0.00    +0.000 C 
BRANCH  17  19
ATOM     19  C   UNL     1      -3.091  12.840  23.797  0.00  0.00    +0.000 C 
ATOM     20  O   UNL     1      -2.615  13.861  24.263  0.00  0.00    +0.000 OA
BRANCH  19  21
ATOM     21  O   UNL     1      -4.367  12.397  23.925  0.00  0.00    +0.000 OA
BRANCH  21  23
ATOM     22  C   UNL     1      -6.361  12.823  22.677  0.00  0.00    +0.000 C 
ATOM     23  C   UNL     1      -5.381  13.383  23.693  0.00  0.00    +0.000 C 
ENDBRANCH  21  23
ENDBRANCH  19  21
ENDBRANCH  17  19
ENDBRANCH  11  18
ENDBRANCH   7  14
ENDBRANCH   1   8
BRANCH   4  24
ATOM     24  O   UNL     1       4.948   3.410  16.785  0.00  0.00    +0.000 OA
ATOM     25  H   UNL     1       4.275   2.746  16.561  0.00  0.00    +0.000 HD
ENDBRANCH   4  24
BRANCH   3  26
ATOM     26  C   UNL     1       6.185   5.979  16.106  0.00  0.00    +0.000 C 
BRANCH  26  27
ATOM     27  N   UNL     1       7.249   6.413  16.995  0.00  0.00    +0.000 NA
ATOM     28  C   UNL     1       7.166   7.805  17.430  0.00  0.00    +0.000 C 
ATOM     29  C   UNL     1       8.359   7.835  18.365  0.00  0.00    +0.000 C 
ATOM     30  C   UNL     1       8.273   6.497  19.093  0.00  0.00    +0.000 C 
ATOM     31  C   UNL     1       7.382   5.622  18.212  0.00  0.00    +0.000 C 
ENDBRANCH  26  27
ENDBRANCH   3  26
BRANCH   5  32
ATOM     32  C   UNL     1       2.244   3.172  17.668  0.00  0.00    +0.000 C 
BRANCH  32  33
ATOM     33  N   UNL     1       2.369   2.306  18.860  0.00  0.00    +0.000 NA
ATOM     34  C   UNL     1       1.123   2.086  19.602  0.00  0.00    +0.000 C 
ATOM     35  C   UNL     1       1.156   3.058  20.769  0.00  0.00    +0.000 C 
ATOM     36  C   UNL     1       2.631   3.168  21.102  0.00  0.00    +0.000 C 
ATOM     37  C   UNL     1       3.371   2.728  19.841  0.00  0.00    +0.000 C 
ENDBRANCH  32  33
ENDBRANCH   5  32
TORSDOF 11
ENDMDL
MODEL 3
REMARK VINA RESULT:      -8.4      1.427      2.412
REMARK  Name = 
REMARK  12 active torsions:
REMARK  status: ('A' for Active; 'I' for Inactive)
REMARK    1  A    between atoms: C_1  and  C_2
REMARK    2  A    between atoms: C_2  and  O_3
REMARK    3  A    between atoms: O_3  and  C_4
REMARK    4  A    between atoms: C_4  and  C_6
REMARK    5  A    between atoms: C_7  and  C_8
REMARK    6  A    between atoms: C_11  and  N_12
REMARK    7  A    between atoms: C_13  and  C_15
REMARK    8  A    between atoms: C_17  and  C_18
REMARK    9  A    between atoms: C_18  and  N_19
REMARK   10  A    between atoms: C_24  and  O_25
REMARK   11  A    between atoms: C_26  and  C_27
REMARK   12  A    between atoms: C_27  and  N_28
REMARK                            x       y       z     vdW  Elec       q    Type
REMARK                         _______ _______ _______ _____ _____    ______ ____
ROOT
ATOM      1  C   UNL     1       3.177   6.605  18.154  0.00  0.00    +0.000 A 
ATOM      2  C   UNL     1       4.376   6.699  17.450  0.00  0.00    +0.000 A 
ATOM      3  C   UNL     1       5.049   5.537  17.021  0.00  0.00    +0.000 A 
ATOM      4  C   UNL     1       4.459   4.291  17.270  0.00  0.00    +0.000 A 
ATOM      5  C   UNL     1       3.199   4.194  17.882  0.00  0.00    +0.000 A 
ATOM      6  C   UNL     1       2.617   5.355  18.412  0.00  0.00    +0.000 A 
ENDROOT
BRANCH   1   8
ATOM      7  N   UNL     1       1.894   7.733  19.867  0.00  0.00    +0.000 N 
ATOM      8  C   UNL     1       2.427   7.808  18.589  0.00  0.00    +0.000 C 
ATOM      9  O   UNL     1       2.393   8.761  17.818  0.00  0.00    +0.000 OA
ATOM     10  H   UNL     1       2.061   6.883  20.394  0.00  0.00    +0.000 HD
BRANCH   7  14
ATOM     11  C   UNL     1      -0.282  10.694  21.990  0.00  0.00    +0.000 A 
ATOM     12  C   UNL     1      -0.167  10.769  20.599  0.00  0.00    +0.000 A 
ATOM     13  C   UNL     1       0.548   9.804  19.884  0.00  0.00    +0.000 A 
ATOM     14  C   UNL     1       1.181   8.752  20.541  0.00  0.00    +0.000 A 
ATOM     15  C   UNL     1       1.115   8.704  21.941  0.00  0.00    +0.000 A 
ATOM     16  C   UNL     1       0.390   9.669  22.661  0.00  0.00    +0.000 A 
BRANCH  11  18
ATOM     17  C   UNL     1      -2.354  11.951  22.439  0.00  0.00    +0.000 C 
ATOM     18  C   UNL     1      -1.075  11.675  22.742  0.00  0.00    +0.000 C 
BRANCH  17  19
ATOM     19  C   UNL     1      -3.143  12.879  23.268  0.00  0.00    +0.000 C 
ATOM     20  O   UNL     1      -2.683  13.747  23.991  0.00  0.00    +0.000 OA
BRANCH  19  21
ATOM     21  O   UNL     1      -4.445  12.519  23.148  0.00  0.00    +0.000 OA
BRANCH  21  23
ATOM     22  C   UNL     1      -6.555  12.775  22.054  0.00  0.00    +0.000 C 
ATOM     23  C   UNL     1      -5.047  12.816  21.883  0.00  0.00    +0.000 C 
ENDBRANCH  21  23
ENDBRANCH  19  21
ENDBRANCH  17  19
ENDBRANCH  11  18
ENDBRANCH   7  14
ENDBRANCH   1   8
BRANCH   4  24
ATOM     24  O   UNL     1       5.077   3.133  16.890  0.00  0.00    +0.000 OA
ATOM     25  H   UNL     1       5.735   3.351  16.208  0.00  0.00    +0.000 HD
ENDBRANCH   4  24
BRANCH   3  26
ATOM     26  C   UNL     1       6.333   5.697  16.233  0.00  0.00    +0.000 C 
BRANCH  26  27
ATOM     27  N   UNL     1       6.351   4.803  15.089  0.00  0.00    +0.000 NA
ATOM     28  C   UNL     1       5.158   4.847  14.246  0.00  0.00    +0.000 C 
ATOM     29  C   UNL     1       5.589   3.873  13.168  0.00  0.00    +0.000 C 
ATOM     30  C   UNL     1       7.056   4.226  12.937  0.00  0.00    +0.000 C 
ATOM     31  C   UNL     1       7.481   4.994  14.188  0.00  0.00    +0.000 C 
ENDBRANCH  26  27
ENDBRANCH   3  26
BRANCH   5  32
ATOM     32  C   UNL     1       2.393   2.913  17.835  0.00  0.00    +0.000 C 
BRANCH  32  33
ATOM     33  N   UNL     1       2.393   2.106  19.075  0.00  0.00    +0.000 NA
ATOM     34  C   UNL     1       1.109   2.048  19.780  0.00  0.00    +0.000 C 
ATOM     35  C   UNL     1       1.199   3.075  20.896  0.00  0.00    +0.000 C 
ATOM     36  C   UNL     1       2.666   3.062  21.277  0.00  0.00    +0.000 C 
ATOM     37  C   UNL     1       3.400   2.484  20.069  0.00  0.00    +0.000 C 
ENDBRANCH  32  33
ENDBRANCH   5  32
TORSDOF 11
ENDMDL
MODEL 4
REMARK VINA RESULT:      -8.3      0.787      1.430
REMARK  Name = 
REMARK  12 active torsions:
REMARK  status: ('A' for Active; 'I' for Inactive)
REMARK    1  A    between atoms: C_1  and  C_2
REMARK    2  A    between atoms: C_2  and  O_3
REMARK    3  A    between atoms: O_3  and  C_4
REMARK    4  A    between atoms: C_4  and  C_6
REMARK    5  A    between atoms: C_7  and  C_8
REMARK    6  A    between atoms: C_11  and  N_12
REMARK    7  A    between atoms: C_13  and  C_15
REMARK    8  A    between atoms: C_17  and  C_18
REMARK    9  A    between atoms: C_18  and  N_19
REMARK   10  A    between atoms: C_24  and  O_25
REMARK   11  A    between atoms: C_26  and  C_27
REMARK   12  A    between atoms: C_27  and  N_28
REMARK                            x       y       z     vdW  Elec       q    Type
REMARK                         _______ _______ _______ _____ _____    ______ ____
ROOT
ATOM      1  C   UNL     1       2.981   6.824  17.921  0.00  0.00    +0.000 A 
ATOM      2  C   UNL     1       4.196   6.954  17.251  0.00  0.00    +0.000 A 
ATOM      3  C   UNL     1       4.903   5.813  16.818  0.00  0.00    +0.000 A 
ATOM      4  C   UNL     1       4.331   4.552  17.028  0.00  0.00    +0.000 A 
ATOM      5  C   UNL     1       3.057   4.419  17.603  0.00  0.00    +0.000 A 
ATOM      6  C   UNL     1       2.438   5.559  18.139  0.00  0.00    +0.000 A 
ENDROOT
BRANCH   1   8
ATOM      7  N   UNL     1       1.785   7.972  19.682  0.00  0.00    +0.000 N 
ATOM      8  C   UNL     1       2.197   8.003  18.358  0.00  0.00    +0.000 C 
ATOM      9  O   UNL     1       2.033   8.905  17.544  0.00  0.00    +0.000 OA
ATOM     10  H   UNL     1       2.052   7.166  20.235  0.00  0.00    +0.000 HD
BRANCH   7  14
ATOM     11  C   UNL     1      -0.305  11.107  21.637  0.00  0.00    +0.000 A 
ATOM     12  C   UNL     1       0.130   9.993  22.361  0.00  0.00    +0.000 A 
ATOM     13  C   UNL     1       0.817   8.950  21.733  0.00  0.00    +0.000 A 
ATOM     14  C   UNL     1       1.070   8.985  20.364  0.00  0.00    +0.000 A 
ATOM     15  C   UNL     1       0.589  10.074  19.624  0.00  0.00    +0.000 A 
ATOM     16  C   UNL     1      -0.096  11.127  20.254  0.00  0.00    +0.000 A 
BRANCH  11  18
ATOM     17  C   UNL     1      -0.412  13.440  22.421  0.00  0.00    +0.000 C 
ATOM     18  C   UNL     1      -0.980  12.229  22.299  0.00  0.00    +0.000 C 
BRANCH  17  19
ATOM     19  C   UNL     1      -1.154  14.566  23.018  0.00  0.00    +0.000 C 
ATOM     20  O   UNL     1      -0.700  15.676  23.234  0.00  0.00    +0.000 OA
BRANCH  19  21
ATOM     21  O   UNL     1      -2.380  14.101  23.364  0.00  0.00    +0.000 OA
BRANCH  21  23
ATOM     22  C   UNL     1      -3.971  15.515  24.453  0.00  0.00    +0.000 C 
ATOM     23  C   UNL     1      -2.848  14.513  24.654  0.00  0.00    +0.000 C 
ENDBRANCH  21  23
ENDBRANCH  19  21
ENDBRANCH  17  19
ENDBRANCH  11  18
ENDBRANCH   7  14
ENDBRANCH   1   8
BRANCH   4  24
ATOM     24  O   UNL     1       4.981   3.413  16.642  0.00  0.00    +0.000 OA
ATOM     25  H   UNL     1       4.375   2.893  16.087  0.00  0.00    +0.000 HD
ENDBRANCH   4  24
BRANCH   3  26
ATOM     26  C   UNL     1       6.205   6.014  16.069  0.00  0.00    +0.000 C 
BRANCH  26  27
ATOM     27  N   UNL     1       7.265   6.417  16.977  0.00  0.00    +0.000 NA
ATOM     28  C   UNL     1       7.213   7.809  17.415  0.00  0.00    +0.000 C 
ATOM     29  C   UNL     1       8.390   7.805  18.369  0.00  0.00    +0.000 C 
ATOM     30  C   UNL     1       8.256   6.467  19.092  0.00  0.00    +0.000 C 
ATOM     31  C   UNL     1       7.356   5.620  18.194  0.00  0.00    +0.000 C 
ENDBRANCH  26  27
ENDBRANCH   3  26
BRANCH   5  32
ATOM     32  C   UNL     1       2.277   3.125  17.510  0.00  0.00    +0.000 C 
BRANCH  32  33
ATOM     33  N   UNL     1       2.254   2.298  18.736  0.00  0.00    +0.000 NA
ATOM     34  C   UNL     1       0.962   2.246  19.427  0.00  0.00    +0.000 C 
ATOM     35  C   UNL     1       1.055   3.254  20.561  0.00  0.00    +0.000 C 
ATOM     36  C   UNL     1       2.517   3.213  20.957  0.00  0.00    +0.000 C 
ATOM     37  C   UNL     1       3.256   2.645  19.747  0.00  0.00    +0.000 C 
ENDBRANCH  32  33
ENDBRANCH   5  32
TORSDOF 11
ENDMDL
MODEL 5
REMARK VINA RESULT:      -8.3      1.479      2.398
REMARK  Name = 
REMARK  12 active torsions:
REMARK  status: ('A' for Active; 'I' for Inactive)
REMARK    1  A    between atoms: C_1  and  C_2
REMARK    2  A    between atoms: C_2  and  O_3
REMARK    3  A    between atoms: O_3  and  C_4
REMARK    4  A    between atoms: C_4  and  C_6
REMARK    5  A    between atoms: C_7  and  C_8
REMARK    6  A    between atoms: C_11  and  N_12
REMARK    7  A    between atoms: C_13  and  C_15
REMARK    8  A    between atoms: C_17  and  C_18
REMARK    9  A    between atoms: C_18  and  N_19
REMARK   10  A    between atoms: C_24  and  O_25
REMARK   11  A    between atoms: C_26  and  C_27
REMARK   12  A    between atoms: C_27  and  N_28
REMARK                            x       y       z     vdW  Elec       q    Type
REMARK                         _______ _______ _______ _____ _____    ______ ____
ROOT
ATOM      1  C   UNL     1       3.276   6.617  17.841  0.00  0.00    +0.000 A 
ATOM      2  C   UNL     1       4.500   6.644  17.175  0.00  0.00    +0.000 A 
ATOM      3  C   UNL     1       5.172   5.446  16.858  0.00  0.00    +0.000 A 
ATOM      4  C   UNL     1       4.557   4.229  17.179  0.00  0.00    +0.000 A 
ATOM      5  C   UNL     1       3.275   4.192  17.750  0.00  0.00    +0.000 A 
ATOM      6  C   UNL     1       2.691   5.396  18.171  0.00  0.00    +0.000 A 
ENDROOT
BRANCH   1   8
ATOM      7  N   UNL     1       1.902   7.861  19.395  0.00  0.00    +0.000 N 
ATOM      8  C   UNL     1       2.528   7.857  18.158  0.00  0.00    +0.000 C 
ATOM      9  O   UNL     1       2.574   8.768  17.338  0.00  0.00    +0.000 OA
ATOM     10  H   UNL     1       2.009   7.037  19.975  0.00  0.00    +0.000 HD
BRANCH   7  14
ATOM     11  C   UNL     1      -0.333  10.981  21.206  0.00  0.00    +0.000 A 
ATOM     12  C   UNL     1      -0.214  10.918  19.815  0.00  0.00    +0.000 A 
ATOM     13  C   UNL     1       0.521   9.899  19.202  0.00  0.00    +0.000 A 
ATOM     14  C   UNL     1       1.169   8.930  19.962  0.00  0.00    +0.000 A 
ATOM     15  C   UNL     1       1.098   9.020  21.359  0.00  0.00    +0.000 A 
ATOM     16  C   UNL     1       0.354  10.039  21.978  0.00  0.00    +0.000 A 
BRANCH  11  18
ATOM     17  C   UNL     1      -0.649  13.221  22.183  0.00  0.00    +0.000 C 
ATOM     18  C   UNL     1      -1.146  12.017  21.854  0.00  0.00    +0.000 C 
BRANCH  17  19
ATOM     19  C   UNL     1      -1.517  14.265  22.757  0.00  0.00    +0.000 C 
ATOM     20  O   UNL     1      -1.832  15.305  22.204  0.00  0.00    +0.000 OA
BRANCH  19  21
ATOM     21  O   UNL     1      -1.804  13.895  24.030  0.00  0.00    +0.000 OA
BRANCH  21  23
ATOM     22  C   UNL     1      -3.926  12.806  24.199  0.00  0.00    +0.000 C 
ATOM     23  C   UNL     1      -3.164  14.099  24.433  0.00  0.00    +0.000 C 
ENDBRANCH  21  23
ENDBRANCH  19  21
ENDBRANCH  17  19
ENDBRANCH  11  18
ENDBRANCH   7  14
ENDBRANCH   1   8
BRANCH   4  24
ATOM     24  O   UNL     1       5.172   3.039  16.908  0.00  0.00    +0.000 OA
ATOM     25  H   UNL     1       5.781   2.840  17.640  0.00  0.00    +0.000 HD
ENDBRANCH   4  24
BRANCH   3  26
ATOM     26  C   UNL     1       6.485   5.533  16.107  0.00  0.00    +0.000 C 
BRANCH  26  27
ATOM     27  N   UNL     1       6.472   4.662  14.945  0.00  0.00    +0.000 NA
ATOM     28  C   UNL     1       5.217   4.637  14.199  0.00  0.00    +0.000 C 
ATOM     29  C   UNL     1       5.626   3.713  13.070  0.00  0.00    +0.000 C 
ATOM     30  C   UNL     1       7.043   4.171  12.733  0.00  0.00    +0.000 C 
ATOM     31  C   UNL     1       7.513   4.945  13.964  0.00  0.00    +0.000 C 
ENDBRANCH  26  27
ENDBRANCH   3  26
BRANCH   5  32
ATOM     32  C   UNL     1       2.454   2.920  17.771  0.00  0.00    +0.000 C 
BRANCH  32  33
ATOM     33  N   UNL     1       2.369   2.229  19.076  0.00  0.00    +0.000 NA
ATOM     34  C   UNL     1       1.041   2.237  19.698  0.00  0.00    +0.000 C 
ATOM     35  C   UNL     1       1.065   3.361  20.720  0.00  0.00    +0.000 C 
ATOM     36  C   UNL     1       2.504   3.382  21.196  0.00  0.00    +0.000 C 
ATOM     37  C   UNL     1       3.311   2.696  20.096  0.00  0.00    +0.000 C 
ENDBRANCH  32  33
ENDBRANCH   5  32
TORSDOF 11
ENDMDL
MODEL 6
REMARK VINA RESULT:      -8.2      1.021      4.317
REMARK  Name = 
REMARK  12 active torsions:
REMARK  status: ('A' for Active; 'I' for Inactive)
REMARK    1  A    between atoms: C_1  and  C_2
REMARK    2  A    between atoms: C_2  and  O_3
REMARK    3  A    between atoms: O_3  and  C_4
REMARK    4  A    between atoms: C_4  and  C_6
REMARK    5  A    between atoms: C_7  and  C_8
REMARK    6  A    between atoms: C_11  and  N_12
REMARK    7  A    between atoms: C_13  and  C_15
REMARK    8  A    between atoms: C_17  and  C_18
REMARK    9  A    between atoms: C_18  and  N_19
REMARK   10  A    between atoms: C_24  and  O_25
REMARK   11  A    between atoms: C_26  and  C_27
REMARK   12  A    between atoms: C_27  and  N_28
REMARK                            x       y       z     vdW  Elec       q    Type
REMARK                         _______ _______ _______ _____ _____    ______ ____
ROOT
ATOM      1  C   UNL     1       3.239   6.660  17.815  0.00  0.00    +0.000 A 
ATOM      2  C   UNL     1       2.964   5.391  18.321  0.00  0.00    +0.000 A 
ATOM      3  C   UNL     1       3.607   4.253  17.794  0.00  0.00    +0.000 A 
ATOM      4  C   UNL     1       4.568   4.431  16.790  0.00  0.00    +0.000 A 
ATOM      5  C   UNL     1       4.929   5.715  16.352  0.00  0.00    +0.000 A 
ATOM      6  C   UNL     1       4.182   6.815  16.800  0.00  0.00    +0.000 A 
ENDROOT
BRANCH   1   8
ATOM      7  N   UNL     1       1.895   7.686  19.544  0.00  0.00    +0.000 N 
ATOM      8  C   UNL     1       2.606   7.880  18.370  0.00  0.00    +0.000 C 
ATOM      9  O   UNL     1       2.810   8.938  17.783  0.00  0.00    +0.000 OA
ATOM     10  H   UNL     1       1.870   6.748  19.926  0.00  0.00    +0.000 HD
BRANCH   7  14
ATOM     11  C   UNL     1      -0.109  10.577  21.919  0.00  0.00    +0.000 A 
ATOM     12  C   UNL     1      -0.019  10.745  20.534  0.00  0.00    +0.000 A 
ATOM     13  C   UNL     1       0.639   9.805  19.737  0.00  0.00    +0.000 A 
ATOM     14  C   UNL     1       1.240   8.684  20.305  0.00  0.00    +0.000 A 
ATOM     15  C   UNL     1       1.200   8.539  21.698  0.00  0.00    +0.000 A 
ATOM     16  C   UNL     1       0.532   9.480  22.501  0.00  0.00    +0.000 A 
BRANCH  11  18
ATOM     17  C   UNL     1      -0.684  12.862  22.640  0.00  0.00    +0.000 C 
ATOM     18  C   UNL     1      -0.844  11.534  22.756  0.00  0.00    +0.000 C 
BRANCH  17  19
ATOM     19  C   UNL     1      -1.500  13.793  23.440  0.00  0.00    +0.000 C 
ATOM     20  O   UNL     1      -1.068  14.596  24.249  0.00  0.00    +0.000 OA
BRANCH  19  21
ATOM     21  O   UNL     1      -2.802  13.516  23.177  0.00  0.00    +0.000 OA
BRANCH  21  23
ATOM     22  C   UNL     1      -5.008  14.388  22.882  0.00  0.00    +0.000 C 
ATOM     23  C   UNL     1      -3.538  14.574  22.552  0.00  0.00    +0.000 C 
ENDBRANCH  21  23
ENDBRANCH  19  21
ENDBRANCH  17  19
ENDBRANCH  11  18
ENDBRANCH   7  14
ENDBRANCH   1   8
BRANCH   4  24
ATOM     24  O   UNL     1       5.209   3.361  16.233  0.00  0.00    +0.000 OA
ATOM     25  H   UNL     1       6.055   3.240  16.699  0.00  0.00    +0.000 HD
ENDBRANCH   4  24
BRANCH   3  26
ATOM     26  C   UNL     1       3.293   2.901  18.401  0.00  0.00    +0.000 C 
BRANCH  26  27
ATOM     27  N   UNL     1       2.625   3.055  19.682  0.00  0.00    +0.000 NA
ATOM     28  C   UNL     1       1.280   2.491  19.754  0.00  0.00    +0.000 C 
ATOM     29  C   UNL     1       0.977   2.776  21.211  0.00  0.00    +0.000 C 
ATOM     30  C   UNL     1       2.293   2.455  21.916  0.00  0.00    +0.000 C 
ATOM     31  C   UNL     1       3.352   2.495  20.815  0.00  0.00    +0.000 C 
ENDBRANCH  26  27
ENDBRANCH   3  26
BRANCH   5  32
ATOM     32  C   UNL     1       6.192   5.953  15.550  0.00  0.00    +0.000 C 
BRANCH  32  33
ATOM     33  N   UNL     1       7.451   5.980  16.324  0.00  0.00    +0.000 NA
ATOM     34  C   UNL     1       7.699   4.796  17.152  0.00  0.00    +0.000 C 
ATOM     35  C   UNL     1       7.266   5.172  18.559  0.00  0.00    +0.000 C 
ATOM     36  C   UNL     1       7.567   6.656  18.641  0.00  0.00    +0.000 C 
ATOM     37  C   UNL     1       7.627   7.145  17.196  0.00  0.00    +0.000 C 
ENDBRANCH  32  33
ENDBRANCH   5  32
TORSDOF 11
ENDMDL
MODEL 7
REMARK VINA RESULT:      -8.1      2.419      2.945
REMARK  Name = 
REMARK  12 active torsions:
REMARK  status: ('A' for Active; 'I' for Inactive)
REMARK    1  A    between atoms: C_1  and  C_2
REMARK    2  A    between atoms: C_2  and  O_3
REMARK    3  A    between atoms: O_3  and  C_4
REMARK    4  A    between atoms: C_4  and  C_6
REMARK    5  A    between atoms: C_7  and  C_8
REMARK    6  A    between atoms: C_11  and  N_12
REMARK    7  A    between atoms: C_13  and  C_15
REMARK    8  A    between atoms: C_17  and  C_18
REMARK    9  A    between atoms: C_18  and  N_19
REMARK   10  A    between atoms: C_24  and  O_25
REMARK   11  A    between atoms: C_26  and  C_27
REMARK   12  A    between atoms: C_27  and  N_28
REMARK                            x       y       z     vdW  Elec       q    Type
REMARK                         _______ _______ _______ _____ _____    ______ ____
ROOT
ATOM      1  C   UNL     1       2.918   6.884  18.216  0.00  0.00    +0.000 A 
ATOM      2  C   UNL     1       4.093   7.000  17.475  0.00  0.00    +0.000 A 
ATOM      3  C   UNL     1       4.702   5.860  16.912  0.00  0.00    +0.000 A 
ATOM      4  C   UNL     1       4.073   4.619  17.068  0.00  0.00    +0.000 A 
ATOM      5  C   UNL     1       2.834   4.510  17.719  0.00  0.00    +0.000 A 
ATOM      6  C   UNL     1       2.318   5.637  18.378  0.00  0.00    +0.000 A 
ENDROOT
BRANCH   1   8
ATOM      7  N   UNL     1       2.122   9.151  17.935  0.00  0.00    +0.000 N 
ATOM      8  C   UNL     1       2.233   8.066  18.791  0.00  0.00    +0.000 C 
ATOM      9  O   UNL     1       1.788   7.962  19.929  0.00  0.00    +0.000 OA
ATOM     10  H   UNL     1       2.504   9.050  17.001  0.00  0.00    +0.000 HD
BRANCH   7  14
ATOM     11  C   UNL     1       0.063  12.783  18.697  0.00  0.00    +0.000 A 
ATOM     12  C   UNL     1       1.452  12.783  18.534  0.00  0.00    +0.000 A 
ATOM     13  C   UNL     1       2.146  11.596  18.285  0.00  0.00    +0.000 A 
ATOM     14  C   UNL     1       1.475  10.378  18.212  0.00  0.00    +0.000 A 
ATOM     15  C   UNL     1       0.090  10.366  18.429  0.00  0.00    +0.000 A 
ATOM     16  C   UNL     1      -0.612  11.559  18.672  0.00  0.00    +0.000 A 
BRANCH  11  18
ATOM     17  C   UNL     1      -0.069  15.226  18.991  0.00  0.00    +0.000 C 
ATOM     18  C   UNL     1      -0.679  14.032  18.907  0.00  0.00    +0.000 C 
BRANCH  17  19
ATOM     19  C   UNL     1      -0.853  16.467  19.118  0.00  0.00    +0.000 C 
ATOM     20  O   UNL     1      -0.734  17.454  18.412  0.00  0.00    +0.000 OA
BRANCH  19  21
ATOM     21  O   UNL     1      -1.643  16.334  20.213  0.00  0.00    +0.000 OA
BRANCH  21  23
ATOM     22  C   UNL     1      -1.616  15.832  22.550  0.00  0.00    +0.000 C 
ATOM     23  C   UNL     1      -1.033  16.707  21.455  0.00  0.00    +0.000 C 
ENDBRANCH  21  23
ENDBRANCH  19  21
ENDBRANCH  17  19
ENDBRANCH  11  18
ENDBRANCH   7  14
ENDBRANCH   1   8
BRANCH   4  24
ATOM     24  O   UNL     1       4.629   3.480  16.557  0.00  0.00    +0.000 OA
ATOM     25  H   UNL     1       5.164   3.726  15.783  0.00  0.00    +0.000 HD
ENDBRANCH   4  24
BRANCH   3  26
ATOM     26  C   UNL     1       5.962   6.048  16.091  0.00  0.00    +0.000 C 
BRANCH  26  27
ATOM     27  N   UNL     1       7.082   6.411  16.942  0.00  0.00    +0.000 NA
ATOM     28  C   UNL     1       7.091   7.798  17.399  0.00  0.00    +0.000 C 
ATOM     29  C   UNL     1       8.320   7.751  18.285  0.00  0.00    +0.000 C 
ATOM     30  C   UNL     1       8.192   6.407  18.998  0.00  0.00    +0.000 C 
ATOM     31  C   UNL     1       7.221   5.595  18.142  0.00  0.00    +0.000 C 
ENDBRANCH  26  27
ENDBRANCH   3  26
BRANCH   5  32
ATOM     32  C   UNL     1       1.975   3.270  17.586  0.00  0.00    +0.000 C 
BRANCH  32  33
ATOM     33  N   UNL     1       1.990   2.349  18.744  0.00  0.00    +0.000 NA
ATOM     34  C   UNL     1       0.790   2.388  19.586  0.00  0.00    +0.000 C 
ATOM     35  C   UNL     1       1.139   3.278  20.767  0.00  0.00    +0.000 C 
ATOM     36  C   UNL     1       2.621   3.035  20.974  0.00  0.00    +0.000 C 
ATOM     37  C   UNL     1       3.138   2.491  19.644  0.00  0.00    +0.000 C 
ENDBRANCH  32  33
ENDBRANCH   5  32
TORSDOF 11
ENDMDL
MODEL 8
REMARK VINA RESULT:      -8.1      1.888      2.249
REMARK  Name = 
REMARK  12 active torsions:
REMARK  status: ('A' for Active; 'I' for Inactive)
REMARK    1  A    between atoms: C_1  and  C_2
REMARK    2  A    between atoms: C_2  and  O_3
REMARK    3  A    between atoms: O_3  and  C_4
REMARK    4  A    between atoms: C_4  and  C_6
REMARK    5  A    between atoms: C_7  and  C_8
REMARK    6  A    between atoms: C_11  and  N_12
REMARK    7  A    between atoms: C_13  and  C_15
REMARK    8  A    between atoms: C_17  and  C_18
REMARK    9  A    between atoms: C_18  and  N_19
REMARK   10  A    between atoms: C_24  and  O_25
REMARK   11  A    between atoms: C_26  and  C_27
REMARK   12  A    between atoms: C_27  and  N_28
REMARK                            x       y       z     vdW  Elec       q    Type
REMARK                         _______ _______ _______ _____ _____    ______ ____
ROOT
ATOM      1  C   UNL     1       2.865   6.815  18.251  0.00  0.00    +0.000 A 
ATOM      2  C   UNL     1       4.019   7.064  17.511  0.00  0.00    +0.000 A 
ATOM      3  C   UNL     1       4.721   6.006  16.897  0.00  0.00    +0.000 A 
ATOM      4  C   UNL     1       4.202   4.709  17.002  0.00  0.00    +0.000 A 
ATOM      5  C   UNL     1       2.981   4.466  17.653  0.00  0.00    +0.000 A 
ATOM      6  C   UNL     1       2.376   5.514  18.362  0.00  0.00    +0.000 A 
ENDROOT
BRANCH   1   8
ATOM      7  N   UNL     1       1.513   8.804  17.990  0.00  0.00    +0.000 N 
ATOM      8  C   UNL     1       2.085   7.908  18.880  0.00  0.00    +0.000 C 
ATOM      9  O   UNL     1       1.973   7.891  20.101  0.00  0.00    +0.000 OA
ATOM     10  H   UNL     1       1.664   8.640  17.001  0.00  0.00    +0.000 HD
BRANCH   7  14
ATOM     11  C   UNL     1      -0.893  12.122  19.090  0.00  0.00    +0.000 A 
ATOM     12  C   UNL     1      -1.460  11.035  18.419  0.00  0.00    +0.000 A 
ATOM     13  C   UNL     1      -0.682   9.935  18.046  0.00  0.00    +0.000 A 
ATOM     14  C   UNL     1       0.684   9.902  18.318  0.00  0.00    +0.000 A 
ATOM     15  C   UNL     1       1.267  11.013  18.943  0.00  0.00    +0.000 A 
ATOM     16  C   UNL     1       0.485  12.117  19.325  0.00  0.00    +0.000 A 
BRANCH  11  18
ATOM     17  C   UNL     1      -1.514  13.877  20.705  0.00  0.00    +0.000 C 
ATOM     18  C   UNL     1      -1.714  13.257  19.531  0.00  0.00    +0.000 C 
BRANCH  17  19
ATOM     19  C   UNL     1      -2.303  15.065  21.076  0.00  0.00    +0.000 C 
ATOM     20  O   UNL     1      -2.276  16.139  20.501  0.00  0.00    +0.000 OA
BRANCH  19  21
ATOM     21  O   UNL     1      -2.971  14.764  22.218  0.00  0.00    +0.000 OA
BRANCH  21  23
ATOM     22  C   UNL     1      -4.756  13.172  22.238  0.00  0.00    +0.000 C 
ATOM     23  C   UNL     1      -4.392  14.638  22.079  0.00  0.00    +0.000 C 
ENDBRANCH  21  23
ENDBRANCH  19  21
ENDBRANCH  17  19
ENDBRANCH  11  18
ENDBRANCH   7  14
ENDBRANCH   1   8
BRANCH   4  24
ATOM     24  O   UNL     1       4.850   3.645  16.440  0.00  0.00    +0.000 OA
ATOM     25  H   UNL     1       5.775   3.662  16.740  0.00  0.00    +0.000 HD
ENDBRANCH   4  24
BRANCH   3  26
ATOM     26  C   UNL     1       5.953   6.336  16.081  0.00  0.00    +0.000 C 
BRANCH  26  27
ATOM     27  N   UNL     1       7.086   6.612  16.946  0.00  0.00    +0.000 NA
ATOM     28  C   UNL     1       7.141   7.967  17.487  0.00  0.00    +0.000 C 
ATOM     29  C   UNL     1       8.370   7.827  18.362  0.00  0.00    +0.000 C 
ATOM     30  C   UNL     1       8.202   6.447  18.992  0.00  0.00    +0.000 C 
ATOM     31  C   UNL     1       7.203   5.720  18.094  0.00  0.00    +0.000 C 
ENDBRANCH  26  27
ENDBRANCH   3  26
BRANCH   5  32
ATOM     32  C   UNL     1       2.232   3.163  17.470  0.00  0.00    +0.000 C 
BRANCH  32  33
ATOM     33  N   UNL     1       2.343   2.194  18.583  0.00  0.00    +0.000 NA
ATOM     34  C   UNL     1       1.122   2.013  19.375  0.00  0.00    +0.000 C 
ATOM     35  C   UNL     1       1.294   2.880  20.610  0.00  0.00    +0.000 C 
ATOM     36  C   UNL     1       2.788   2.847  20.867  0.00  0.00    +0.000 C 
ATOM     37  C   UNL     1       3.426   2.454  19.535  0.00  0.00    +0.000 C 
ENDBRANCH  32  33
ENDBRANCH   5  32
TORSDOF 11
ENDMDL
MODEL 9
REMARK VINA RESULT:      -8.0      1.706      2.661
REMARK  Name = 
REMARK  12 active torsions:
REMARK  status: ('A' for Active; 'I' for Inactive)
REMARK    1  A    between atoms: C_1  and  C_2
REMARK    2  A    between atoms: C_2  and  O_3
REMARK    3  A    between atoms: O_3  and  C_4
REMARK    4  A    between atoms: C_4  and  C_6
REMARK    5  A    between atoms: C_7  and  C_8
REMARK    6  A    between atoms: C_11  and  N_12
REMARK    7  A    between atoms: C_13  and  C_15
REMARK    8  A    between atoms: C_17  and  C_18
REMARK    9  A    between atoms: C_18  and  N_19
REMARK   10  A    between atoms: C_24  and  O_25
REMARK   11  A    between atoms: C_26  and  C_27
REMARK   12  A    between atoms: C_27  and  N_28
REMARK                            x       y       z     vdW  Elec       q    Type
REMARK                         _______ _______ _______ _____ _____    ______ ____
ROOT
ATOM      1  C   UNL     1       2.923   6.738  19.627  0.00  0.00    +0.000 A 
ATOM      2  C   UNL     1       4.010   6.818  18.759  0.00  0.00    +0.000 A 
ATOM      3  C   UNL     1       4.902   5.735  18.622  0.00  0.00    +0.000 A 
ATOM      4  C   UNL     1       4.641   4.559  19.337  0.00  0.00    +0.000 A 
ATOM      5  C   UNL     1       3.489   4.432  20.129  0.00  0.00    +0.000 A 
ATOM      6  C   UNL     1       2.692   5.566  20.346  0.00  0.00    +0.000 A 
ENDROOT
BRANCH   1   8
ATOM      7  N   UNL     1       1.619   8.171  21.074  0.00  0.00    +0.000 N 
ATOM      8  C   UNL     1       1.947   7.845  19.768  0.00  0.00    +0.000 C 
ATOM      9  O   UNL     1       1.569   8.396  18.740  0.00  0.00    +0.000 OA
ATOM     10  H   UNL     1       2.067   7.643  21.815  0.00  0.00    +0.000 HD
BRANCH   7  14
ATOM     11  C   UNL     1      -1.043  11.203  22.391  0.00  0.00    +0.000 A 
ATOM     12  C   UNL     1      -0.412  11.313  21.149  0.00  0.00    +0.000 A 
ATOM     13  C   UNL     1       0.469  10.325  20.701  0.00  0.00    +0.000 A 
ATOM     14  C   UNL     1       0.757   9.214  21.489  0.00  0.00    +0.000 A 
ATOM     15  C   UNL     1       0.170   9.127  22.759  0.00  0.00    +0.000 A 
ATOM     16  C   UNL     1      -0.723  10.115  23.209  0.00  0.00    +0.000 A 
BRANCH  11  18
ATOM     17  C   UNL     1      -3.137  12.483  22.169  0.00  0.00    +0.000 C 
ATOM     18  C   UNL     1      -2.009  12.210  22.846  0.00  0.00    +0.000 C 
BRANCH  17  19
ATOM     19  C   UNL     1      -4.124  13.441  22.700  0.00  0.00    +0.000 C 
ATOM     20  O   UNL     1      -3.882  14.342  23.484  0.00  0.00    +0.000 OA
BRANCH  19  21
ATOM     21  O   UNL     1      -5.340  13.064  22.233  0.00  0.00    +0.000 OA
BRANCH  21  23
ATOM     22  C   UNL     1      -6.980  12.584  23.906  0.00  0.00    +0.000 C 
ATOM     23  C   UNL     1      -6.461  13.624  22.929  0.00  0.00    +0.000 C 
ENDBRANCH  21  23
ENDBRANCH  19  21
ENDBRANCH  17  19
ENDBRANCH  11  18
ENDBRANCH   7  14
ENDBRANCH   1   8
BRANCH   4  24
ATOM     24  O   UNL     1       5.482   3.485  19.254  0.00  0.00    +0.000 OA
ATOM     25  H   UNL     1       5.829   3.303  20.144  0.00  0.00    +0.000 HD
ENDBRANCH   4  24
BRANCH   3  26
ATOM     26  C   UNL     1       6.049   5.865  17.642  0.00  0.00    +0.000 C 
BRANCH  26  27
ATOM     27  N   UNL     1       5.815   5.050  16.463  0.00  0.00    +0.000 NA
ATOM     28  C   UNL     1       5.256   5.761  15.316  0.00  0.00    +0.000 C 
ATOM     29  C   UNL     1       5.239   4.625  14.313  0.00  0.00    +0.000 C 
ATOM     30  C   UNL     1       6.563   3.909  14.566  0.00  0.00    +0.000 C 
ATOM     31  C   UNL     1       6.994   4.354  15.963  0.00  0.00    +0.000 C 
ENDBRANCH  26  27
ENDBRANCH   3  26
BRANCH   5  32
ATOM     32  C   UNL     1       3.003   3.080  20.610  0.00  0.00    +0.000 C 
BRANCH  32  33
ATOM     33  N   UNL     1       2.054   2.381  19.717  0.00  0.00    +0.000 NA
ATOM     34  C   UNL     1       2.663   1.714  18.562  0.00  0.00    +0.000 C 
ATOM     35  C   UNL     1       2.484   2.662  17.389  0.00  0.00    +0.000 C 
ATOM     36  C   UNL     1       1.173   3.362  17.692  0.00  0.00    +0.000 C 
ATOM     37  C   UNL     1       0.960   3.204  19.196  0.00  0.00    +0.000 C 
ENDBRANCH  32  33
ENDBRANCH   5  32
TORSDOF 11
ENDMDL
