MODEL 1
REMARK VINA RESULT:      -6.9      0.000      0.000
REMARK  Name = 
REMARK  6 active torsions:
REMARK  status: ('A' for Active; 'I' for Inactive)
REMARK    1  A    between atoms: C_1  and  O_2
REMARK    2  A    between atoms: O_2  and  C_3
REMARK    3  A    between atoms: C_7  and  C_8
REMARK    4  A    between atoms: N_9  and  N_10
REMARK    5  A    between atoms: C_11  and  C_13
REMARK    6  A    between atoms: C_19  and  O_20
REMARK                            x       y       z     vdW  Elec       q    Type
REMARK                         _______ _______ _______ _____ _____    ______ ____
ROOT
ATOM      1  C   UNL     1       7.771   6.490  18.692  0.00  0.00    +0.000 C 
ATOM      2  N   UNL     1       7.892   7.690  18.224  0.00  0.00    +0.000 NA
ENDROOT
BRANCH   1   7
ATOM      3  C   UNL     1       5.625   4.638  16.158  0.00  0.00    +0.000 A 
ATOM      4  C   UNL     1       4.809   3.908  17.033  0.00  0.00    +0.000 A 
ATOM      5  C   UNL     1       4.952   4.018  18.418  0.00  0.00    +0.000 A 
ATOM      6  C   UNL     1       5.919   4.866  18.954  0.00  0.00    +0.000 A 
ATOM      7  C   UNL     1       6.747   5.600  18.095  0.00  0.00    +0.000 A 
ATOM      8  C   UNL     1       6.601   5.487  16.694  0.00  0.00    +0.000 A 
BRANCH   3  10
ATOM      9  C   UNL     1       6.322   3.750  14.046  0.00  0.00    +0.000 C 
ATOM     10  O   UNL     1       5.338   4.405  14.837  0.00  0.00    +0.000 OA
ENDBRANCH   3  10
BRANCH   8  11
ATOM     11  O   UNL     1       7.409   6.199  15.845  0.00  0.00    +0.000 OA
ATOM     12  H   UNL     1       6.896   6.928  15.424  0.00  0.00    +0.000 HD
ENDBRANCH   8  11
ENDBRANCH   1   7
BRANCH   2  13
ATOM     13  N   UNL     1       8.814   8.524  18.755  0.00  0.00    +0.000 N 
ATOM     14  C   UNL     1       8.732   9.867  18.400  0.00  0.00    +0.000 C 
ATOM     15  O   UNL     1       7.879  10.332  17.648  0.00  0.00    +0.000 OA
ATOM     16  H   UNL     1       9.456   8.184  19.458  0.00  0.00    +0.000 HD
BRANCH  14  17
ATOM     17  C   UNL     1       9.734  10.778  19.002  0.00  0.00    +0.000 A 
ATOM     18  C   UNL     1       9.682  11.159  20.342  0.00  0.00    +0.000 A 
ATOM     19  C   UNL     1      10.679  11.995  20.812  0.00  0.00    +0.000 A 
ATOM     20  N   UNL     1      11.692  12.461  20.050  0.00  0.00    +0.000 NA
ATOM     21  C   UNL     1      11.730  12.057  18.762  0.00  0.00    +0.000 A 
ATOM     22  C   UNL     1      10.788  11.221  18.197  0.00  0.00    +0.000 A 
ENDBRANCH  14  17
ENDBRANCH   2  13
TORSDOF 5
ENDMDL
MODEL 2
REMARK VINA RESULT:      -6.8      2.029      2.622
REMARK  Name = 
REMARK  6 active torsions:
REMARK  status: ('A' for Active; 'I' for Inactive)
REMARK    1  A    between atoms: C_1  and  O_2
REMARK    2  A    between atoms: O_2  and  C_3
REMARK    3  A    between atoms: C_7  and  C_8
REMARK    4  A    between atoms: N_9  and  N_10
REMARK    5  A    between atoms: C_11  and  C_13
REMARK    6  A    between atoms: C_19  and  O_20
REMARK                            x       y       z     vdW  Elec       q    Type
REMARK                         _______ _______ _______ _____ _____    ______ ____
ROOT
ATOM      1  C   UNL     1       8.392   7.670  18.521  0.00  0.00    +0.000 C 
ATOM      2  N   UNL     1       8.270   8.918  18.204  0.00  0.00    +0.000 NA
ENDROOT
BRANCH   1   7
ATOM      3  C   UNL     1       5.905   4.800  18.711  0.00  0.00    +0.000 A 
ATOM      4  C   UNL     1       5.169   5.053  17.545  0.00  0.00    +0.000 A 
ATOM      5  C   UNL     1       5.476   6.132  16.714  0.00  0.00    +0.000 A 
ATOM      6  C   UNL     1       6.532   6.982  17.037  0.00  0.00    +0.000 A 
ATOM      7  C   UNL     1       7.277   6.748  18.199  0.00  0.00    +0.000 A 
ATOM      8  C   UNL     1       6.964   5.655  19.039  0.00  0.00    +0.000 A 
BRANCH   3  10
ATOM      9  C   UNL     1       4.114   3.290  19.202  0.00  0.00    +0.000 C 
ATOM     10  O   UNL     1       5.462   3.698  19.396  0.00  0.00    +0.000 OA
ENDBRANCH   3  10
BRANCH   8  11
ATOM     11  O   UNL     1       7.686   5.419  20.182  0.00  0.00    +0.000 OA
ATOM     12  H   UNL     1       7.162   5.686  20.973  0.00  0.00    +0.000 HD
ENDBRANCH   8  11
ENDBRANCH   1   7
BRANCH   2  13
ATOM     13  N   UNL     1       9.270   9.781  18.493  0.00  0.00    +0.000 N 
ATOM     14  C   UNL     1       9.092  11.107  18.109  0.00  0.00    +0.000 C 
ATOM     15  O   UNL     1       8.093  11.533  17.537  0.00  0.00    +0.000 OA
ATOM     16  H   UNL     1      10.051   9.477  19.058  0.00  0.00    +0.000 HD
BRANCH  14  17
ATOM     17  C   UNL     1      10.185  12.051  18.446  0.00  0.00    +0.000 A 
ATOM     18  C   UNL     1      11.281  11.673  19.221  0.00  0.00    +0.000 A 
ATOM     19  C   UNL     1      12.257  12.623  19.459  0.00  0.00    +0.000 A 
ATOM     20  N   UNL     1      12.208  13.887  18.988  0.00  0.00    +0.000 NA
ATOM     21  C   UNL     1      11.147  14.219  18.222  0.00  0.00    +0.000 A 
ATOM     22  C   UNL     1      10.122  13.345  17.921  0.00  0.00    +0.000 A 
ENDBRANCH  14  17
ENDBRANCH   2  13
TORSDOF 5
ENDMDL
MODEL 3
REMARK VINA RESULT:      -6.8      1.526      2.381
REMARK  Name = 
REMARK  6 active torsions:
REMARK  status: ('A' for Active; 'I' for Inactive)
REMARK    1  A    between atoms: C_1  and  O_2
REMARK    2  A    between atoms: O_2  and  C_3
REMARK    3  A    between atoms: C_7  and  C_8
REMARK    4  A    between atoms: N_9  and  N_10
REMARK    5  A    between atoms: C_11  and  C_13
REMARK    6  A    between atoms: C_19  and  O_20
REMARK                            x       y       z     vdW  Elec       q    Type
REMARK                         _______ _______ _______ _____ _____    ______ ____
ROOT
ATOM      1  C   UNL     1       7.733   6.314  18.534  0.00  0.00    +0.000 C 
ATOM      2  N   UNL     1       7.860   7.526  18.099  0.00  0.00    +0.000 NA
ENDROOT
BRANCH   1   7
ATOM      3  C   UNL     1       4.710   4.138  17.770  0.00  0.00    +0.000 A 
ATOM      4  C   UNL     1       5.049   3.714  16.477  0.00  0.00    +0.000 A 
ATOM      5  C   UNL     1       6.237   4.125  15.868  0.00  0.00    +0.000 A 
ATOM      6  C   UNL     1       7.111   4.972  16.547  0.00  0.00    +0.000 A 
ATOM      7  C   UNL     1       6.787   5.409  17.837  0.00  0.00    +0.000 A 
ATOM      8  C   UNL     1       5.585   4.993  18.452  0.00  0.00    +0.000 A 
BRANCH   3  10
ATOM      9  C   UNL     1       2.321   4.296  17.800  0.00  0.00    +0.000 C 
ATOM     10  O   UNL     1       3.512   3.630  18.203  0.00  0.00    +0.000 OA
ENDBRANCH   3  10
BRANCH   8  11
ATOM     11  O   UNL     1       5.257   5.418  19.714  0.00  0.00    +0.000 OA
ATOM     12  H   UNL     1       5.043   6.380  19.701  0.00  0.00    +0.000 HD
ENDBRANCH   8  11
ENDBRANCH   1   7
BRANCH   2  13
ATOM     13  N   UNL     1       8.710   8.372  18.721  0.00  0.00    +0.000 N 
ATOM     14  C   UNL     1       8.647   9.714  18.357  0.00  0.00    +0.000 C 
ATOM     15  O   UNL     1       7.870  10.167  17.520  0.00  0.00    +0.000 OA
ATOM     16  H   UNL     1       9.280   8.042  19.488  0.00  0.00    +0.000 HD
BRANCH  14  17
ATOM     17  C   UNL     1       9.569  10.640  19.057  0.00  0.00    +0.000 A 
ATOM     18  C   UNL     1      10.639  11.255  18.408  0.00  0.00    +0.000 A 
ATOM     19  C   UNL     1      11.427  12.120  19.146  0.00  0.00    +0.000 A 
ATOM     20  N   UNL     1      11.220  12.399  20.451  0.00  0.00    +0.000 NA
ATOM     21  C   UNL     1      10.163  11.807  21.047  0.00  0.00    +0.000 A 
ATOM     22  C   UNL     1       9.313  10.933  20.400  0.00  0.00    +0.000 A 
ENDBRANCH  14  17
ENDBRANCH   2  13
TORSDOF 5
ENDMDL
MODEL 4
REMARK VINA RESULT:      -6.7      2.274      8.290
REMARK  Name = 
REMARK  6 active torsions:
REMARK  status: ('A' for Active; 'I' for Inactive)
REMARK    1  A    between atoms: C_1  and  O_2
REMARK    2  A    between atoms: O_2  and  C_3
REMARK    3  A    between atoms: C_7  and  C_8
REMARK    4  A    between atoms: N_9  and  N_10
REMARK    5  A    between atoms: C_11  and  C_13
REMARK    6  A    between atoms: C_19  and  O_20
REMARK                            x       y       z     vdW  Elec       q    Type
REMARK                         _______ _______ _______ _____ _____    ______ ____
ROOT
ATOM      1  C   UNL     1       8.070  10.224  17.906  0.00  0.00    +0.000 C 
ATOM      2  N   UNL     1       8.403   8.975  17.852  0.00  0.00    +0.000 NA
ENDROOT
BRANCH   1   7
ATOM      3  C   UNL     1      10.023  13.410  18.610  0.00  0.00    +0.000 A 
ATOM      4  C   UNL     1      10.856  12.950  19.639  0.00  0.00    +0.000 A 
ATOM      5  C   UNL     1      10.785  11.631  20.094  0.00  0.00    +0.000 A 
ATOM      6  C   UNL     1       9.875  10.744  19.521  0.00  0.00    +0.000 A 
ATOM      7  C   UNL     1       9.032  11.187  18.494  0.00  0.00    +0.000 A 
ATOM      8  C   UNL     1       9.104  12.521  18.036  0.00  0.00    +0.000 A 
BRANCH   3  10
ATOM      9  C   UNL     1      11.578  15.201  18.286  0.00  0.00    +0.000 C 
ATOM     10  O   UNL     1      10.237  14.727  18.296  0.00  0.00    +0.000 OA
ENDBRANCH   3  10
BRANCH   8  11
ATOM     11  O   UNL     1       8.281  12.965  17.033  0.00  0.00    +0.000 OA
ATOM     12  H   UNL     1       8.528  13.884  16.775  0.00  0.00    +0.000 HD
ENDBRANCH   8  11
ENDBRANCH   1   7
BRANCH   2  13
ATOM     13  N   UNL     1       7.541   8.077  17.327  0.00  0.00    +0.000 N 
ATOM     14  C   UNL     1       7.476   6.829  17.940  0.00  0.00    +0.000 C 
ATOM     15  O   UNL     1       8.143   6.504  18.919  0.00  0.00    +0.000 OA
ATOM     16  H   UNL     1       6.906   8.357  16.592  0.00  0.00    +0.000 HD
BRANCH  14  17
ATOM     17  C   UNL     1       6.514   5.855  17.370  0.00  0.00    +0.000 A 
ATOM     18  C   UNL     1       5.150   5.904  17.655  0.00  0.00    +0.000 A 
ATOM     19  C   UNL     1       4.333   4.964  17.054  0.00  0.00    +0.000 A 
ATOM     20  N   UNL     1       4.781   4.006  16.213  0.00  0.00    +0.000 NA
ATOM     21  C   UNL     1       6.102   3.996  15.937  0.00  0.00    +0.000 A 
ATOM     22  C   UNL     1       7.000   4.893  16.480  0.00  0.00    +0.000 A 
ENDBRANCH  14  17
ENDBRANCH   2  13
TORSDOF 5
ENDMDL
MODEL 5
REMARK VINA RESULT:      -6.7      2.032      2.672
REMARK  Name = 
REMARK  6 active torsions:
REMARK  status: ('A' for Active; 'I' for Inactive)
REMARK    1  A    between atoms: C_1  and  O_2
REMARK    2  A    between atoms: O_2  and  C_3
REMARK    3  A    between atoms: C_7  and  C_8
REMARK    4  A    between atoms: N_9  and  N_10
REMARK    5  A    between atoms: C_11  and  C_13
REMARK    6  A    between atoms: C_19  and  O_20
REMARK                            x       y       z     vdW  Elec       q    Type
REMARK                         _______ _______ _______ _____ _____    ______ ____
ROOT
ATOM      1  C   UNL     1       7.892   7.678  17.628  0.00  0.00    +0.000 C 
ATOM      2  N   UNL     1       7.616   8.934  17.759  0.00  0.00    +0.000 NA
ENDROOT
BRANCH   1   7
ATOM      3  C   UNL     1       5.759   4.713  18.685  0.00  0.00    +0.000 A 
ATOM      4  C   UNL     1       4.666   4.894  17.825  0.00  0.00    +0.000 A 
ATOM      5  C   UNL     1       4.626   5.956  16.919  0.00  0.00    +0.000 A 
ATOM      6  C   UNL     1       5.684   6.860  16.858  0.00  0.00    +0.000 A 
ATOM      7  C   UNL     1       6.782   6.698  17.711  0.00  0.00    +0.000 A 
ATOM      8  C   UNL     1       6.821   5.623  18.628  0.00  0.00    +0.000 A 
BRANCH   3  10
ATOM      9  C   UNL     1       4.347   2.997  19.576  0.00  0.00    +0.000 C 
ATOM     10  O   UNL     1       5.625   3.617  19.499  0.00  0.00    +0.000 OA
ENDBRANCH   3  10
BRANCH   8  11
ATOM     11  O   UNL     1       7.891   5.458  19.470  0.00  0.00    +0.000 OA
ATOM     12  H   UNL     1       8.365   6.314  19.586  0.00  0.00    +0.000 HD
ENDBRANCH   8  11
ENDBRANCH   1   7
BRANCH   2  13
ATOM     13  N   UNL     1       8.610   9.847  17.694  0.00  0.00    +0.000 N 
ATOM     14  C   UNL     1       9.180  10.250  18.898  0.00  0.00    +0.000 C 
ATOM     15  O   UNL     1       8.840   9.826  19.999  0.00  0.00    +0.000 OA
ATOM     16  H   UNL     1       8.979  10.128  16.795  0.00  0.00    +0.000 HD
BRANCH  14  17
ATOM     17  C   UNL     1      10.284  11.236  18.817  0.00  0.00    +0.000 A 
ATOM     18  C   UNL     1      10.757  11.723  17.599  0.00  0.00    +0.000 A 
ATOM     19  C   UNL     1      11.775  12.659  17.633  0.00  0.00    +0.000 A 
ATOM     20  N   UNL     1      12.333  13.123  18.771  0.00  0.00    +0.000 NA
ATOM     21  C   UNL     1      11.840  12.652  19.936  0.00  0.00    +0.000 A 
ATOM     22  C   UNL     1      10.823  11.721  20.012  0.00  0.00    +0.000 A 
ENDBRANCH  14  17
ENDBRANCH   2  13
TORSDOF 5
ENDMDL
MODEL 6
REMARK VINA RESULT:      -6.7      2.271      8.330
REMARK  Name = 
REMARK  6 active torsions:
REMARK  status: ('A' for Active; 'I' for Inactive)
REMARK    1  A    between atoms: C_1  and  O_2
REMARK    2  A    between atoms: O_2  and  C_3
REMARK    3  A    between atoms: C_7  and  C_8
REMARK    4  A    between atoms: N_9  and  N_10
REMARK    5  A    between atoms: C_11  and  C_13
REMARK    6  A    between atoms: C_19  and  O_20
REMARK                            x       y       z     vdW  Elec       q    Type
REMARK                         _______ _______ _______ _____ _____    ______ ____
ROOT
ATOM      1  C   UNL     1       8.200  10.262  17.808  0.00  0.00    +0.000 C 
ATOM      2  N   UNL     1       8.409   9.005  18.026  0.00  0.00    +0.000 NA
ENDROOT
BRANCH   1   7
ATOM      3  C   UNL     1       9.974  13.511  18.676  0.00  0.00    +0.000 A 
ATOM      4  C   UNL     1      10.783  13.061  19.729  0.00  0.00    +0.000 A 
ATOM      5  C   UNL     1      10.753  11.728  20.146  0.00  0.00    +0.000 A 
ATOM      6  C   UNL     1       9.909  10.818  19.512  0.00  0.00    +0.000 A 
ATOM      7  C   UNL     1       9.091  11.250  18.462  0.00  0.00    +0.000 A 
ATOM      8  C   UNL     1       9.122  12.599  18.041  0.00  0.00    +0.000 A 
BRANCH   3  10
ATOM      9  C   UNL     1      11.112  15.212  17.434  0.00  0.00    +0.000 C 
ATOM     10  O   UNL     1      10.140  14.845  18.405  0.00  0.00    +0.000 OA
ENDBRANCH   3  10
BRANCH   8  11
ATOM     11  O   UNL     1       8.322  13.033  17.015  0.00  0.00    +0.000 OA
ATOM     12  H   UNL     1       8.873  13.452  16.313  0.00  0.00    +0.000 HD
ENDBRANCH   8  11
ENDBRANCH   1   7
BRANCH   2  13
ATOM     13  N   UNL     1       7.607   8.084  17.448  0.00  0.00    +0.000 N 
ATOM     14  C   UNL     1       7.581   6.816  18.022  0.00  0.00    +0.000 C 
ATOM     15  O   UNL     1       8.231   6.493  19.012  0.00  0.00    +0.000 OA
ATOM     16  H   UNL     1       6.982   8.357  16.701  0.00  0.00    +0.000 HD
BRANCH  14  17
ATOM     17  C   UNL     1       6.683   5.817  17.394  0.00  0.00    +0.000 A 
ATOM     18  C   UNL     1       6.849   5.395  16.075  0.00  0.00    +0.000 A 
ATOM     19  C   UNL     1       5.971   4.442  15.591  0.00  0.00    +0.000 A 
ATOM     20  N   UNL     1       4.970   3.902  16.318  0.00  0.00    +0.000 NA
ATOM     21  C   UNL     1       4.847   4.312  17.598  0.00  0.00    +0.000 A 
ATOM     22  C   UNL     1       5.673   5.254  18.179  0.00  0.00    +0.000 A 
ENDBRANCH  14  17
ENDBRANCH   2  13
TORSDOF 5
ENDMDL
MODEL 7
REMARK VINA RESULT:      -6.7      1.465      2.131
REMARK  Name = 
REMARK  6 active torsions:
REMARK  status: ('A' for Active; 'I' for Inactive)
REMARK    1  A    between atoms: C_1  and  O_2
REMARK    2  A    between atoms: O_2  and  C_3
REMARK    3  A    between atoms: C_7  and  C_8
REMARK    4  A    between atoms: N_9  and  N_10
REMARK    5  A    between atoms: C_11  and  C_13
REMARK    6  A    between atoms: C_19  and  O_20
REMARK                            x       y       z     vdW  Elec       q    Type
REMARK                         _______ _______ _______ _____ _____    ______ ____
ROOT
ATOM      1  C   UNL     1       7.703   6.455  18.524  0.00  0.00    +0.000 C 
ATOM      2  N   UNL     1       7.916   7.636  18.041  0.00  0.00    +0.000 NA
ENDROOT
BRANCH   1   7
ATOM      3  C   UNL     1       4.765   4.176  17.728  0.00  0.00    +0.000 A 
ATOM      4  C   UNL     1       5.062   3.871  16.393  0.00  0.00    +0.000 A 
ATOM      5  C   UNL     1       6.195   4.394  15.765  0.00  0.00    +0.000 A 
ATOM      6  C   UNL     1       7.056   5.235  16.468  0.00  0.00    +0.000 A 
ATOM      7  C   UNL     1       6.773   5.554  17.801  0.00  0.00    +0.000 A 
ATOM      8  C   UNL     1       5.626   5.025  18.435  0.00  0.00    +0.000 A 
BRANCH   3  10
ATOM      9  C   UNL     1       3.716   2.243  18.675  0.00  0.00    +0.000 C 
ATOM     10  O   UNL     1       3.618   3.571  18.174  0.00  0.00    +0.000 OA
ENDBRANCH   3  10
BRANCH   8  11
ATOM     11  O   UNL     1       5.339   5.335  19.740  0.00  0.00    +0.000 OA
ATOM     12  H   UNL     1       5.179   6.303  19.830  0.00  0.00    +0.000 HD
ENDBRANCH   8  11
ENDBRANCH   1   7
BRANCH   2  13
ATOM     13  N   UNL     1       8.754   8.479  18.685  0.00  0.00    +0.000 N 
ATOM     14  C   UNL     1       8.665   9.830  18.361  0.00  0.00    +0.000 C 
ATOM     15  O   UNL     1       7.876  10.294  17.542  0.00  0.00    +0.000 OA
ATOM     16  H   UNL     1       9.333   8.136  19.439  0.00  0.00    +0.000 HD
BRANCH  14  17
ATOM     17  C   UNL     1       9.574  10.751  19.085  0.00  0.00    +0.000 A 
ATOM     18  C   UNL     1       9.380  11.085  20.425  0.00  0.00    +0.000 A 
ATOM     19  C   UNL     1      10.299  11.934  21.014  0.00  0.00    +0.000 A 
ATOM     20  N   UNL     1      11.364  12.455  20.369  0.00  0.00    +0.000 NA
ATOM     21  C   UNL     1      11.540  12.096  19.080  0.00  0.00    +0.000 A 
ATOM     22  C   UNL     1      10.685  11.251  18.401  0.00  0.00    +0.000 A 
ENDBRANCH  14  17
ENDBRANCH   2  13
TORSDOF 5
ENDMDL
MODEL 8
REMARK VINA RESULT:      -6.6      6.174      7.543
REMARK  Name = 
REMARK  6 active torsions:
REMARK  status: ('A' for Active; 'I' for Inactive)
REMARK    1  A    between atoms: C_1  and  O_2
REMARK    2  A    between atoms: O_2  and  C_3
REMARK    3  A    between atoms: C_7  and  C_8
REMARK    4  A    between atoms: N_9  and  N_10
REMARK    5  A    between atoms: C_11  and  C_13
REMARK    6  A    between atoms: C_19  and  O_20
REMARK                            x       y       z     vdW  Elec       q    Type
REMARK                         _______ _______ _______ _____ _____    ______ ____
ROOT
ATOM      1  C   UNL     1       1.994   5.852  19.922  0.00  0.00    +0.000 C 
ATOM      2  N   UNL     1       2.350   7.091  20.026  0.00  0.00    +0.000 NA
ENDROOT
BRANCH   1   7
ATOM      3  C   UNL     1       4.825   4.092  18.092  0.00  0.00    +0.000 A 
ATOM      4  C   UNL     1       4.077   3.320  17.193  0.00  0.00    +0.000 A 
ATOM      5  C   UNL     1       2.681   3.373  17.180  0.00  0.00    +0.000 A 
ATOM      6  C   UNL     1       2.007   4.204  18.072  0.00  0.00    +0.000 A 
ATOM      7  C   UNL     1       2.738   4.980  18.981  0.00  0.00    +0.000 A 
ATOM      8  C   UNL     1       4.149   4.925  18.993  0.00  0.00    +0.000 A 
BRANCH   3  10
ATOM      9  C   UNL     1       6.844   4.627  16.922  0.00  0.00    +0.000 C 
ATOM     10  O   UNL     1       6.178   3.913  17.956  0.00  0.00    +0.000 OA
ENDBRANCH   3  10
BRANCH   8  11
ATOM     11  O   UNL     1       4.874   5.678  19.882  0.00  0.00    +0.000 OA
ATOM     12  H   UNL     1       4.308   5.933  20.647  0.00  0.00    +0.000 HD
ENDBRANCH   8  11
ENDBRANCH   1   7
BRANCH   2  13
ATOM     13  N   UNL     1       1.685   7.908  20.872  0.00  0.00    +0.000 N 
ATOM     14  C   UNL     1       1.167   9.085  20.339  0.00  0.00    +0.000 C 
ATOM     15  O   UNL     1       1.273   9.415  19.161  0.00  0.00    +0.000 OA
ATOM     16  H   UNL     1       1.492   7.606  21.818  0.00  0.00    +0.000 HD
BRANCH  14  17
ATOM     17  C   UNL     1       0.421   9.966  21.269  0.00  0.00    +0.000 A 
ATOM     18  C   UNL     1       0.286  11.336  21.047  0.00  0.00    +0.000 A 
ATOM     19  C   UNL     1      -0.449  12.066  21.963  0.00  0.00    +0.000 A 
ATOM     20  N   UNL     1      -1.038  11.531  23.054  0.00  0.00    +0.000 NA
ATOM     21  C   UNL     1      -0.910  10.199  23.232  0.00  0.00    +0.000 A 
ATOM     22  C   UNL     1      -0.202   9.380  22.374  0.00  0.00    +0.000 A 
ENDBRANCH  14  17
ENDBRANCH   2  13
TORSDOF 5
ENDMDL
MODEL 9
REMARK VINA RESULT:      -6.6      5.711      7.077
REMARK  Name = 
REMARK  6 active torsions:
REMARK  status: ('A' for Active; 'I' for Inactive)
REMARK    1  A    between atoms: C_1  and  O_2
REMARK    2  A    between atoms: O_2  and  C_3
REMARK    3  A    between atoms: C_7  and  C_8
REMARK    4  A    between atoms: N_9  and  N_10
REMARK    5  A    between atoms: C_11  and  C_13
REMARK    6  A    between atoms: C_19  and  O_20
REMARK                            x       y       z     vdW  Elec       q    Type
REMARK                         _______ _______ _______ _____ _____    ______ ____
ROOT
ATOM      1  C   UNL     1       3.377   6.134  19.444  0.00  0.00    +0.000 C 
ATOM      2  N   UNL     1       2.495   7.046  19.188  0.00  0.00    +0.000 NA
ENDROOT
BRANCH   1   7
ATOM      3  C   UNL     1       5.339   5.302  16.295  0.00  0.00    +0.000 A 
ATOM      4  C   UNL     1       5.057   3.932  16.201  0.00  0.00    +0.000 A 
ATOM      5  C   UNL     1       4.244   3.293  17.140  0.00  0.00    +0.000 A 
ATOM      6  C   UNL     1       3.696   4.019  18.195  0.00  0.00    +0.000 A 
ATOM      7  C   UNL     1       3.969   5.387  18.308  0.00  0.00    +0.000 A 
ATOM      8  C   UNL     1       4.793   6.032  17.358  0.00  0.00    +0.000 A 
BRANCH   3  10
ATOM      9  C   UNL     1       6.788   4.787  14.460  0.00  0.00    +0.000 C 
ATOM     10  O   UNL     1       6.149   5.753  15.285  0.00  0.00    +0.000 OA
ENDBRANCH   3  10
BRANCH   8  11
ATOM     11  O   UNL     1       5.069   7.372  17.462  0.00  0.00    +0.000 OA
ATOM     12  H   UNL     1       4.405   7.808  18.045  0.00  0.00    +0.000 HD
ENDBRANCH   8  11
ENDBRANCH   1   7
BRANCH   2  13
ATOM     13  N   UNL     1       1.935   7.737  20.206  0.00  0.00    +0.000 N 
ATOM     14  C   UNL     1       1.270   8.915  19.881  0.00  0.00    +0.000 C 
ATOM     15  O   UNL     1       1.160   9.354  18.740  0.00  0.00    +0.000 OA
ATOM     16  H   UNL     1       1.920   7.340  21.137  0.00  0.00    +0.000 HD
BRANCH  14  17
ATOM     17  C   UNL     1       0.642   9.657  21.001  0.00  0.00    +0.000 A 
ATOM     18  C   UNL     1       0.202  10.973  20.866  0.00  0.00    +0.000 A 
ATOM     19  C   UNL     1      -0.392  11.568  21.964  0.00  0.00    +0.000 A 
ATOM     20  N   UNL     1      -0.567  10.950  23.151  0.00  0.00    +0.000 NA
ATOM     21  C   UNL     1      -0.153   9.669  23.246  0.00  0.00    +0.000 A 
ATOM     22  C   UNL     1       0.446   8.983  22.209  0.00  0.00    +0.000 A 
ENDBRANCH  14  17
ENDBRANCH   2  13
TORSDOF 5
ENDMDL
