MODEL 1
REMARK VINA RESULT:      -8.1      0.000      0.000
REMARK  Name = 
REMARK  8 active torsions:
REMARK  status: ('A' for Active; 'I' for Inactive)
REMARK    1  A    between atoms: C_4  and  C_5
REMARK    2  A    between atoms: C_8  and  O_9
REMARK    3  A    between atoms: O_9  and  C_10
REMARK    4  A    between atoms: C_10  and  C_11
REMARK    5  A    between atoms: C_11  and  O_12
REMARK    6  A    between atoms: C_11  and  C_13
REMARK    7  A    between atoms: C_13  and  O_14
REMARK    8  A    between atoms: N_21  and  C_22
REMARK                            x       y       z     vdW  Elec       q    Type
REMARK                         _______ _______ _______ _____ _____    ______ ____
ROOT
ATOM      1  N   UNL     1      -0.859  11.343  17.730  0.00  0.00    +0.000 N 
ATOM      2  C   UNL     1      -0.225  10.631  18.711  0.00  0.00    +0.000 A 
ATOM      3  N   UNL     1       0.636   9.696  18.396  0.00  0.00    +0.000 NA
ATOM      4  C   UNL     1       1.252   8.994  19.422  0.00  0.00    +0.000 A 
ATOM      5  C   UNL     1       1.063   9.274  20.724  0.00  0.00    +0.000 A 
ATOM      6  N   UNL     1       0.181  10.243  21.064  0.00  0.00    +0.000 N 
ATOM      7  C   UNL     1      -0.220  10.677  22.296  0.00  0.00    +0.000 A 
ATOM      8  O   UNL     1       0.181  10.246  23.369  0.00  0.00    +0.000 OA
ATOM      9  N   UNL     1      -1.172  11.692  22.019  0.00  0.00    +0.000 N 
ATOM     10  N   UNL     1      -1.335  11.848  20.634  0.00  0.00    +0.000 NA
ATOM     11  C   UNL     1      -0.511  10.954  20.161  0.00  0.00    +0.000 A 
ATOM     12  H   UNL     1      -0.395  11.304  16.829  0.00  0.00    +0.000 HD
ATOM     13  H   UNL     1      -1.212  12.257  17.994  0.00  0.00    +0.000 HD
ENDROOT
BRANCH   4  14
ATOM     14  C   UNL     1       2.154   7.870  19.072  0.00  0.00    +0.000 A 
ATOM     15  C   UNL     1       2.227   6.742  19.897  0.00  0.00    +0.000 A 
ATOM     16  C   UNL     1       3.082   5.687  19.601  0.00  0.00    +0.000 A 
ATOM     17  C   UNL     1       3.872   5.716  18.455  0.00  0.00    +0.000 A 
ATOM     18  C   UNL     1       3.787   6.816  17.601  0.00  0.00    +0.000 A 
ATOM     19  C   UNL     1       2.933   7.886  17.905  0.00  0.00    +0.000 A 
BRANCH  17  20
ATOM     20  O   UNL     1       4.739   4.716  18.088  0.00  0.00    +0.000 OA
BRANCH  20  21
ATOM     21  C   UNL     1       4.509   4.195  16.777  0.00  0.00    +0.000 C 
BRANCH  21  22
ATOM     22  C   UNL     1       5.790   4.125  15.956  0.00  0.00    +0.000 C 
BRANCH  22  23
ATOM     23  O   UNL     1       5.542   4.718  14.674  0.00  0.00    +0.000 OA
ATOM     24  H   UNL     1       6.400   4.972  14.290  0.00  0.00    +0.000 HD
ENDBRANCH  22  23
BRANCH  22  25
ATOM     25  C   UNL     1       6.950   4.837  16.663  0.00  0.00    +0.000 C 
BRANCH  25  26
ATOM     26  O   UNL     1       7.373   4.109  17.815  0.00  0.00    +0.000 OA
ATOM     27  H   UNL     1       8.221   4.488  18.108  0.00  0.00    +0.000 HD
ENDBRANCH  25  26
ENDBRANCH  22  25
ENDBRANCH  21  22
ENDBRANCH  20  21
ENDBRANCH  17  20
ENDBRANCH   4  14
BRANCH   9  28
ATOM     28  C   UNL     1      -1.885  12.496  22.930  0.00  0.00    +0.000 A 
ATOM     29  C   UNL     1      -1.357  13.708  23.398  0.00  0.00    +0.000 A 
ATOM     30  C   UNL     1      -2.082  14.516  24.276  0.00  0.00    +0.000 A 
ATOM     31  C   UNL     1      -3.343  14.120  24.707  0.00  0.00    +0.000 A 
ATOM     32  C   UNL     1      -3.876  12.912  24.264  0.00  0.00    +0.000 A 
ATOM     33  C   UNL     1      -3.152  12.106  23.381  0.00  0.00    +0.000 A 
ENDBRANCH   9  28
TORSDOF 8
ENDMDL
MODEL 2
REMARK VINA RESULT:      -8.0      0.549      1.339
REMARK  Name = 
REMARK  8 active torsions:
REMARK  status: ('A' for Active; 'I' for Inactive)
REMARK    1  A    between atoms: C_4  and  C_5
REMARK    2  A    between atoms: C_8  and  O_9
REMARK    3  A    between atoms: O_9  and  C_10
REMARK    4  A    between atoms: C_10  and  C_11
REMARK    5  A    between atoms: C_11  and  O_12
REMARK    6  A    between atoms: C_11  and  C_13
REMARK    7  A    between atoms: C_13  and  O_14
REMARK    8  A    between atoms: N_21  and  C_22
REMARK                            x       y       z     vdW  Elec       q    Type
REMARK                         _______ _______ _______ _____ _____    ______ ____
ROOT
ATOM      1  N   UNL     1      -0.945  11.479  17.828  0.00  0.00    +0.000 N 
ATOM      2  C   UNL     1      -0.328  10.752  18.809  0.00  0.00    +0.000 A 
ATOM      3  N   UNL     1       0.525   9.810  18.494  0.00  0.00    +0.000 NA
ATOM      4  C   UNL     1       1.125   9.092  19.520  0.00  0.00    +0.000 A 
ATOM      5  C   UNL     1       0.929   9.366  20.823  0.00  0.00    +0.000 A 
ATOM      6  N   UNL     1       0.056  10.343  21.163  0.00  0.00    +0.000 N 
ATOM      7  C   UNL     1      -0.349  10.774  22.394  0.00  0.00    +0.000 A 
ATOM      8  O   UNL     1       0.039  10.331  23.467  0.00  0.00    +0.000 OA
ATOM      9  N   UNL     1      -1.287  11.801  22.118  0.00  0.00    +0.000 N 
ATOM     10  N   UNL     1      -1.437  11.969  20.732  0.00  0.00    +0.000 NA
ATOM     11  C   UNL     1      -0.621  11.069  20.259  0.00  0.00    +0.000 A 
ATOM     12  H   UNL     1      -0.474  11.440  16.931  0.00  0.00    +0.000 HD
ATOM     13  H   UNL     1      -1.290  12.395  18.096  0.00  0.00    +0.000 HD
ENDROOT
BRANCH   4  14
ATOM     14  C   UNL     1       2.016   7.961  19.169  0.00  0.00    +0.000 A 
ATOM     15  C   UNL     1       2.807   8.018  18.016  0.00  0.00    +0.000 A 
ATOM     16  C   UNL     1       3.632   6.960  17.655  0.00  0.00    +0.000 A 
ATOM     17  C   UNL     1       3.712   5.820  18.451  0.00  0.00    +0.000 A 
ATOM     18  C   UNL     1       2.957   5.759  19.623  0.00  0.00    +0.000 A 
ATOM     19  C   UNL     1       2.116   6.822  19.982  0.00  0.00    +0.000 A 
BRANCH  17  20
ATOM     20  O   UNL     1       4.503   4.734  18.169  0.00  0.00    +0.000 OA
BRANCH  20  21
ATOM     21  C   UNL     1       4.969   4.685  16.819  0.00  0.00    +0.000 C 
BRANCH  21  22
ATOM     22  C   UNL     1       6.479   4.863  16.728  0.00  0.00    +0.000 C 
BRANCH  22  23
ATOM     23  O   UNL     1       7.087   4.150  17.814  0.00  0.00    +0.000 OA
ATOM     24  H   UNL     1       6.394   3.958  18.472  0.00  0.00    +0.000 HD
ENDBRANCH  22  23
BRANCH  22  25
ATOM     25  C   UNL     1       7.023   4.362  15.384  0.00  0.00    +0.000 C 
BRANCH  25  26
ATOM     26  O   UNL     1       7.721   5.397  14.695  0.00  0.00    +0.000 OA
ATOM     27  H   UNL     1       8.654   5.355  14.966  0.00  0.00    +0.000 HD
ENDBRANCH  25  26
ENDBRANCH  22  25
ENDBRANCH  21  22
ENDBRANCH  20  21
ENDBRANCH  17  20
ENDBRANCH   4  14
BRANCH   9  28
ATOM     28  C   UNL     1      -1.996  12.608  23.029  0.00  0.00    +0.000 A 
ATOM     29  C   UNL     1      -1.446  13.795  23.532  0.00  0.00    +0.000 A 
ATOM     30  C   UNL     1      -2.167  14.607  24.410  0.00  0.00    +0.000 A 
ATOM     31  C   UNL     1      -3.448  14.238  24.805  0.00  0.00    +0.000 A 
ATOM     32  C   UNL     1      -4.004  13.055  24.328  0.00  0.00    +0.000 A 
ATOM     33  C   UNL     1      -3.284  12.246  23.444  0.00  0.00    +0.000 A 
ENDBRANCH   9  28
TORSDOF 8
ENDMDL
MODEL 3
REMARK VINA RESULT:      -8.0      0.665      1.446
REMARK  Name = 
REMARK  8 active torsions:
REMARK  status: ('A' for Active; 'I' for Inactive)
REMARK    1  A    between atoms: C_4  and  C_5
REMARK    2  A    between atoms: C_8  and  O_9
REMARK    3  A    between atoms: O_9  and  C_10
REMARK    4  A    between atoms: C_10  and  C_11
REMARK    5  A    between atoms: C_11  and  O_12
REMARK    6  A    between atoms: C_11  and  C_13
REMARK    7  A    between atoms: C_13  and  O_14
REMARK    8  A    between atoms: N_21  and  C_22
REMARK                            x       y       z     vdW  Elec       q    Type
REMARK                         _______ _______ _______ _____ _____    ______ ____
ROOT
ATOM      1  N   UNL     1      -0.947  11.266  17.599  0.00  0.00    +0.000 N 
ATOM      2  C   UNL     1      -0.266  10.593  18.577  0.00  0.00    +0.000 A 
ATOM      3  N   UNL     1       0.625   9.689  18.256  0.00  0.00    +0.000 NA
ATOM      4  C   UNL     1       1.290   9.026  19.278  0.00  0.00    +0.000 A 
ATOM      5  C   UNL     1       1.115   9.316  20.581  0.00  0.00    +0.000 A 
ATOM      6  N   UNL     1       0.202  10.253  20.926  0.00  0.00    +0.000 N 
ATOM      7  C   UNL     1      -0.193  10.688  22.160  0.00  0.00    +0.000 A 
ATOM      8  O   UNL     1       0.246  10.287  23.230  0.00  0.00    +0.000 OA
ATOM      9  N   UNL     1      -1.190  11.659  21.890  0.00  0.00    +0.000 N 
ATOM     10  N   UNL     1      -1.386  11.790  20.506  0.00  0.00    +0.000 NA
ATOM     11  C   UNL     1      -0.537  10.924  20.028  0.00  0.00    +0.000 A 
ATOM     12  H   UNL     1      -0.499  11.233  16.690  0.00  0.00    +0.000 HD
ATOM     13  H   UNL     1      -1.332  12.169  17.859  0.00  0.00    +0.000 HD
ENDROOT
BRANCH   4  14
ATOM     14  C   UNL     1       2.229   7.935  18.924  0.00  0.00    +0.000 A 
ATOM     15  C   UNL     1       3.019   8.031  17.773  0.00  0.00    +0.000 A 
ATOM     16  C   UNL     1       3.889   7.010  17.409  0.00  0.00    +0.000 A 
ATOM     17  C   UNL     1       4.017   5.872  18.201  0.00  0.00    +0.000 A 
ATOM     18  C   UNL     1       3.264   5.774  19.372  0.00  0.00    +0.000 A 
ATOM     19  C   UNL     1       2.377   6.799  19.734  0.00  0.00    +0.000 A 
BRANCH  17  20
ATOM     20  O   UNL     1       4.855   4.822  17.916  0.00  0.00    +0.000 OA
BRANCH  20  21
ATOM     21  C   UNL     1       5.297   4.778  16.559  0.00  0.00    +0.000 C 
BRANCH  21  22
ATOM     22  C   UNL     1       6.815   4.714  16.452  0.00  0.00    +0.000 C 
BRANCH  22  23
ATOM     23  O   UNL     1       7.268   5.865  15.725  0.00  0.00    +0.000 OA
ATOM     24  H   UNL     1       6.486   6.392  15.480  0.00  0.00    +0.000 HD
ENDBRANCH  22  23
BRANCH  22  25
ATOM     25  C   UNL     1       7.473   4.658  17.836  0.00  0.00    +0.000 C 
BRANCH  25  26
ATOM     26  O   UNL     1       7.652   5.967  18.373  0.00  0.00    +0.000 OA
ATOM     27  H   UNL     1       8.517   5.987  18.818  0.00  0.00    +0.000 HD
ENDBRANCH  25  26
ENDBRANCH  22  25
ENDBRANCH  21  22
ENDBRANCH  20  21
ENDBRANCH  17  20
ENDBRANCH   4  14
BRANCH   9  28
ATOM     28  C   UNL     1      -1.916  12.446  22.804  0.00  0.00    +0.000 A 
ATOM     29  C   UNL     1      -3.162  12.029  23.295  0.00  0.00    +0.000 A 
ATOM     30  C   UNL     1      -3.863  12.799  24.226  0.00  0.00    +0.000 A 
ATOM     31  C   UNL     1      -3.331  14.003  24.674  0.00  0.00    +0.000 A 
ATOM     32  C   UNL     1      -2.103  14.439  24.186  0.00  0.00    +0.000 A 
ATOM     33  C   UNL     1      -1.399  13.666  23.259  0.00  0.00    +0.000 A 
ENDBRANCH   9  28
TORSDOF 8
ENDMDL
MODEL 4
REMARK VINA RESULT:      -7.9      1.191      1.894
REMARK  Name = 
REMARK  8 active torsions:
REMARK  status: ('A' for Active; 'I' for Inactive)
REMARK    1  A    between atoms: C_4  and  C_5
REMARK    2  A    between atoms: C_8  and  O_9
REMARK    3  A    between atoms: O_9  and  C_10
REMARK    4  A    between atoms: C_10  and  C_11
REMARK    5  A    between atoms: C_11  and  O_12
REMARK    6  A    between atoms: C_11  and  C_13
REMARK    7  A    between atoms: C_13  and  O_14
REMARK    8  A    between atoms: N_21  and  C_22
REMARK                            x       y       z     vdW  Elec       q    Type
REMARK                         _______ _______ _______ _____ _____    ______ ____
ROOT
ATOM      1  N   UNL     1      -0.924  11.650  17.823  0.00  0.00    +0.000 N 
ATOM      2  C   UNL     1      -0.318  10.892  18.788  0.00  0.00    +0.000 A 
ATOM      3  N   UNL     1       0.536   9.959  18.452  0.00  0.00    +0.000 NA
ATOM      4  C   UNL     1       1.125   9.209  19.461  0.00  0.00    +0.000 A 
ATOM      5  C   UNL     1       0.916   9.443  20.770  0.00  0.00    +0.000 A 
ATOM      6  N   UNL     1       0.041  10.410  21.131  0.00  0.00    +0.000 N 
ATOM      7  C   UNL     1      -0.377  10.803  22.371  0.00  0.00    +0.000 A 
ATOM      8  O   UNL     1      -0.001  10.326  23.434  0.00  0.00    +0.000 OA
ATOM      9  N   UNL     1      -1.310  11.839  22.117  0.00  0.00    +0.000 N 
ATOM     10  N   UNL     1      -1.446  12.051  20.736  0.00  0.00    +0.000 NA
ATOM     11  C   UNL     1      -0.626  11.165  20.244  0.00  0.00    +0.000 A 
ATOM     12  H   UNL     1      -0.445  11.639  16.931  0.00  0.00    +0.000 HD
ATOM     13  H   UNL     1      -1.271  12.559  18.116  0.00  0.00    +0.000 HD
ENDROOT
BRANCH   4  14
ATOM     14  C   UNL     1       2.018   8.088  19.084  0.00  0.00    +0.000 A 
ATOM     15  C   UNL     1       2.207   7.012  19.960  0.00  0.00    +0.000 A 
ATOM     16  C   UNL     1       3.057   5.962  19.637  0.00  0.00    +0.000 A 
ATOM     17  C   UNL     1       3.725   5.940  18.416  0.00  0.00    +0.000 A 
ATOM     18  C   UNL     1       3.523   6.986  17.515  0.00  0.00    +0.000 A 
ATOM     19  C   UNL     1       2.674   8.052  17.844  0.00  0.00    +0.000 A 
BRANCH  17  20
ATOM     20  O   UNL     1       4.579   4.940  18.019  0.00  0.00    +0.000 OA
BRANCH  20  21
ATOM     21  C   UNL     1       4.011   4.027  17.078  0.00  0.00    +0.000 C 
BRANCH  21  22
ATOM     22  C   UNL     1       3.643   2.696  17.722  0.00  0.00    +0.000 C 
BRANCH  22  23
ATOM     23  O   UNL     1       4.505   2.483  18.849  0.00  0.00    +0.000 OA
ATOM     24  H   UNL     1       4.012   1.960  19.508  0.00  0.00    +0.000 HD
ENDBRANCH  22  23
BRANCH  22  25
ATOM     25  C   UNL     1       2.172   2.670  18.156  0.00  0.00    +0.000 C 
BRANCH  25  26
ATOM     26  O   UNL     1       1.808   1.386  18.657  0.00  0.00    +0.000 OA
ATOM     27  H   UNL     1       1.847   1.426  19.629  0.00  0.00    +0.000 HD
ENDBRANCH  25  26
ENDBRANCH  22  25
ENDBRANCH  21  22
ENDBRANCH  20  21
ENDBRANCH  17  20
ENDBRANCH   4  14
BRANCH   9  28
ATOM     28  C   UNL     1      -2.028  12.618  23.046  0.00  0.00    +0.000 A 
ATOM     29  C   UNL     1      -1.514  13.828  23.533  0.00  0.00    +0.000 A 
ATOM     30  C   UNL     1      -2.245  14.611  24.429  0.00  0.00    +0.000 A 
ATOM     31  C   UNL     1      -3.499  14.192  24.857  0.00  0.00    +0.000 A 
ATOM     32  C   UNL     1      -4.018  12.986  24.396  0.00  0.00    +0.000 A 
ATOM     33  C   UNL     1      -3.289  12.205  23.494  0.00  0.00    +0.000 A 
ENDBRANCH   9  28
TORSDOF 8
ENDMDL
MODEL 5
REMARK VINA RESULT:      -7.9      1.082      2.016
REMARK  Name = 
REMARK  8 active torsions:
REMARK  status: ('A' for Active; 'I' for Inactive)
REMARK    1  A    between atoms: C_4  and  C_5
REMARK    2  A    between atoms: C_8  and  O_9
REMARK    3  A    between atoms: O_9  and  C_10
REMARK    4  A    between atoms: C_10  and  C_11
REMARK    5  A    between atoms: C_11  and  O_12
REMARK    6  A    between atoms: C_11  and  C_13
REMARK    7  A    between atoms: C_13  and  O_14
REMARK    8  A    between atoms: N_21  and  C_22
REMARK                            x       y       z     vdW  Elec       q    Type
REMARK                         _______ _______ _______ _____ _____    ______ ____
ROOT
ATOM      1  N   UNL     1      -1.099  11.469  17.737  0.00  0.00    +0.000 N 
ATOM      2  C   UNL     1      -0.426  10.785  18.713  0.00  0.00    +0.000 A 
ATOM      3  N   UNL     1       0.457   9.875  18.390  0.00  0.00    +0.000 NA
ATOM      4  C   UNL     1       1.114   9.201  19.410  0.00  0.00    +0.000 A 
ATOM      5  C   UNL     1       0.940   9.487  20.713  0.00  0.00    +0.000 A 
ATOM      6  N   UNL     1       0.035  10.431  21.061  0.00  0.00    +0.000 N 
ATOM      7  C   UNL     1      -0.358  10.864  22.296  0.00  0.00    +0.000 A 
ATOM      8  O   UNL     1       0.076  10.455  23.365  0.00  0.00    +0.000 OA
ATOM      9  N   UNL     1      -1.345  11.845  22.029  0.00  0.00    +0.000 N 
ATOM     10  N   UNL     1      -1.538  11.984  20.646  0.00  0.00    +0.000 NA
ATOM     11  C   UNL     1      -0.696  11.113  20.165  0.00  0.00    +0.000 A 
ATOM     12  H   UNL     1      -0.651  11.436  16.829  0.00  0.00    +0.000 HD
ATOM     13  H   UNL     1      -1.476  12.374  18.000  0.00  0.00    +0.000 HD
ENDROOT
BRANCH   4  14
ATOM     14  C   UNL     1       2.044   8.103  19.052  0.00  0.00    +0.000 A 
ATOM     15  C   UNL     1       2.201   7.007  19.909  0.00  0.00    +0.000 A 
ATOM     16  C   UNL     1       3.084   5.977  19.605  0.00  0.00    +0.000 A 
ATOM     17  C   UNL     1       3.818   5.998  18.422  0.00  0.00    +0.000 A 
ATOM     18  C   UNL     1       3.648   7.065  17.539  0.00  0.00    +0.000 A 
ATOM     19  C   UNL     1       2.765   8.110  17.849  0.00  0.00    +0.000 A 
BRANCH  17  20
ATOM     20  O   UNL     1       4.707   5.021  18.046  0.00  0.00    +0.000 OA
BRANCH  20  21
ATOM     21  C   UNL     1       4.194   4.106  17.076  0.00  0.00    +0.000 C 
BRANCH  21  22
ATOM     22  C   UNL     1       3.857   2.752  17.688  0.00  0.00    +0.000 C 
BRANCH  22  23
ATOM     23  O   UNL     1       4.662   2.571  18.861  0.00  0.00    +0.000 OA
ATOM     24  H   UNL     1       4.212   1.926  19.437  0.00  0.00    +0.000 HD
ENDBRANCH  22  23
BRANCH  22  25
ATOM     25  C   UNL     1       2.367   2.649  18.036  0.00  0.00    +0.000 C 
BRANCH  25  26
ATOM     26  O   UNL     1       1.602   3.608  17.307  0.00  0.00    +0.000 OA
ATOM     27  H   UNL     1       1.537   4.410  17.854  0.00  0.00    +0.000 HD
ENDBRANCH  25  26
ENDBRANCH  22  25
ENDBRANCH  21  22
ENDBRANCH  20  21
ENDBRANCH  17  20
ENDBRANCH   4  14
BRANCH   9  28
ATOM     28  C   UNL     1      -2.066  12.636  22.946  0.00  0.00    +0.000 A 
ATOM     29  C   UNL     1      -3.366  12.291  23.339  0.00  0.00    +0.000 A 
ATOM     30  C   UNL     1      -4.063  13.060  24.273  0.00  0.00    +0.000 A 
ATOM     31  C   UNL     1      -3.473  14.192  24.822  0.00  0.00    +0.000 A 
ATOM     32  C   UNL     1      -2.187  14.558  24.431  0.00  0.00    +0.000 A 
ATOM     33  C   UNL     1      -1.488  13.785  23.501  0.00  0.00    +0.000 A 
ENDBRANCH   9  28
TORSDOF 8
ENDMDL
MODEL 6
REMARK VINA RESULT:      -7.9      0.486      1.017
REMARK  Name = 
REMARK  8 active torsions:
REMARK  status: ('A' for Active; 'I' for Inactive)
REMARK    1  A    between atoms: C_4  and  C_5
REMARK    2  A    between atoms: C_8  and  O_9
REMARK    3  A    between atoms: O_9  and  C_10
REMARK    4  A    between atoms: C_10  and  C_11
REMARK    5  A    between atoms: C_11  and  O_12
REMARK    6  A    between atoms: C_11  and  C_13
REMARK    7  A    between atoms: C_13  and  O_14
REMARK    8  A    between atoms: N_21  and  C_22
REMARK                            x       y       z     vdW  Elec       q    Type
REMARK                         _______ _______ _______ _____ _____    ______ ____
ROOT
ATOM      1  N   UNL     1      -0.944  11.314  17.660  0.00  0.00    +0.000 N 
ATOM      2  C   UNL     1      -0.280  10.629  18.641  0.00  0.00    +0.000 A 
ATOM      3  N   UNL     1       0.598   9.711  18.324  0.00  0.00    +0.000 NA
ATOM      4  C   UNL     1       1.246   9.036  19.349  0.00  0.00    +0.000 A 
ATOM      5  C   UNL     1       1.070   9.329  20.651  0.00  0.00    +0.000 A 
ATOM      6  N   UNL     1       0.171  10.281  20.992  0.00  0.00    +0.000 N 
ATOM      7  C   UNL     1      -0.222  10.722  22.224  0.00  0.00    +0.000 A 
ATOM      8  O   UNL     1       0.206  10.314  23.297  0.00  0.00    +0.000 OA
ATOM      9  N   UNL     1      -1.201  11.710  21.950  0.00  0.00    +0.000 N 
ATOM     10  N   UNL     1      -1.388  11.845  20.566  0.00  0.00    +0.000 NA
ATOM     11  C   UNL     1      -0.551  10.965  20.091  0.00  0.00    +0.000 A 
ATOM     12  H   UNL     1      -0.493  11.274  16.754  0.00  0.00    +0.000 HD
ATOM     13  H   UNL     1      -1.315  12.224  17.919  0.00  0.00    +0.000 HD
ENDROOT
BRANCH   4  14
ATOM     14  C   UNL     1       2.168   7.929  18.999  0.00  0.00    +0.000 A 
ATOM     15  C   UNL     1       2.230   6.784  19.801  0.00  0.00    +0.000 A 
ATOM     16  C   UNL     1       3.104   5.744  19.505  0.00  0.00    +0.000 A 
ATOM     17  C   UNL     1       3.924   5.806  18.383  0.00  0.00    +0.000 A 
ATOM     18  C   UNL     1       3.852   6.925  17.552  0.00  0.00    +0.000 A 
ATOM     19  C   UNL     1       2.979   7.979  17.855  0.00  0.00    +0.000 A 
BRANCH  17  20
ATOM     20  O   UNL     1       4.811   4.823  18.017  0.00  0.00    +0.000 OA
BRANCH  20  21
ATOM     21  C   UNL     1       4.482   4.164  16.793  0.00  0.00    +0.000 C 
BRANCH  21  22
ATOM     22  C   UNL     1       5.668   4.099  15.840  0.00  0.00    +0.000 C 
BRANCH  22  23
ATOM     23  O   UNL     1       5.371   4.901  14.689  0.00  0.00    +0.000 OA
ATOM     24  H   UNL     1       6.212   5.249  14.341  0.00  0.00    +0.000 HD
ENDBRANCH  22  23
BRANCH  22  25
ATOM     25  C   UNL     1       6.957   4.583  16.516  0.00  0.00    +0.000 C 
BRANCH  25  26
ATOM     26  O   UNL     1       7.454   5.763  15.888  0.00  0.00    +0.000 OA
ATOM     27  H   UNL     1       7.650   6.410  16.589  0.00  0.00    +0.000 HD
ENDBRANCH  25  26
ENDBRANCH  22  25
ENDBRANCH  21  22
ENDBRANCH  20  21
ENDBRANCH  17  20
ENDBRANCH   4  14
BRANCH   9  28
ATOM     28  C   UNL     1      -1.918  12.510  22.862  0.00  0.00    +0.000 A 
ATOM     29  C   UNL     1      -3.184  12.127  23.326  0.00  0.00    +0.000 A 
ATOM     30  C   UNL     1      -3.877  12.907  24.254  0.00  0.00    +0.000 A 
ATOM     31  C   UNL     1      -3.316  14.089  24.726  0.00  0.00    +0.000 A 
ATOM     32  C   UNL     1      -2.066  14.492  24.264  0.00  0.00    +0.000 A 
ATOM     33  C   UNL     1      -1.371  13.707  23.339  0.00  0.00    +0.000 A 
ENDBRANCH   9  28
TORSDOF 8
ENDMDL
MODEL 7
REMARK VINA RESULT:      -7.9      1.625      2.221
REMARK  Name = 
REMARK  8 active torsions:
REMARK  status: ('A' for Active; 'I' for Inactive)
REMARK    1  A    between atoms: C_4  and  C_5
REMARK    2  A    between atoms: C_8  and  O_9
REMARK    3  A    between atoms: O_9  and  C_10
REMARK    4  A    between atoms: C_10  and  C_11
REMARK    5  A    between atoms: C_11  and  O_12
REMARK    6  A    between atoms: C_11  and  C_13
REMARK    7  A    between atoms: C_13  and  O_14
REMARK    8  A    between atoms: N_21  and  C_22
REMARK                            x       y       z     vdW  Elec       q    Type
REMARK                         _______ _______ _______ _____ _____    ______ ____
ROOT
ATOM      1  N   UNL     1       0.179  11.324  18.104  0.00  0.00    +0.000 N 
ATOM      2  C   UNL     1       0.433  10.466  19.139  0.00  0.00    +0.000 A 
ATOM      3  N   UNL     1       1.161   9.396  18.943  0.00  0.00    +0.000 NA
ATOM      4  C   UNL     1       1.392   8.549  20.018  0.00  0.00    +0.000 A 
ATOM      5  C   UNL     1       0.965   8.811  21.268  0.00  0.00    +0.000 A 
ATOM      6  N   UNL     1       0.218   9.918  21.485  0.00  0.00    +0.000 N 
ATOM      7  C   UNL     1      -0.368  10.375  22.632  0.00  0.00    +0.000 A 
ATOM      8  O   UNL     1      -0.305   9.834  23.729  0.00  0.00    +0.000 OA
ATOM      9  N   UNL     1      -1.034  11.563  22.239  0.00  0.00    +0.000 N 
ATOM     10  N   UNL     1      -0.846  11.801  20.868  0.00  0.00    +0.000 NA
ATOM     11  C   UNL     1      -0.112  10.784  20.514  0.00  0.00    +0.000 A 
ATOM     12  H   UNL     1       0.820  11.230  17.325  0.00  0.00    +0.000 HD
ATOM     13  H   UNL     1      -0.056  12.279  18.358  0.00  0.00    +0.000 HD
ENDROOT
BRANCH   4  14
ATOM     14  C   UNL     1       2.132   7.286  19.782  0.00  0.00    +0.000 A 
ATOM     15  C   UNL     1       1.922   6.180  20.614  0.00  0.00    +0.000 A 
ATOM     16  C   UNL     1       2.622   4.994  20.425  0.00  0.00    +0.000 A 
ATOM     17  C   UNL     1       3.535   4.868  19.382  0.00  0.00    +0.000 A 
ATOM     18  C   UNL     1       3.733   5.949  18.522  0.00  0.00    +0.000 A 
ATOM     19  C   UNL     1       3.035   7.150  18.717  0.00  0.00    +0.000 A 
BRANCH  17  20
ATOM     20  O   UNL     1       4.264   3.733  19.125  0.00  0.00    +0.000 OA
BRANCH  20  21
ATOM     21  C   UNL     1       3.738   2.551  19.732  0.00  0.00    +0.000 C 
BRANCH  21  22
ATOM     22  C   UNL     1       3.046   1.647  18.720  0.00  0.00    +0.000 C 
BRANCH  22  23
ATOM     23  O   UNL     1       1.654   1.567  19.060  0.00  0.00    +0.000 OA
ATOM     24  H   UNL     1       1.589   1.423  20.022  0.00  0.00    +0.000 HD
ENDBRANCH  22  23
BRANCH  22  25
ATOM     25  C   UNL     1       3.221   2.170  17.289  0.00  0.00    +0.000 C 
BRANCH  25  26
ATOM     26  O   UNL     1       2.191   3.097  16.951  0.00  0.00    +0.000 OA
ATOM     27  H   UNL     1       1.337   2.645  17.066  0.00  0.00    +0.000 HD
ENDBRANCH  25  26
ENDBRANCH  22  25
ENDBRANCH  21  22
ENDBRANCH  20  21
ENDBRANCH  17  20
ENDBRANCH   4  14
BRANCH   9  28
ATOM     28  C   UNL     1      -1.778  12.455  23.036  0.00  0.00    +0.000 A 
ATOM     29  C   UNL     1      -1.255  13.698  23.421  0.00  0.00    +0.000 A 
ATOM     30  C   UNL     1      -2.009  14.590  24.184  0.00  0.00    +0.000 A 
ATOM     31  C   UNL     1      -3.298  14.250  24.582  0.00  0.00    +0.000 A 
ATOM     32  C   UNL     1      -3.827  13.014  24.222  0.00  0.00    +0.000 A 
ATOM     33  C   UNL     1      -3.074  12.123  23.452  0.00  0.00    +0.000 A 
ENDBRANCH   9  28
TORSDOF 8
ENDMDL
MODEL 8
REMARK VINA RESULT:      -7.8      1.457      2.183
REMARK  Name = 
REMARK  8 active torsions:
REMARK  status: ('A' for Active; 'I' for Inactive)
REMARK    1  A    between atoms: C_4  and  C_5
REMARK    2  A    between atoms: C_8  and  O_9
REMARK    3  A    between atoms: O_9  and  C_10
REMARK    4  A    between atoms: C_10  and  C_11
REMARK    5  A    between atoms: C_11  and  O_12
REMARK    6  A    between atoms: C_11  and  C_13
REMARK    7  A    between atoms: C_13  and  O_14
REMARK    8  A    between atoms: N_21  and  C_22
REMARK                            x       y       z     vdW  Elec       q    Type
REMARK                         _______ _______ _______ _____ _____    ______ ____
ROOT
ATOM      1  N   UNL     1      -0.547  12.202  17.927  0.00  0.00    +0.000 N 
ATOM      2  C   UNL     1      -0.098  11.324  18.876  0.00  0.00    +0.000 A 
ATOM      3  N   UNL     1       0.693  10.337  18.538  0.00  0.00    +0.000 NA
ATOM      4  C   UNL     1       1.122   9.466  19.530  0.00  0.00    +0.000 A 
ATOM      5  C   UNL     1       0.824   9.628  20.832  0.00  0.00    +0.000 A 
ATOM      6  N   UNL     1       0.013  10.649  21.196  0.00  0.00    +0.000 N 
ATOM      7  C   UNL     1      -0.472  10.994  22.426  0.00  0.00    +0.000 A 
ATOM      8  O   UNL     1      -0.234  10.410  23.475  0.00  0.00    +0.000 OA
ATOM      9  N   UNL     1      -1.281  12.132  22.179  0.00  0.00    +0.000 N 
ATOM     10  N   UNL     1      -1.278  12.450  20.812  0.00  0.00    +0.000 NA
ATOM     11  C   UNL     1      -0.503  11.524  20.319  0.00  0.00    +0.000 A 
ATOM     12  H   UNL     1       0.004  12.206  17.077  0.00  0.00    +0.000 HD
ATOM     13  H   UNL     1      -0.833  13.118  18.261  0.00  0.00    +0.000 HD
ENDROOT
BRANCH   4  14
ATOM     14  C   UNL     1       1.938   8.292  19.139  0.00  0.00    +0.000 A 
ATOM     15  C   UNL     1       2.614   8.279  17.914  0.00  0.00    +0.000 A 
ATOM     16  C   UNL     1       3.365   7.179  17.517  0.00  0.00    +0.000 A 
ATOM     17  C   UNL     1       3.487   6.068  18.347  0.00  0.00    +0.000 A 
ATOM     18  C   UNL     1       2.849   6.076  19.588  0.00  0.00    +0.000 A 
ATOM     19  C   UNL     1       2.082   7.181  19.984  0.00  0.00    +0.000 A 
BRANCH  17  20
ATOM     20  O   UNL     1       4.212   4.944  18.033  0.00  0.00    +0.000 OA
BRANCH  20  21
ATOM     21  C   UNL     1       3.892   3.802  18.829  0.00  0.00    +0.000 C 
BRANCH  21  22
ATOM     22  C   UNL     1       3.739   2.541  17.986  0.00  0.00    +0.000 C 
BRANCH  22  23
ATOM     23  O   UNL     1       4.284   1.436  18.720  0.00  0.00    +0.000 OA
ATOM     24  H   UNL     1       3.559   0.810  18.902  0.00  0.00    +0.000 HD
ENDBRANCH  22  23
BRANCH  22  25
ATOM     25  C   UNL     1       2.270   2.279  17.630  0.00  0.00    +0.000 C 
BRANCH  25  26
ATOM     26  O   UNL     1       1.541   3.501  17.527  0.00  0.00    +0.000 OA
ATOM     27  H   UNL     1       1.109   3.660  18.385  0.00  0.00    +0.000 HD
ENDBRANCH  25  26
ENDBRANCH  22  25
ENDBRANCH  21  22
ENDBRANCH  20  21
ENDBRANCH  17  20
ENDBRANCH   4  14
BRANCH   9  28
ATOM     28  C   UNL     1      -2.003  12.911  23.105  0.00  0.00    +0.000 A 
ATOM     29  C   UNL     1      -1.437  14.051  23.694  0.00  0.00    +0.000 A 
ATOM     30  C   UNL     1      -2.167  14.837  24.587  0.00  0.00    +0.000 A 
ATOM     31  C   UNL     1      -3.474  14.491  24.911  0.00  0.00    +0.000 A 
ATOM     32  C   UNL     1      -4.047  13.354  24.347  0.00  0.00    +0.000 A 
ATOM     33  C   UNL     1      -3.317  12.570  23.449  0.00  0.00    +0.000 A 
ENDBRANCH   9  28
TORSDOF 8
ENDMDL
MODEL 9
REMARK VINA RESULT:      -7.8      1.039      1.732
REMARK  Name = 
REMARK  8 active torsions:
REMARK  status: ('A' for Active; 'I' for Inactive)
REMARK    1  A    between atoms: C_4  and  C_5
REMARK    2  A    between atoms: C_8  and  O_9
REMARK    3  A    between atoms: O_9  and  C_10
REMARK    4  A    between atoms: C_10  and  C_11
REMARK    5  A    between atoms: C_11  and  O_12
REMARK    6  A    between atoms: C_11  and  C_13
REMARK    7  A    between atoms: C_13  and  O_14
REMARK    8  A    between atoms: N_21  and  C_22
REMARK                            x       y       z     vdW  Elec       q    Type
REMARK                         _______ _______ _______ _____ _____    ______ ____
ROOT
ATOM      1  N   UNL     1      -0.801  11.269  17.737  0.00  0.00    +0.000 N 
ATOM      2  C   UNL     1      -0.195  10.555  18.736  0.00  0.00    +0.000 A 
ATOM      3  N   UNL     1       0.655   9.603  18.443  0.00  0.00    +0.000 NA
ATOM      4  C   UNL     1       1.243   8.900  19.485  0.00  0.00    +0.000 A 
ATOM      5  C   UNL     1       1.038   9.196  20.781  0.00  0.00    +0.000 A 
ATOM      6  N   UNL     1       0.167  10.183  21.098  0.00  0.00    +0.000 N 
ATOM      7  C   UNL     1      -0.246  10.636  22.319  0.00  0.00    +0.000 A 
ATOM      8  O   UNL     1       0.131  10.208  23.403  0.00  0.00    +0.000 OA
ATOM      9  N   UNL     1      -1.176  11.663  22.018  0.00  0.00    +0.000 N 
ATOM     10  N   UNL     1      -1.314  11.809  20.629  0.00  0.00    +0.000 NA
ATOM     11  C   UNL     1      -0.499  10.897  20.178  0.00  0.00    +0.000 A 
ATOM     12  H   UNL     1      -0.323  11.213  16.845  0.00  0.00    +0.000 HD
ATOM     13  H   UNL     1      -1.143  12.191  17.987  0.00  0.00    +0.000 HD
ENDROOT
BRANCH   4  14
ATOM     14  C   UNL     1       2.131   7.758  19.160  0.00  0.00    +0.000 A 
ATOM     15  C   UNL     1       2.245   6.680  20.045  0.00  0.00    +0.000 A 
ATOM     16  C   UNL     1       3.089   5.611  19.772  0.00  0.00    +0.000 A 
ATOM     17  C   UNL     1       3.825   5.572  18.591  0.00  0.00    +0.000 A 
ATOM     18  C   UNL     1       3.698   6.621  17.679  0.00  0.00    +0.000 A 
ATOM     19  C   UNL     1       2.855   7.707  17.959  0.00  0.00    +0.000 A 
BRANCH  17  20
ATOM     20  O   UNL     1       4.677   4.553  18.243  0.00  0.00    +0.000 OA
BRANCH  20  21
ATOM     21  C   UNL     1       5.971   4.991  17.824  0.00  0.00    +0.000 C 
BRANCH  21  22
ATOM     22  C   UNL     1       6.640   5.881  18.864  0.00  0.00    +0.000 C 
BRANCH  22  23
ATOM     23  O   UNL     1       7.157   5.047  19.910  0.00  0.00    +0.000 OA
ATOM     24  H   UNL     1       7.924   4.562  19.556  0.00  0.00    +0.000 HD
ENDBRANCH  22  23
BRANCH  22  25
ATOM     25  C   UNL     1       7.760   6.724  18.243  0.00  0.00    +0.000 C 
BRANCH  25  26
ATOM     26  O   UNL     1       7.368   7.245  16.975  0.00  0.00    +0.000 OA
ATOM     27  H   UNL     1       8.052   6.994  16.329  0.00  0.00    +0.000 HD
ENDBRANCH  25  26
ENDBRANCH  22  25
ENDBRANCH  21  22
ENDBRANCH  20  21
ENDBRANCH  17  20
ENDBRANCH   4  14
BRANCH   9  28
ATOM     28  C   UNL     1      -1.889  12.488  22.910  0.00  0.00    +0.000 A 
ATOM     29  C   UNL     1      -3.151  12.116  23.394  0.00  0.00    +0.000 A 
ATOM     30  C   UNL     1      -3.839  12.923  24.303  0.00  0.00    +0.000 A 
ATOM     31  C   UNL     1      -3.278  14.119  24.735  0.00  0.00    +0.000 A 
ATOM     32  C   UNL     1      -2.033  14.511  24.253  0.00  0.00    +0.000 A 
ATOM     33  C   UNL     1      -1.342  13.701  23.348  0.00  0.00    +0.000 A 
ENDBRANCH   9  28
TORSDOF 8
ENDMDL
