MODEL 1
REMARK VINA RESULT:      -7.3      0.000      0.000
REMARK  Name = 
REMARK  10 active torsions:
REMARK  status: ('A' for Active; 'I' for Inactive)
REMARK    1  A    between atoms: C_1  and  C_2
REMARK    2  A    between atoms: C_2  and  O_3
REMARK    3  A    between atoms: O_3  and  C_4
REMARK    4  A    between atoms: C_4  and  C_6
REMARK    5  A    between atoms: C_6  and  C_7
REMARK    6  A    between atoms: C_6  and  C_19
REMARK    7  A    between atoms: C_7  and  C_8
REMARK    8  A    between atoms: C_8  and  C_9
REMARK    9  A    between atoms: C_9  and  C_10
REMARK   10  A    between atoms: C_13  and  N_14
REMARK                            x       y       z     vdW  Elec       q    Type
REMARK                         _______ _______ _______ _____ _____    ______ ____
ROOT
ATOM      1  C   UNL     1       4.174   5.745  18.741  0.00  0.00    +0.000 C 
ENDROOT
BRANCH   1   2
ATOM      2  C   UNL     1       3.008   4.841  19.139  0.00  0.00    +0.000 A 
ATOM      3  C   UNL     1       2.362   4.074  18.154  0.00  0.00    +0.000 A 
ATOM      4  C   UNL     1       1.270   3.264  18.477  0.00  0.00    +0.000 A 
ATOM      5  C   UNL     1       0.804   3.207  19.787  0.00  0.00    +0.000 A 
ATOM      6  C   UNL     1       1.451   3.933  20.782  0.00  0.00    +0.000 A 
ATOM      7  C   UNL     1       2.553   4.730  20.463  0.00  0.00    +0.000 A 
ENDBRANCH   1   2
BRANCH   1   8
ATOM      8  C   UNL     1       5.512   5.005  18.646  0.00  0.00    +0.000 C 
ATOM      9  O   UNL     1       5.852   4.059  19.344  0.00  0.00    +0.000 OA
BRANCH   8  10
ATOM     10  O   UNL     1       6.332   5.621  17.744  0.00  0.00    +0.000 OA
BRANCH  10  12
ATOM     11  C   UNL     1       7.629   7.617  17.695  0.00  0.00    +0.000 C 
ATOM     12  C   UNL     1       7.495   6.238  18.319  0.00  0.00    +0.000 C 
ENDBRANCH  10  12
ENDBRANCH   8  10
ENDBRANCH   1   8
BRANCH   1  13
ATOM     13  C   UNL     1       3.875   6.598  17.493  0.00  0.00    +0.000 C 
BRANCH  13  14
ATOM     14  C   UNL     1       3.368   8.014  17.788  0.00  0.00    +0.000 C 
BRANCH  14  15
ATOM     15  C   UNL     1       1.841   8.070  17.895  0.00  0.00    +0.000 C 
BRANCH  15  16
ATOM     16  C   UNL     1       1.415   8.731  19.185  0.00  0.00    +0.000 A 
ATOM     17  C   UNL     1       1.048  10.081  19.203  0.00  0.00    +0.000 A 
ATOM     18  C   UNL     1       0.712  10.706  20.409  0.00  0.00    +0.000 A 
ATOM     19  C   UNL     1       0.732  10.008  21.619  0.00  0.00    +0.000 A 
ATOM     20  C   UNL     1       1.106   8.653  21.595  0.00  0.00    +0.000 A 
ATOM     21  C   UNL     1       1.442   8.026  20.393  0.00  0.00    +0.000 A 
BRANCH  19  22
ATOM     22  N   UNL     1       0.438  10.727  22.790  0.00  0.00    +0.000 NA
ATOM     23  N   UNL     1      -0.771  10.928  23.000  0.00  0.00    +0.000 NA
ATOM     24  N   UNL     1      -1.876  11.116  23.215  0.00  0.00    +0.000 NA
ENDBRANCH  19  22
ENDBRANCH  15  16
ENDBRANCH  14  15
ENDBRANCH  13  14
ENDBRANCH   1  13
TORSDOF 9
ENDMDL
MODEL 2
REMARK VINA RESULT:      -7.1      1.074      1.728
REMARK  Name = 
REMARK  10 active torsions:
REMARK  status: ('A' for Active; 'I' for Inactive)
REMARK    1  A    between atoms: C_1  and  C_2
REMARK    2  A    between atoms: C_2  and  O_3
REMARK    3  A    between atoms: O_3  and  C_4
REMARK    4  A    between atoms: C_4  and  C_6
REMARK    5  A    between atoms: C_6  and  C_7
REMARK    6  A    between atoms: C_6  and  C_19
REMARK    7  A    between atoms: C_7  and  C_8
REMARK    8  A    between atoms: C_8  and  C_9
REMARK    9  A    between atoms: C_9  and  C_10
REMARK   10  A    between atoms: C_13  and  N_14
REMARK                            x       y       z     vdW  Elec       q    Type
REMARK                         _______ _______ _______ _____ _____    ______ ____
ROOT
ATOM      1  C   UNL     1       4.044   5.500  18.899  0.00  0.00    +0.000 C 
ENDROOT
BRANCH   1   2
ATOM      2  C   UNL     1       3.090   4.429  19.426  0.00  0.00    +0.000 A 
ATOM      3  C   UNL     1       2.284   4.714  20.541  0.00  0.00    +0.000 A 
ATOM      4  C   UNL     1       1.427   3.745  21.073  0.00  0.00    +0.000 A 
ATOM      5  C   UNL     1       1.363   2.478  20.501  0.00  0.00    +0.000 A 
ATOM      6  C   UNL     1       2.129   2.189  19.376  0.00  0.00    +0.000 A 
ATOM      7  C   UNL     1       2.973   3.161  18.835  0.00  0.00    +0.000 A 
ENDBRANCH   1   2
BRANCH   1   8
ATOM      8  C   UNL     1       5.456   4.973  18.620  0.00  0.00    +0.000 C 
ATOM      9  O   UNL     1       6.352   4.872  19.448  0.00  0.00    +0.000 OA
BRANCH   8  10
ATOM     10  O   UNL     1       5.619   4.735  17.285  0.00  0.00    +0.000 OA
BRANCH  10  12
ATOM     11  C   UNL     1       6.820   4.953  15.241  0.00  0.00    +0.000 C 
ATOM     12  C   UNL     1       6.843   5.244  16.733  0.00  0.00    +0.000 C 
ENDBRANCH  10  12
ENDBRANCH   8  10
ENDBRANCH   1   8
BRANCH   1  13
ATOM     13  C   UNL     1       3.462   6.295  17.713  0.00  0.00    +0.000 C 
BRANCH  13  14
ATOM     14  C   UNL     1       3.398   7.811  17.925  0.00  0.00    +0.000 C 
BRANCH  14  15
ATOM     15  C   UNL     1       1.964   8.345  17.855  0.00  0.00    +0.000 C 
BRANCH  15  16
ATOM     16  C   UNL     1       1.515   8.863  19.202  0.00  0.00    +0.000 A 
ATOM     17  C   UNL     1       1.766   8.127  20.364  0.00  0.00    +0.000 A 
ATOM     18  C   UNL     1       1.298   8.580  21.603  0.00  0.00    +0.000 A 
ATOM     19  C   UNL     1       0.573   9.769  21.714  0.00  0.00    +0.000 A 
ATOM     20  C   UNL     1       0.320  10.502  20.541  0.00  0.00    +0.000 A 
ATOM     21  C   UNL     1       0.787  10.053  19.303  0.00  0.00    +0.000 A 
BRANCH  19  22
ATOM     22  N   UNL     1       0.088  10.120  22.986  0.00  0.00    +0.000 NA
ATOM     23  N   UNL     1      -0.506  11.210  23.044  0.00  0.00    +0.000 NA
ATOM     24  N   UNL     1      -1.062  12.205  23.118  0.00  0.00    +0.000 NA
ENDBRANCH  19  22
ENDBRANCH  15  16
ENDBRANCH  14  15
ENDBRANCH  13  14
ENDBRANCH   1  13
TORSDOF 9
ENDMDL
MODEL 3
REMARK VINA RESULT:      -7.0      3.810      5.567
REMARK  Name = 
REMARK  10 active torsions:
REMARK  status: ('A' for Active; 'I' for Inactive)
REMARK    1  A    between atoms: C_1  and  C_2
REMARK    2  A    between atoms: C_2  and  O_3
REMARK    3  A    between atoms: O_3  and  C_4
REMARK    4  A    between atoms: C_4  and  C_6
REMARK    5  A    between atoms: C_6  and  C_7
REMARK    6  A    between atoms: C_6  and  C_19
REMARK    7  A    between atoms: C_7  and  C_8
REMARK    8  A    between atoms: C_8  and  C_9
REMARK    9  A    between atoms: C_9  and  C_10
REMARK   10  A    between atoms: C_13  and  N_14
REMARK                            x       y       z     vdW  Elec       q    Type
REMARK                         _______ _______ _______ _____ _____    ______ ____
ROOT
ATOM      1  C   UNL     1       5.700   5.236  17.298  0.00  0.00    +0.000 C 
ENDROOT
BRANCH   1   2
ATOM      2  C   UNL     1       5.995   4.808  15.861  0.00  0.00    +0.000 A 
ATOM      3  C   UNL     1       7.137   5.309  15.213  0.00  0.00    +0.000 A 
ATOM      4  C   UNL     1       7.418   4.967  13.887  0.00  0.00    +0.000 A 
ATOM      5  C   UNL     1       6.562   4.122  13.186  0.00  0.00    +0.000 A 
ATOM      6  C   UNL     1       5.444   3.591  13.821  0.00  0.00    +0.000 A 
ATOM      7  C   UNL     1       5.173   3.918  15.152  0.00  0.00    +0.000 A 
ENDBRANCH   1   2
BRANCH   1   8
ATOM      8  C   UNL     1       6.701   4.679  18.315  0.00  0.00    +0.000 C 
ATOM      9  O   UNL     1       7.919   4.694  18.194  0.00  0.00    +0.000 OA
BRANCH   8  10
ATOM     10  O   UNL     1       6.043   4.052  19.335  0.00  0.00    +0.000 OA
BRANCH  10  12
ATOM     11  C   UNL     1       4.476   2.377  19.973  0.00  0.00    +0.000 C 
ATOM     12  C   UNL     1       4.782   3.473  18.965  0.00  0.00    +0.000 C 
ENDBRANCH  10  12
ENDBRANCH   8  10
ENDBRANCH   1   8
BRANCH   1  13
ATOM     13  C   UNL     1       5.488   6.756  17.443  0.00  0.00    +0.000 C 
BRANCH  13  14
ATOM     14  C   UNL     1       4.182   7.283  16.839  0.00  0.00    +0.000 C 
BRANCH  14  15
ATOM     15  C   UNL     1       3.168   7.681  17.916  0.00  0.00    +0.000 C 
BRANCH  15  16
ATOM     16  C   UNL     1       2.472   6.463  18.478  0.00  0.00    +0.000 A 
ATOM     17  C   UNL     1       2.331   6.302  19.860  0.00  0.00    +0.000 A 
ATOM     18  C   UNL     1       1.739   5.146  20.380  0.00  0.00    +0.000 A 
ATOM     19  C   UNL     1       1.277   4.127  19.543  0.00  0.00    +0.000 A 
ATOM     20  C   UNL     1       1.426   4.293  18.155  0.00  0.00    +0.000 A 
ATOM     21  C   UNL     1       2.016   5.447  17.633  0.00  0.00    +0.000 A 
BRANCH  19  22
ATOM     22  N   UNL     1       0.751   2.974  20.150  0.00  0.00    +0.000 NA
ATOM     23  N   UNL     1       1.212   2.710  21.274  0.00  0.00    +0.000 NA
ATOM     24  N   UNL     1       1.616   2.454  22.311  0.00  0.00    +0.000 NA
ENDBRANCH  19  22
ENDBRANCH  15  16
ENDBRANCH  14  15
ENDBRANCH  13  14
ENDBRANCH   1  13
TORSDOF 9
ENDMDL
MODEL 4
REMARK VINA RESULT:      -7.0      0.763      1.610
REMARK  Name = 
REMARK  10 active torsions:
REMARK  status: ('A' for Active; 'I' for Inactive)
REMARK    1  A    between atoms: C_1  and  C_2
REMARK    2  A    between atoms: C_2  and  O_3
REMARK    3  A    between atoms: O_3  and  C_4
REMARK    4  A    between atoms: C_4  and  C_6
REMARK    5  A    between atoms: C_6  and  C_7
REMARK    6  A    between atoms: C_6  and  C_19
REMARK    7  A    between atoms: C_7  and  C_8
REMARK    8  A    between atoms: C_8  and  C_9
REMARK    9  A    between atoms: C_9  and  C_10
REMARK   10  A    between atoms: C_13  and  N_14
REMARK                            x       y       z     vdW  Elec       q    Type
REMARK                         _______ _______ _______ _____ _____    ______ ____
ROOT
ATOM      1  C   UNL     1       4.050   5.780  18.842  0.00  0.00    +0.000 C 
ENDROOT
BRANCH   1   2
ATOM      2  C   UNL     1       2.926   4.775  19.091  0.00  0.00    +0.000 A 
ATOM      3  C   UNL     1       2.249   4.789  20.322  0.00  0.00    +0.000 A 
ATOM      4  C   UNL     1       1.241   3.861  20.598  0.00  0.00    +0.000 A 
ATOM      5  C   UNL     1       0.893   2.903  19.649  0.00  0.00    +0.000 A 
ATOM      6  C   UNL     1       1.529   2.895  18.412  0.00  0.00    +0.000 A 
ATOM      7  C   UNL     1       2.525   3.834  18.130  0.00  0.00    +0.000 A 
ENDBRANCH   1   2
BRANCH   1   8
ATOM      8  C   UNL     1       5.397   5.120  18.531  0.00  0.00    +0.000 C 
ATOM      9  O   UNL     1       5.986   4.331  19.259  0.00  0.00    +0.000 OA
BRANCH   8  10
ATOM     10  O   UNL     1       5.916   5.622  17.372  0.00  0.00    +0.000 OA
BRANCH  10  12
ATOM     11  C   UNL     1       7.435   7.393  17.845  0.00  0.00    +0.000 C 
ATOM     12  C   UNL     1       7.316   5.935  17.430  0.00  0.00    +0.000 C 
ENDBRANCH  10  12
ENDBRANCH   8  10
ENDBRANCH   1   8
BRANCH   1  13
ATOM     13  C   UNL     1       3.670   6.867  17.817  0.00  0.00    +0.000 C 
BRANCH  13  14
ATOM     14  C   UNL     1       2.197   7.291  17.846  0.00  0.00    +0.000 C 
BRANCH  14  15
ATOM     15  C   UNL     1       2.031   8.809  17.729  0.00  0.00    +0.000 C 
BRANCH  15  16
ATOM     16  C   UNL     1       1.304   9.365  18.932  0.00  0.00    +0.000 A 
ATOM     17  C   UNL     1       1.461   8.776  20.191  0.00  0.00    +0.000 A 
ATOM     18  C   UNL     1       0.742   9.256  21.291  0.00  0.00    +0.000 A 
ATOM     19  C   UNL     1      -0.147  10.327  21.166  0.00  0.00    +0.000 A 
ATOM     20  C   UNL     1      -0.304  10.911  19.897  0.00  0.00    +0.000 A 
ATOM     21  C   UNL     1       0.413  10.435  18.797  0.00  0.00    +0.000 A 
BRANCH  19  22
ATOM     22  N   UNL     1      -0.874  10.706  22.307  0.00  0.00    +0.000 NA
ATOM     23  N   UNL     1      -0.631  11.848  22.735  0.00  0.00    +0.000 NA
ATOM     24  N   UNL     1      -0.429  12.897  23.138  0.00  0.00    +0.000 NA
ENDBRANCH  19  22
ENDBRANCH  15  16
ENDBRANCH  14  15
ENDBRANCH  13  14
ENDBRANCH   1  13
TORSDOF 9
ENDMDL
MODEL 5
REMARK VINA RESULT:      -7.0      1.095      1.463
REMARK  Name = 
REMARK  10 active torsions:
REMARK  status: ('A' for Active; 'I' for Inactive)
REMARK    1  A    between atoms: C_1  and  C_2
REMARK    2  A    between atoms: C_2  and  O_3
REMARK    3  A    between atoms: O_3  and  C_4
REMARK    4  A    between atoms: C_4  and  C_6
REMARK    5  A    between atoms: C_6  and  C_7
REMARK    6  A    between atoms: C_6  and  C_19
REMARK    7  A    between atoms: C_7  and  C_8
REMARK    8  A    between atoms: C_8  and  C_9
REMARK    9  A    between atoms: C_9  and  C_10
REMARK   10  A    between atoms: C_13  and  N_14
REMARK                            x       y       z     vdW  Elec       q    Type
REMARK                         _______ _______ _______ _____ _____    ______ ____
ROOT
ATOM      1  C   UNL     1       4.044   5.477  18.555  0.00  0.00    +0.000 C 
ENDROOT
BRANCH   1   2
ATOM      2  C   UNL     1       2.903   4.497  18.827  0.00  0.00    +0.000 A 
ATOM      3  C   UNL     1       1.947   4.808  19.808  0.00  0.00    +0.000 A 
ATOM      4  C   UNL     1       0.911   3.919  20.108  0.00  0.00    +0.000 A 
ATOM      5  C   UNL     1       0.814   2.705  19.434  0.00  0.00    +0.000 A 
ATOM      6  C   UNL     1       1.732   2.394  18.435  0.00  0.00    +0.000 A 
ATOM      7  C   UNL     1       2.757   3.290  18.124  0.00  0.00    +0.000 A 
ENDBRANCH   1   2
BRANCH   1   8
ATOM      8  C   UNL     1       5.402   4.791  18.371  0.00  0.00    +0.000 C 
ATOM      9  O   UNL     1       6.265   4.682  19.233  0.00  0.00    +0.000 OA
BRANCH   8  10
ATOM     10  O   UNL     1       5.571   4.415  17.069  0.00  0.00    +0.000 OA
BRANCH  10  12
ATOM     11  C   UNL     1       6.818   4.350  15.042  0.00  0.00    +0.000 C 
ATOM     12  C   UNL     1       6.794   4.871  16.470  0.00  0.00    +0.000 C 
ENDBRANCH  10  12
ENDBRANCH   8  10
ENDBRANCH   1   8
BRANCH   1  13
ATOM     13  C   UNL     1       3.724   6.476  17.426  0.00  0.00    +0.000 C 
BRANCH  13  14
ATOM     14  C   UNL     1       3.438   7.907  17.895  0.00  0.00    +0.000 C 
BRANCH  14  15
ATOM     15  C   UNL     1       1.939   8.221  17.907  0.00  0.00    +0.000 C 
BRANCH  15  16
ATOM     16  C   UNL     1       1.501   8.709  19.268  0.00  0.00    +0.000 A 
ATOM     17  C   UNL     1       0.958   9.989  19.423  0.00  0.00    +0.000 A 
ATOM     18  C   UNL     1       0.609  10.460  20.693  0.00  0.00    +0.000 A 
ATOM     19  C   UNL     1       0.789   9.674  21.834  0.00  0.00    +0.000 A 
ATOM     20  C   UNL     1       1.339   8.390  21.673  0.00  0.00    +0.000 A 
ATOM     21  C   UNL     1       1.689   7.916  20.406  0.00  0.00    +0.000 A 
BRANCH  19  22
ATOM     22  N   UNL     1       0.468  10.246  23.077  0.00  0.00    +0.000 NA
ATOM     23  N   UNL     1      -0.656  10.774  23.142  0.00  0.00    +0.000 NA
ATOM     24  N   UNL     1      -1.687  11.257  23.225  0.00  0.00    +0.000 NA
ENDBRANCH  19  22
ENDBRANCH  15  16
ENDBRANCH  14  15
ENDBRANCH  13  14
ENDBRANCH   1  13
TORSDOF 9
ENDMDL
MODEL 6
REMARK VINA RESULT:      -6.8      1.427      2.011
REMARK  Name = 
REMARK  10 active torsions:
REMARK  status: ('A' for Active; 'I' for Inactive)
REMARK    1  A    between atoms: C_1  and  C_2
REMARK    2  A    between atoms: C_2  and  O_3
REMARK    3  A    between atoms: O_3  and  C_4
REMARK    4  A    between atoms: C_4  and  C_6
REMARK    5  A    between atoms: C_6  and  C_7
REMARK    6  A    between atoms: C_6  and  C_19
REMARK    7  A    between atoms: C_7  and  C_8
REMARK    8  A    between atoms: C_8  and  C_9
REMARK    9  A    between atoms: C_9  and  C_10
REMARK   10  A    between atoms: C_13  and  N_14
REMARK                            x       y       z     vdW  Elec       q    Type
REMARK                         _______ _______ _______ _____ _____    ______ ____
ROOT
ATOM      1  C   UNL     1       3.987   5.644  18.958  0.00  0.00    +0.000 C 
ENDROOT
BRANCH   1   2
ATOM      2  C   UNL     1       2.856   4.645  19.195  0.00  0.00    +0.000 A 
ATOM      3  C   UNL     1       2.524   3.726  18.184  0.00  0.00    +0.000 A 
ATOM      4  C   UNL     1       1.472   2.822  18.354  0.00  0.00    +0.000 A 
ATOM      5  C   UNL     1       0.732   2.822  19.533  0.00  0.00    +0.000 A 
ATOM      6  C   UNL     1       1.067   3.701  20.558  0.00  0.00    +0.000 A 
ATOM      7  C   UNL     1       2.130   4.593  20.396  0.00  0.00    +0.000 A 
ENDBRANCH   1   2
BRANCH   1   8
ATOM      8  C   UNL     1       5.331   4.978  18.645  0.00  0.00    +0.000 C 
ATOM      9  O   UNL     1       5.893   4.148  19.348  0.00  0.00    +0.000 OA
BRANCH   8  10
ATOM     10  O   UNL     1       5.881   5.524  17.520  0.00  0.00    +0.000 OA
BRANCH  10  12
ATOM     11  C   UNL     1       5.419   4.114  15.658  0.00  0.00    +0.000 C 
ATOM     12  C   UNL     1       6.491   4.574  16.632  0.00  0.00    +0.000 C 
ENDBRANCH  10  12
ENDBRANCH   8  10
ENDBRANCH   1   8
BRANCH   1  13
ATOM     13  C   UNL     1       3.617   6.743  17.942  0.00  0.00    +0.000 C 
BRANCH  13  14
ATOM     14  C   UNL     1       2.223   7.350  18.132  0.00  0.00    +0.000 C 
BRANCH  14  15
ATOM     15  C   UNL     1       2.154   8.801  17.646  0.00  0.00    +0.000 C 
BRANCH  15  16
ATOM     16  C   UNL     1       1.644   9.712  18.738  0.00  0.00    +0.000 A 
ATOM     17  C   UNL     1       1.157   9.179  19.936  0.00  0.00    +0.000 A 
ATOM     18  C   UNL     1       0.630  10.020  20.922  0.00  0.00    +0.000 A 
ATOM     19  C   UNL     1       0.575  11.405  20.742  0.00  0.00    +0.000 A 
ATOM     20  C   UNL     1       1.061  11.934  19.533  0.00  0.00    +0.000 A 
ATOM     21  C   UNL     1       1.588  11.097  18.547  0.00  0.00    +0.000 A 
BRANCH  19  22
ATOM     22  N   UNL     1      -0.025  12.170  21.756  0.00  0.00    +0.000 NA
ATOM     23  N   UNL     1       0.509  13.273  21.974  0.00  0.00    +0.000 NA
ATOM     24  N   UNL     1       0.979  14.292  22.183  0.00  0.00    +0.000 NA
ENDBRANCH  19  22
ENDBRANCH  15  16
ENDBRANCH  14  15
ENDBRANCH  13  14
ENDBRANCH   1  13
TORSDOF 9
ENDMDL
MODEL 7
REMARK VINA RESULT:      -6.8      4.771      7.579
REMARK  Name = 
REMARK  10 active torsions:
REMARK  status: ('A' for Active; 'I' for Inactive)
REMARK    1  A    between atoms: C_1  and  C_2
REMARK    2  A    between atoms: C_2  and  O_3
REMARK    3  A    between atoms: O_3  and  C_4
REMARK    4  A    between atoms: C_4  and  C_6
REMARK    5  A    between atoms: C_6  and  C_7
REMARK    6  A    between atoms: C_6  and  C_19
REMARK    7  A    between atoms: C_7  and  C_8
REMARK    8  A    between atoms: C_8  and  C_9
REMARK    9  A    between atoms: C_9  and  C_10
REMARK   10  A    between atoms: C_13  and  N_14
REMARK                            x       y       z     vdW  Elec       q    Type
REMARK                         _______ _______ _______ _____ _____    ______ ____
ROOT
ATOM      1  C   UNL     1      -0.389  10.176  18.934  0.00  0.00    +0.000 C 
ENDROOT
BRANCH   1   2
ATOM      2  C   UNL     1      -0.477  10.133  20.459  0.00  0.00    +0.000 A 
ATOM      3  C   UNL     1      -0.860  11.290  21.160  0.00  0.00    +0.000 A 
ATOM      4  C   UNL     1      -0.915  11.297  22.556  0.00  0.00    +0.000 A 
ATOM      5  C   UNL     1      -0.588  10.151  23.276  0.00  0.00    +0.000 A 
ATOM      6  C   UNL     1      -0.239   8.987  22.598  0.00  0.00    +0.000 A 
ATOM      7  C   UNL     1      -0.200   8.974  21.202  0.00  0.00    +0.000 A 
ENDBRANCH   1   2
BRANCH   1   8
ATOM      8  C   UNL     1      -1.190  11.324  18.311  0.00  0.00    +0.000 C 
ATOM      9  O   UNL     1      -0.765  12.452  18.096  0.00  0.00    +0.000 OA
BRANCH   8  10
ATOM     10  O   UNL     1      -2.492  10.952  18.130  0.00  0.00    +0.000 OA
BRANCH  10  12
ATOM     11  C   UNL     1      -2.696  10.480  15.806  0.00  0.00    +0.000 C 
ATOM     12  C   UNL     1      -2.681   9.874  17.200  0.00  0.00    +0.000 C 
ENDBRANCH  10  12
ENDBRANCH   8  10
ENDBRANCH   1   8
BRANCH   1  13
ATOM     13  C   UNL     1       1.059  10.109  18.412  0.00  0.00    +0.000 C 
BRANCH  13  14
ATOM     14  C   UNL     1       1.402   8.837  17.628  0.00  0.00    +0.000 C 
BRANCH  14  15
ATOM     15  C   UNL     1       2.800   8.310  17.965  0.00  0.00    +0.000 C 
BRANCH  15  16
ATOM     16  C   UNL     1       2.731   6.896  18.493  0.00  0.00    +0.000 A 
ATOM     17  C   UNL     1       2.287   6.647  19.796  0.00  0.00    +0.000 A 
ATOM     18  C   UNL     1       2.280   5.342  20.303  0.00  0.00    +0.000 A 
ATOM     19  C   UNL     1       2.712   4.261  19.531  0.00  0.00    +0.000 A 
ATOM     20  C   UNL     1       3.162   4.519  18.225  0.00  0.00    +0.000 A 
ATOM     21  C   UNL     1       3.170   5.820  17.715  0.00  0.00    +0.000 A 
BRANCH  19  22
ATOM     22  N   UNL     1       2.729   2.994  20.138  0.00  0.00    +0.000 NA
ATOM     23  N   UNL     1       3.856   2.483  20.269  0.00  0.00    +0.000 NA
ATOM     24  N   UNL     1       4.882   2.001  20.405  0.00  0.00    +0.000 NA
ENDBRANCH  19  22
ENDBRANCH  15  16
ENDBRANCH  14  15
ENDBRANCH  13  14
ENDBRANCH   1  13
TORSDOF 9
ENDMDL
MODEL 8
REMARK VINA RESULT:      -6.8      1.121      1.349
REMARK  Name = 
REMARK  10 active torsions:
REMARK  status: ('A' for Active; 'I' for Inactive)
REMARK    1  A    between atoms: C_1  and  C_2
REMARK    2  A    between atoms: C_2  and  O_3
REMARK    3  A    between atoms: O_3  and  C_4
REMARK    4  A    between atoms: C_4  and  C_6
REMARK    5  A    between atoms: C_6  and  C_7
REMARK    6  A    between atoms: C_6  and  C_19
REMARK    7  A    between atoms: C_7  and  C_8
REMARK    8  A    between atoms: C_8  and  C_9
REMARK    9  A    between atoms: C_9  and  C_10
REMARK   10  A    between atoms: C_13  and  N_14
REMARK                            x       y       z     vdW  Elec       q    Type
REMARK                         _______ _______ _______ _____ _____    ______ ____
ROOT
ATOM      1  C   UNL     1       3.709   6.184  18.769  0.00  0.00    +0.000 C 
ENDROOT
BRANCH   1   2
ATOM      2  C   UNL     1       2.720   5.060  19.075  0.00  0.00    +0.000 A 
ATOM      3  C   UNL     1       2.478   4.072  18.106  0.00  0.00    +0.000 A 
ATOM      4  C   UNL     1       1.553   3.050  18.338  0.00  0.00    +0.000 A 
ATOM      5  C   UNL     1       0.854   2.999  19.541  0.00  0.00    +0.000 A 
ATOM      6  C   UNL     1       1.105   3.949  20.525  0.00  0.00    +0.000 A 
ATOM      7  C   UNL     1       2.041   4.961  20.300  0.00  0.00    +0.000 A 
ENDBRANCH   1   2
BRANCH   1   8
ATOM      8  C   UNL     1       5.143   5.689  18.551  0.00  0.00    +0.000 C 
ATOM      9  O   UNL     1       5.816   5.079  19.371  0.00  0.00    +0.000 OA
BRANCH   8  10
ATOM     10  O   UNL     1       5.617   6.125  17.346  0.00  0.00    +0.000 OA
BRANCH  10  12
ATOM     11  C   UNL     1       7.006   4.482  16.326  0.00  0.00    +0.000 C 
ATOM     12  C   UNL     1       5.630   5.127  16.313  0.00  0.00    +0.000 C 
ENDBRANCH  10  12
ENDBRANCH   8  10
ENDBRANCH   1   8
BRANCH   1  13
ATOM     13  C   UNL     1       3.226   7.122  17.645  0.00  0.00    +0.000 C 
BRANCH  13  14
ATOM     14  C   UNL     1       1.797   7.649  17.818  0.00  0.00    +0.000 C 
BRANCH  14  15
ATOM     15  C   UNL     1       1.763   9.167  18.018  0.00  0.00    +0.000 C 
BRANCH  15  16
ATOM     16  C   UNL     1       1.013   9.527  19.280  0.00  0.00    +0.000 A 
ATOM     17  C   UNL     1       0.116  10.601  19.290  0.00  0.00    +0.000 A 
ATOM     18  C   UNL     1      -0.532  10.970  20.474  0.00  0.00    +0.000 A 
ATOM     19  C   UNL     1      -0.305  10.284  21.670  0.00  0.00    +0.000 A 
ATOM     20  C   UNL     1       0.601   9.209  21.654  0.00  0.00    +0.000 A 
ATOM     21  C   UNL     1       1.249   8.838  20.474  0.00  0.00    +0.000 A 
BRANCH  19  22
ATOM     22  N   UNL     1      -0.951  10.758  22.825  0.00  0.00    +0.000 NA
ATOM     23  N   UNL     1      -0.770  11.962  23.076  0.00  0.00    +0.000 NA
ATOM     24  N   UNL     1      -0.624  13.068  23.320  0.00  0.00    +0.000 NA
ENDBRANCH  19  22
ENDBRANCH  15  16
ENDBRANCH  14  15
ENDBRANCH  13  14
ENDBRANCH   1  13
TORSDOF 9
ENDMDL
MODEL 9
REMARK VINA RESULT:      -6.7      1.271      2.085
REMARK  Name = 
REMARK  10 active torsions:
REMARK  status: ('A' for Active; 'I' for Inactive)
REMARK    1  A    between atoms: C_1  and  C_2
REMARK    2  A    between atoms: C_2  and  O_3
REMARK    3  A    between atoms: O_3  and  C_4
REMARK    4  A    between atoms: C_4  and  C_6
REMARK    5  A    between atoms: C_6  and  C_7
REMARK    6  A    between atoms: C_6  and  C_19
REMARK    7  A    between atoms: C_7  and  C_8
REMARK    8  A    between atoms: C_8  and  C_9
REMARK    9  A    between atoms: C_9  and  C_10
REMARK   10  A    between atoms: C_13  and  N_14
REMARK                            x       y       z     vdW  Elec       q    Type
REMARK                         _______ _______ _______ _____ _____    ______ ____
ROOT
ATOM      1  C   UNL     1       3.279   6.981  18.193  0.00  0.00    +0.000 C 
ENDROOT
BRANCH   1   2
ATOM      2  C   UNL     1       2.482   5.799  18.744  0.00  0.00    +0.000 A 
ATOM      3  C   UNL     1       2.085   5.803  20.092  0.00  0.00    +0.000 A 
ATOM      4  C   UNL     1       1.386   4.722  20.637  0.00  0.00    +0.000 A 
ATOM      5  C   UNL     1       1.075   3.619  19.846  0.00  0.00    +0.000 A 
ATOM      6  C   UNL     1       1.430   3.612  18.501  0.00  0.00    +0.000 A 
ATOM      7  C   UNL     1       2.113   4.699  17.952  0.00  0.00    +0.000 A 
ENDBRANCH   1   2
BRANCH   1   8
ATOM      8  C   UNL     1       4.540   6.561  17.431  0.00  0.00    +0.000 C 
ATOM      9  O   UNL     1       4.683   6.606  16.216  0.00  0.00    +0.000 OA
BRANCH   8  10
ATOM     10  O   UNL     1       5.453   6.016  18.287  0.00  0.00    +0.000 OA
BRANCH  10  12
ATOM     11  C   UNL     1       7.700   5.307  18.632  0.00  0.00    +0.000 C 
ATOM     12  C   UNL     1       6.544   5.338  17.645  0.00  0.00    +0.000 C 
ENDBRANCH  10  12
ENDBRANCH   8  10
ENDBRANCH   1   8
BRANCH   1  13
ATOM     13  C   UNL     1       2.409   7.978  17.402  0.00  0.00    +0.000 C 
BRANCH  13  14
ATOM     14  C   UNL     1       2.124   9.298  18.127  0.00  0.00    +0.000 C 
BRANCH  14  15
ATOM     15  C   UNL     1       0.638   9.668  18.088  0.00  0.00    +0.000 C 
BRANCH  15  16
ATOM     16  C   UNL     1       0.165  10.147  19.441  0.00  0.00    +0.000 A 
ATOM     17  C   UNL     1      -0.710  11.233  19.543  0.00  0.00    +0.000 A 
ATOM     18  C   UNL     1      -1.099  11.712  20.799  0.00  0.00    +0.000 A 
ATOM     19  C   UNL     1      -0.630  11.124  21.977  0.00  0.00    +0.000 A 
ATOM     20  C   UNL     1       0.253  10.036  21.868  0.00  0.00    +0.000 A 
ATOM     21  C   UNL     1       0.643   9.555  20.615  0.00  0.00    +0.000 A 
BRANCH  19  22
ATOM     22  N   UNL     1      -1.023  11.705  23.195  0.00  0.00    +0.000 NA
ATOM     23  N   UNL     1      -2.248  11.869  23.333  0.00  0.00    +0.000 NA
ATOM     24  N   UNL     1      -3.369  12.020  23.483  0.00  0.00    +0.000 NA
ENDBRANCH  19  22
ENDBRANCH  15  16
ENDBRANCH  14  15
ENDBRANCH  13  14
ENDBRANCH   1  13
TORSDOF 9
ENDMDL
