MODEL 1
REMARK VINA RESULT:      -7.1      0.000      0.000
REMARK  Name = 
REMARK  2 active torsions:
REMARK  status: ('A' for Active; 'I' for Inactive)
REMARK    1  A    between atoms: C_1  and  N_2
REMARK    2  A    between atoms: N_2  and  C_3
REMARK                            x       y       z     vdW  Elec       q    Type
REMARK                         _______ _______ _______ _____ _____    ______ ____
ROOT
ATOM      1  C   UNL     1       5.953   6.164  17.060  0.00  0.00    +0.000 C 
ATOM      2  C   UNL     1       5.728   5.442  15.702  0.00  0.00    +0.000 C 
ATOM      3  C   UNL     1       5.052   4.062  15.845  0.00  0.00    +0.000 C 
ATOM      4  C   UNL     1       4.026   4.083  16.918  0.00  0.00    +0.000 A 
ATOM      5  N   UNL     1       3.148   3.072  17.193  0.00  0.00    +0.000 N 
ATOM      6  C   UNL     1       2.400   3.393  18.309  0.00  0.00    +0.000 A 
ATOM      7  C   UNL     1       1.403   2.662  18.965  0.00  0.00    +0.000 A 
ATOM      8  C   UNL     1       0.816   3.239  20.096  0.00  0.00    +0.000 A 
ATOM      9  C   UNL     1       1.210   4.497  20.549  0.00  0.00    +0.000 A 
ATOM     10  C   UNL     1       2.200   5.218  19.876  0.00  0.00    +0.000 A 
ATOM     11  C   UNL     1       2.808   4.659  18.734  0.00  0.00    +0.000 A 
ATOM     12  C   UNL     1       3.825   5.090  17.838  0.00  0.00    +0.000 A 
ATOM     13  C   UNL     1       4.605   6.357  17.813  0.00  0.00    +0.000 C 
ATOM     14  H   UNL     1       3.069   2.206  16.682  0.00  0.00    +0.000 HD
ENDROOT
BRANCH   1  16
ATOM     15  C   UNL     1       7.757   7.668  17.749  0.00  0.00    +0.000 C 
ATOM     16  N   UNL     1       6.662   7.437  16.813  0.00  0.00    +0.000 NA
ATOM     17  H   UNL     1       7.036   7.425  15.864  0.00  0.00    +0.000 HD
ENDBRANCH   1  16
TORSDOF 1
ENDMDL
MODEL 2
REMARK VINA RESULT:      -7.1      1.611      2.696
REMARK  Name = 
REMARK  2 active torsions:
REMARK  status: ('A' for Active; 'I' for Inactive)
REMARK    1  A    between atoms: C_1  and  N_2
REMARK    2  A    between atoms: N_2  and  C_3
REMARK                            x       y       z     vdW  Elec       q    Type
REMARK                         _______ _______ _______ _____ _____    ______ ____
ROOT
ATOM      1  C   UNL     1       6.061   5.488  15.817  0.00  0.00    +0.000 C 
ATOM      2  C   UNL     1       7.108   5.678  16.950  0.00  0.00    +0.000 C 
ATOM      3  C   UNL     1       6.485   6.100  18.298  0.00  0.00    +0.000 C 
ATOM      4  C   UNL     1       5.186   5.414  18.517  0.00  0.00    +0.000 A 
ATOM      5  N   UNL     1       4.457   5.452  19.674  0.00  0.00    +0.000 N 
ATOM      6  C   UNL     1       3.264   4.780  19.496  0.00  0.00    +0.000 A 
ATOM      7  C   UNL     1       2.204   4.577  20.387  0.00  0.00    +0.000 A 
ATOM      8  C   UNL     1       1.097   3.858  19.924  0.00  0.00    +0.000 A 
ATOM      9  C   UNL     1       1.057   3.359  18.623  0.00  0.00    +0.000 A 
ATOM     10  C   UNL     1       2.128   3.562  17.749  0.00  0.00    +0.000 A 
ATOM     11  C   UNL     1       3.255   4.285  18.191  0.00  0.00    +0.000 A 
ATOM     12  C   UNL     1       4.481   4.679  17.589  0.00  0.00    +0.000 A 
ATOM     13  C   UNL     1       5.002   4.422  16.219  0.00  0.00    +0.000 C 
ATOM     14  H   UNL     1       4.728   5.921  20.525  0.00  0.00    +0.000 HD
ENDROOT
BRANCH   1  16
ATOM     15  C   UNL     1       6.215   3.980  13.895  0.00  0.00    +0.000 C 
ATOM     16  N   UNL     1       6.769   5.153  14.563  0.00  0.00    +0.000 NA
ATOM     17  H   UNL     1       6.709   5.952  13.930  0.00  0.00    +0.000 HD
ENDBRANCH   1  16
TORSDOF 1
ENDMDL
MODEL 3
REMARK VINA RESULT:      -7.0      1.507      2.689
REMARK  Name = 
REMARK  2 active torsions:
REMARK  status: ('A' for Active; 'I' for Inactive)
REMARK    1  A    between atoms: C_1  and  N_2
REMARK    2  A    between atoms: N_2  and  C_3
REMARK                            x       y       z     vdW  Elec       q    Type
REMARK                         _______ _______ _______ _____ _____    ______ ____
ROOT
ATOM      1  C   UNL     1       5.305   5.444  15.513  0.00  0.00    +0.000 C 
ATOM      2  C   UNL     1       5.710   6.601  16.468  0.00  0.00    +0.000 C 
ATOM      3  C   UNL     1       4.576   7.037  17.421  0.00  0.00    +0.000 C 
ATOM      4  C   UNL     1       3.788   5.864  17.876  0.00  0.00    +0.000 A 
ATOM      5  N   UNL     1       2.816   5.888  18.838  0.00  0.00    +0.000 N 
ATOM      6  C   UNL     1       2.231   4.642  18.943  0.00  0.00    +0.000 A 
ATOM      7  C   UNL     1       1.190   4.204  19.770  0.00  0.00    +0.000 A 
ATOM      8  C   UNL     1       0.787   2.869  19.651  0.00  0.00    +0.000 A 
ATOM      9  C   UNL     1       1.404   2.010  18.744  0.00  0.00    +0.000 A 
ATOM     10  C   UNL     1       2.449   2.461  17.932  0.00  0.00    +0.000 A 
ATOM     11  C   UNL     1       2.873   3.802  18.031  0.00  0.00    +0.000 A 
ATOM     12  C   UNL     1       3.864   4.582  17.375  0.00  0.00    +0.000 A 
ATOM     13  C   UNL     1       4.841   4.198  16.320  0.00  0.00    +0.000 C 
ATOM     14  H   UNL     1       2.541   6.697  19.376  0.00  0.00    +0.000 HD
ENDROOT
BRANCH   1  16
ATOM     15  C   UNL     1       6.238   3.940  13.823  0.00  0.00    +0.000 C 
ATOM     16  N   UNL     1       6.435   5.155  14.606  0.00  0.00    +0.000 NA
ATOM     17  H   UNL     1       6.553   5.942  13.967  0.00  0.00    +0.000 HD
ENDBRANCH   1  16
TORSDOF 1
ENDMDL
MODEL 4
REMARK VINA RESULT:      -6.9      2.275      6.077
REMARK  Name = 
REMARK  2 active torsions:
REMARK  status: ('A' for Active; 'I' for Inactive)
REMARK    1  A    between atoms: C_1  and  N_2
REMARK    2  A    between atoms: N_2  and  C_3
REMARK                            x       y       z     vdW  Elec       q    Type
REMARK                         _______ _______ _______ _____ _____    ______ ____
ROOT
ATOM      1  C   UNL     1       4.741   3.942  18.208  0.00  0.00    +0.000 C 
ATOM      2  C   UNL     1       5.312   5.318  18.651  0.00  0.00    +0.000 C 
ATOM      3  C   UNL     1       6.597   5.721  17.896  0.00  0.00    +0.000 C 
ATOM      4  C   UNL     1       6.527   5.306  16.472  0.00  0.00    +0.000 A 
ATOM      5  N   UNL     1       7.431   5.644  15.504  0.00  0.00    +0.000 N 
ATOM      6  C   UNL     1       7.106   5.014  14.320  0.00  0.00    +0.000 A 
ATOM      7  C   UNL     1       7.749   5.045  13.077  0.00  0.00    +0.000 A 
ATOM      8  C   UNL     1       7.194   4.285  12.041  0.00  0.00    +0.000 A 
ATOM      9  C   UNL     1       6.041   3.528  12.243  0.00  0.00    +0.000 A 
ATOM     10  C   UNL     1       5.406   3.516  13.488  0.00  0.00    +0.000 A 
ATOM     11  C   UNL     1       5.945   4.271  14.548  0.00  0.00    +0.000 A 
ATOM     12  C   UNL     1       5.582   4.477  15.907  0.00  0.00    +0.000 A 
ATOM     13  C   UNL     1       4.433   3.937  16.684  0.00  0.00    +0.000 C 
ATOM     14  H   UNL     1       8.234   6.242  15.631  0.00  0.00    +0.000 HD
ENDROOT
BRANCH   1  16
ATOM     15  C   UNL     1       3.836   2.634  20.068  0.00  0.00    +0.000 C 
ATOM     16  N   UNL     1       3.558   3.627  19.036  0.00  0.00    +0.000 NA
ATOM     17  H   UNL     1       3.234   4.485  19.484  0.00  0.00    +0.000 HD
ENDBRANCH   1  16
TORSDOF 1
ENDMDL
MODEL 5
REMARK VINA RESULT:      -6.9      1.002      1.002
REMARK  Name = 
REMARK  2 active torsions:
REMARK  status: ('A' for Active; 'I' for Inactive)
REMARK    1  A    between atoms: C_1  and  N_2
REMARK    2  A    between atoms: N_2  and  C_3
REMARK                            x       y       z     vdW  Elec       q    Type
REMARK                         _______ _______ _______ _____ _____    ______ ____
ROOT
ATOM      1  C   UNL     1       6.646   5.172  18.026  0.00  0.00    +0.000 C 
ATOM      2  C   UNL     1       6.295   5.207  16.512  0.00  0.00    +0.000 C 
ATOM      3  C   UNL     1       5.208   4.187  16.110  0.00  0.00    +0.000 C 
ATOM      4  C   UNL     1       4.173   4.073  17.169  0.00  0.00    +0.000 A 
ATOM      5  N   UNL     1       3.003   3.373  17.059  0.00  0.00    +0.000 N 
ATOM      6  C   UNL     1       2.323   3.407  18.260  0.00  0.00    +0.000 A 
ATOM      7  C   UNL     1       1.105   2.821  18.622  0.00  0.00    +0.000 A 
ATOM      8  C   UNL     1       0.658   3.014  19.933  0.00  0.00    +0.000 A 
ATOM      9  C   UNL     1       1.399   3.766  20.842  0.00  0.00    +0.000 A 
ATOM     10  C   UNL     1       2.610   4.353  20.462  0.00  0.00    +0.000 A 
ATOM     11  C   UNL     1       3.083   4.172  19.147  0.00  0.00    +0.000 A 
ATOM     12  C   UNL     1       4.241   4.599  18.440  0.00  0.00    +0.000 A 
ATOM     13  C   UNL     1       5.383   5.439  18.892  0.00  0.00    +0.000 C 
ATOM     14  H   UNL     1       2.687   2.881  16.237  0.00  0.00    +0.000 HD
ENDROOT
BRANCH   1  16
ATOM     15  C   UNL     1       7.560   7.397  17.577  0.00  0.00    +0.000 C 
ATOM     16  N   UNL     1       7.738   6.135  18.285  0.00  0.00    +0.000 NA
ATOM     17  H   UNL     1       7.778   6.322  19.288  0.00  0.00    +0.000 HD
ENDBRANCH   1  16
TORSDOF 1
ENDMDL
MODEL 6
REMARK VINA RESULT:      -6.8      1.229      1.445
REMARK  Name = 
REMARK  2 active torsions:
REMARK  status: ('A' for Active; 'I' for Inactive)
REMARK    1  A    between atoms: C_1  and  N_2
REMARK    2  A    between atoms: N_2  and  C_3
REMARK                            x       y       z     vdW  Elec       q    Type
REMARK                         _______ _______ _______ _____ _____    ______ ____
ROOT
ATOM      1  C   UNL     1       6.554   6.740  17.370  0.00  0.00    +0.000 C 
ATOM      2  C   UNL     1       7.211   5.845  16.282  0.00  0.00    +0.000 C 
ATOM      3  C   UNL     1       6.902   4.342  16.455  0.00  0.00    +0.000 C 
ATOM      4  C   UNL     1       5.507   4.139  16.921  0.00  0.00    +0.000 A 
ATOM      5  N   UNL     1       4.876   2.930  17.025  0.00  0.00    +0.000 N 
ATOM      6  C   UNL     1       3.622   3.104  17.575  0.00  0.00    +0.000 A 
ATOM      7  C   UNL     1       2.636   2.160  17.885  0.00  0.00    +0.000 A 
ATOM      8  C   UNL     1       1.448   2.628  18.456  0.00  0.00    +0.000 A 
ATOM      9  C   UNL     1       1.255   3.986  18.703  0.00  0.00    +0.000 A 
ATOM     10  C   UNL     1       2.245   4.917  18.378  0.00  0.00    +0.000 A 
ATOM     11  C   UNL     1       3.452   4.471  17.804  0.00  0.00    +0.000 A 
ATOM     12  C   UNL     1       4.644   5.115  17.371  0.00  0.00    +0.000 A 
ATOM     13  C   UNL     1       5.009   6.557  17.375  0.00  0.00    +0.000 C 
ATOM     14  H   UNL     1       5.269   2.037  16.768  0.00  0.00    +0.000 HD
ENDROOT
BRANCH   1  16
ATOM     15  C   UNL     1       8.141   8.516  17.931  0.00  0.00    +0.000 C 
ATOM     16  N   UNL     1       6.968   8.142  17.149  0.00  0.00    +0.000 NA
ATOM     17  H   UNL     1       7.178   8.269  16.158  0.00  0.00    +0.000 HD
ENDBRANCH   1  16
TORSDOF 1
ENDMDL
MODEL 7
REMARK VINA RESULT:      -6.8      1.954      5.298
REMARK  Name = 
REMARK  2 active torsions:
REMARK  status: ('A' for Active; 'I' for Inactive)
REMARK    1  A    between atoms: C_1  and  N_2
REMARK    2  A    between atoms: N_2  and  C_3
REMARK                            x       y       z     vdW  Elec       q    Type
REMARK                         _______ _______ _______ _____ _____    ______ ____
ROOT
ATOM      1  C   UNL     1       1.654   3.495  19.529  0.00  0.00    +0.000 C 
ATOM      2  C   UNL     1       1.649   2.236  18.618  0.00  0.00    +0.000 C 
ATOM      3  C   UNL     1       2.517   2.391  17.351  0.00  0.00    +0.000 C 
ATOM      4  C   UNL     1       3.754   3.157  17.647  0.00  0.00    +0.000 A 
ATOM      5  N   UNL     1       4.799   3.337  16.784  0.00  0.00    +0.000 N 
ATOM      6  C   UNL     1       5.738   4.173  17.355  0.00  0.00    +0.000 A 
ATOM      7  C   UNL     1       6.949   4.650  16.841  0.00  0.00    +0.000 A 
ATOM      8  C   UNL     1       7.702   5.508  17.650  0.00  0.00    +0.000 A 
ATOM      9  C   UNL     1       7.261   5.869  18.922  0.00  0.00    +0.000 A 
ATOM     10  C   UNL     1       6.054   5.376  19.424  0.00  0.00    +0.000 A 
ATOM     11  C   UNL     1       5.275   4.511  18.628  0.00  0.00    +0.000 A 
ATOM     12  C   UNL     1       4.029   3.850  18.806  0.00  0.00    +0.000 A 
ATOM     13  C   UNL     1       3.102   3.850  19.971  0.00  0.00    +0.000 C 
ATOM     14  H   UNL     1       4.871   2.945  15.857  0.00  0.00    +0.000 HD
ENDROOT
BRANCH   1  16
ATOM     15  C   UNL     1       1.405   2.625  21.802  0.00  0.00    +0.000 C 
ATOM     16  N   UNL     1       0.743   3.264  20.670  0.00  0.00    +0.000 NA
ATOM     17  H   UNL     1       0.364   4.161  20.974  0.00  0.00    +0.000 HD
ENDBRANCH   1  16
TORSDOF 1
ENDMDL
MODEL 8
REMARK VINA RESULT:      -6.7      1.795      5.489
REMARK  Name = 
REMARK  2 active torsions:
REMARK  status: ('A' for Active; 'I' for Inactive)
REMARK    1  A    between atoms: C_1  and  N_2
REMARK    2  A    between atoms: N_2  and  C_3
REMARK                            x       y       z     vdW  Elec       q    Type
REMARK                         _______ _______ _______ _____ _____    ______ ____
ROOT
ATOM      1  C   UNL     1       2.387   3.592  19.780  0.00  0.00    +0.000 C 
ATOM      2  C   UNL     1       1.655   3.721  18.414  0.00  0.00    +0.000 C 
ATOM      3  C   UNL     1       2.026   5.003  17.638  0.00  0.00    +0.000 C 
ATOM      4  C   UNL     1       3.465   5.326  17.807  0.00  0.00    +0.000 A 
ATOM      5  N   UNL     1       4.141   6.306  17.133  0.00  0.00    +0.000 N 
ATOM      6  C   UNL     1       5.437   6.388  17.603  0.00  0.00    +0.000 A 
ATOM      7  C   UNL     1       6.477   7.247  17.230  0.00  0.00    +0.000 A 
ATOM      8  C   UNL     1       7.700   7.111  17.896  0.00  0.00    +0.000 A 
ATOM      9  C   UNL     1       7.873   6.152  18.892  0.00  0.00    +0.000 A 
ATOM     10  C   UNL     1       6.827   5.295  19.246  0.00  0.00    +0.000 A 
ATOM     11  C   UNL     1       5.585   5.412  18.591  0.00  0.00    +0.000 A 
ATOM     12  C   UNL     1       4.337   4.739  18.699  0.00  0.00    +0.000 A 
ATOM     13  C   UNL     1       3.929   3.614  19.584  0.00  0.00    +0.000 C 
ATOM     14  H   UNL     1       3.754   6.902  16.417  0.00  0.00    +0.000 HD
ENDROOT
BRANCH   1  16
ATOM     15  C   UNL     1       1.497   2.617  21.840  0.00  0.00    +0.000 C 
ATOM     16  N   UNL     1       1.910   2.371  20.463  0.00  0.00    +0.000 NA
ATOM     17  H   UNL     1       1.116   1.993  19.944  0.00  0.00    +0.000 HD
ENDBRANCH   1  16
TORSDOF 1
ENDMDL
MODEL 9
REMARK VINA RESULT:      -6.6      1.748      2.484
REMARK  Name = 
REMARK  2 active torsions:
REMARK  status: ('A' for Active; 'I' for Inactive)
REMARK    1  A    between atoms: C_1  and  N_2
REMARK    2  A    between atoms: N_2  and  C_3
REMARK                            x       y       z     vdW  Elec       q    Type
REMARK                         _______ _______ _______ _____ _____    ______ ____
ROOT
ATOM      1  C   UNL     1       5.770   5.258  16.581  0.00  0.00    +0.000 C 
ATOM      2  C   UNL     1       5.527   6.777  16.803  0.00  0.00    +0.000 C 
ATOM      3  C   UNL     1       4.107   7.103  17.316  0.00  0.00    +0.000 C 
ATOM      4  C   UNL     1       3.641   6.070  18.275  0.00  0.00    +0.000 A 
ATOM      5  N   UNL     1       2.497   6.142  19.021  0.00  0.00    +0.000 N 
ATOM      6  C   UNL     1       2.330   4.971  19.734  0.00  0.00    +0.000 A 
ATOM      7  C   UNL     1       1.305   4.587  20.606  0.00  0.00    +0.000 A 
ATOM      8  C   UNL     1       1.391   3.317  21.186  0.00  0.00    +0.000 A 
ATOM      9  C   UNL     1       2.460   2.469  20.906  0.00  0.00    +0.000 A 
ATOM     10  C   UNL     1       3.481   2.872  20.041  0.00  0.00    +0.000 A 
ATOM     11  C   UNL     1       3.418   4.146  19.442  0.00  0.00    +0.000 A 
ATOM     12  C   UNL     1       4.246   4.859  18.531  0.00  0.00    +0.000 A 
ATOM     13  C   UNL     1       5.532   4.463  17.896  0.00  0.00    +0.000 C 
ATOM     14  H   UNL     1       1.851   6.917  19.035  0.00  0.00    +0.000 HD
ENDROOT
BRANCH   1  16
ATOM     15  C   UNL     1       7.122   4.737  14.609  0.00  0.00    +0.000 C 
ATOM     16  N   UNL     1       7.128   5.068  16.030  0.00  0.00    +0.000 NA
ATOM     17  H   UNL     1       7.661   5.928  16.165  0.00  0.00    +0.000 HD
ENDBRANCH   1  16
TORSDOF 1
ENDMDL
