MODEL 1
REMARK VINA RESULT:      -7.1      0.000      0.000
REMARK  Name = 
REMARK  10 active torsions:
REMARK  status: ('A' for Active; 'I' for Inactive)
REMARK    1  A    between atoms: C_1  and  O_2
REMARK    2  A    between atoms: O_2  and  C_3
REMARK    3  A    between atoms: C_6  and  C_7
REMARK    4  A    between atoms: C_9  and  C_10
REMARK    5  A    between atoms: N_18  and  C_19
REMARK    6  A    between atoms: C_19  and  C_20
REMARK    7  A    between atoms: C_19  and  C_21
REMARK    8  A    between atoms: C_25  and  C_26
REMARK    9  A    between atoms: C_29  and  O_30
REMARK   10  A    between atoms: O_30  and  C_31
REMARK                            x       y       z     vdW  Elec       q    Type
REMARK                         _______ _______ _______ _____ _____    ______ ____
ROOT
ATOM      1  C   UNL     1      -1.060  10.997  19.277  0.00  0.00    +0.000 A 
ATOM      2  N   UNL     1      -0.761   9.708  19.710  0.00  0.00    +0.000 NA
ATOM      3  C   UNL     1       0.444   9.667  20.241  0.00  0.00    +0.000 A 
ATOM      4  S   UNL     1       1.259  11.172  20.304  0.00  0.00    +0.000 S 
ATOM      5  C   UNL     1      -0.091  11.963  19.565  0.00  0.00    +0.000 A 
ENDROOT
BRANCH   3   6
ATOM      6  C   UNL     1       1.060   8.476  20.833  0.00  0.00    +0.000 C 
ATOM      7  O   UNL     1       0.847   8.148  22.007  0.00  0.00    +0.000 OA
ATOM      8  N   UNL     1       1.873   7.654  20.033  0.00  0.00    +0.000 N 
ATOM      9  C   UNL     1       2.288   6.349  20.556  0.00  0.00    +0.000 C 
ATOM     10  C   UNL     1       2.222   5.284  19.455  0.00  0.00    +0.000 C 
ATOM     11  N   UNL     1       2.996   5.699  18.271  0.00  0.00    +0.000 N 
ATOM     12  C   UNL     1       3.893   4.790  17.739  0.00  0.00    +0.000 C 
ATOM     13  O   UNL     1       4.096   3.701  18.259  0.00  0.00    +0.000 OA
ATOM     14  N   UNL     1       4.526   5.160  16.586  0.00  0.00    +0.000 N 
ATOM     15  C   UNL     1       2.597   7.009  17.736  0.00  0.00    +0.000 C 
ATOM     16  C   UNL     1       2.615   8.084  18.838  0.00  0.00    +0.000 C 
ATOM     17  H   UNL     1       4.601   6.136  16.375  0.00  0.00    +0.000 HD
BRANCH  14  18
ATOM     18  C   UNL     1       5.531   4.287  15.980  0.00  0.00    +0.000 C 
ATOM     19  C   UNL     1       5.470   4.390  14.459  0.00  0.00    +0.000 C 
ATOM     20  C   UNL     1       6.932   4.632  16.482  0.00  0.00    +0.000 C 
ENDBRANCH  14  18
ENDBRANCH   3   6
BRANCH   1  24
ATOM     21  C   UNL     1      -4.750  11.926  17.318  0.00  0.00    +0.000 A 
ATOM     22  C   UNL     1      -4.596  12.145  18.688  0.00  0.00    +0.000 A 
ATOM     23  C   UNL     1      -3.396  11.821  19.331  0.00  0.00    +0.000 A 
ATOM     24  C   UNL     1      -2.345  11.233  18.616  0.00  0.00    +0.000 A 
ATOM     25  C   UNL     1      -2.558  10.913  17.269  0.00  0.00    +0.000 A 
ATOM     26  C   UNL     1      -3.729  11.303  16.609  0.00  0.00    +0.000 A 
BRANCH  21  28
ATOM     27  C   UNL     1      -7.058  12.291  17.680  0.00  0.00    +0.000 C 
ATOM     28  O   UNL     1      -5.948  12.320  16.789  0.00  0.00    +0.000 OA
ENDBRANCH  21  28
ENDBRANCH   1  24
BRANCH   5  29
ATOM     29  C   UNL     1      -0.055  13.427  19.341  0.00  0.00    +0.000 A 
ATOM     30  C   UNL     1      -1.036  14.281  19.864  0.00  0.00    +0.000 A 
ATOM     31  C   UNL     1      -0.896  15.672  19.781  0.00  0.00    +0.000 A 
ATOM     32  C   UNL     1       0.247  16.239  19.222  0.00  0.00    +0.000 A 
ATOM     33  C   UNL     1       1.204  15.411  18.649  0.00  0.00    +0.000 A 
ATOM     34  C   UNL     1       1.022  14.023  18.663  0.00  0.00    +0.000 A 
BRANCH  32  35
ATOM     35  O   UNL     1       0.301  17.604  19.253  0.00  0.00    +0.000 OA
ATOM     36  C   UNL     1      -0.944  18.269  19.444  0.00  0.00    +0.000 C 
ENDBRANCH  32  35
ENDBRANCH   5  29
TORSDOF 6
ENDMDL
MODEL 2
REMARK VINA RESULT:      -7.1      0.446      1.232
REMARK  Name = 
REMARK  10 active torsions:
REMARK  status: ('A' for Active; 'I' for Inactive)
REMARK    1  A    between atoms: C_1  and  O_2
REMARK    2  A    between atoms: O_2  and  C_3
REMARK    3  A    between atoms: C_6  and  C_7
REMARK    4  A    between atoms: C_9  and  C_10
REMARK    5  A    between atoms: N_18  and  C_19
REMARK    6  A    between atoms: C_19  and  C_20
REMARK    7  A    between atoms: C_19  and  C_21
REMARK    8  A    between atoms: C_25  and  C_26
REMARK    9  A    between atoms: C_29  and  O_30
REMARK   10  A    between atoms: O_30  and  C_31
REMARK                            x       y       z     vdW  Elec       q    Type
REMARK                         _______ _______ _______ _____ _____    ______ ____
ROOT
ATOM      1  C   UNL     1      -0.993  11.161  19.447  0.00  0.00    +0.000 A 
ATOM      2  N   UNL     1      -0.779   9.844  19.845  0.00  0.00    +0.000 NA
ATOM      3  C   UNL     1       0.429   9.706  20.353  0.00  0.00    +0.000 A 
ATOM      4  S   UNL     1       1.349  11.148  20.436  0.00  0.00    +0.000 S 
ATOM      5  C   UNL     1       0.047  12.050  19.739  0.00  0.00    +0.000 A 
ENDROOT
BRANCH   3   6
ATOM      6  C   UNL     1       0.969   8.461  20.906  0.00  0.00    +0.000 C 
ATOM      7  O   UNL     1       0.684   8.078  22.047  0.00  0.00    +0.000 OA
ATOM      8  N   UNL     1       1.793   7.653  20.102  0.00  0.00    +0.000 N 
ATOM      9  C   UNL     1       2.132   6.306  20.570  0.00  0.00    +0.000 C 
ATOM     10  C   UNL     1       2.084   5.306  19.408  0.00  0.00    +0.000 C 
ATOM     11  N   UNL     1       2.933   5.754  18.291  0.00  0.00    +0.000 N 
ATOM     12  C   UNL     1       3.822   4.841  17.753  0.00  0.00    +0.000 C 
ATOM     13  O   UNL     1       3.959   3.719  18.220  0.00  0.00    +0.000 OA
ATOM     14  N   UNL     1       4.528   5.249  16.656  0.00  0.00    +0.000 N 
ATOM     15  C   UNL     1       2.611   7.107  17.811  0.00  0.00    +0.000 C 
ATOM     16  C   UNL     1       2.611   8.118  18.973  0.00  0.00    +0.000 C 
ATOM     17  H   UNL     1       4.650   6.232  16.505  0.00  0.00    +0.000 HD
BRANCH  14  18
ATOM     18  C   UNL     1       5.531   4.372  16.052  0.00  0.00    +0.000 C 
ATOM     19  C   UNL     1       5.471   4.472  14.532  0.00  0.00    +0.000 C 
ATOM     20  C   UNL     1       6.933   4.712  16.555  0.00  0.00    +0.000 C 
ENDBRANCH  14  18
ENDBRANCH   3   6
BRANCH   1  24
ATOM     21  C   UNL     1      -4.790  11.920  17.623  0.00  0.00    +0.000 A 
ATOM     22  C   UNL     1      -3.719  11.439  16.866  0.00  0.00    +0.000 A 
ATOM     23  C   UNL     1      -2.473  11.212  17.460  0.00  0.00    +0.000 A 
ATOM     24  C   UNL     1      -2.268  11.502  18.815  0.00  0.00    +0.000 A 
ATOM     25  C   UNL     1      -3.318  12.093  19.531  0.00  0.00    +0.000 A 
ATOM     26  C   UNL     1      -4.585  12.253  18.958  0.00  0.00    +0.000 A 
BRANCH  21  28
ATOM     27  C   UNL     1      -7.112  12.341  17.751  0.00  0.00    +0.000 C 
ATOM     28  O   UNL     1      -5.970  12.064  16.948  0.00  0.00    +0.000 OA
ENDBRANCH  21  28
ENDBRANCH   1  24
BRANCH   5  29
ATOM     29  C   UNL     1       0.182  13.512  19.548  0.00  0.00    +0.000 A 
ATOM     30  C   UNL     1       1.254  14.070  18.836  0.00  0.00    +0.000 A 
ATOM     31  C   UNL     1       1.276  15.437  18.528  0.00  0.00    +0.000 A 
ATOM     32  C   UNL     1       0.209  16.262  18.876  0.00  0.00    +0.000 A 
ATOM     33  C   UNL     1      -0.834  15.740  19.629  0.00  0.00    +0.000 A 
ATOM     34  C   UNL     1      -0.815  14.391  20.005  0.00  0.00    +0.000 A 
BRANCH  32  35
ATOM     35  O   UNL     1       0.314  17.562  18.467  0.00  0.00    +0.000 OA
ATOM     36  C   UNL     1      -0.481  17.923  17.342  0.00  0.00    +0.000 C 
ENDBRANCH  32  35
ENDBRANCH   5  29
TORSDOF 6
ENDMDL
MODEL 3
REMARK VINA RESULT:      -6.7      0.922      1.365
REMARK  Name = 
REMARK  10 active torsions:
REMARK  status: ('A' for Active; 'I' for Inactive)
REMARK    1  A    between atoms: C_1  and  O_2
REMARK    2  A    between atoms: O_2  and  C_3
REMARK    3  A    between atoms: C_6  and  C_7
REMARK    4  A    between atoms: C_9  and  C_10
REMARK    5  A    between atoms: N_18  and  C_19
REMARK    6  A    between atoms: C_19  and  C_20
REMARK    7  A    between atoms: C_19  and  C_21
REMARK    8  A    between atoms: C_25  and  C_26
REMARK    9  A    between atoms: C_29  and  O_30
REMARK   10  A    between atoms: O_30  and  C_31
REMARK                            x       y       z     vdW  Elec       q    Type
REMARK                         _______ _______ _______ _____ _____    ______ ____
ROOT
ATOM      1  C   UNL     1      -1.424  11.315  19.369  0.00  0.00    +0.000 A 
ATOM      2  N   UNL     1      -1.013  10.019  19.667  0.00  0.00    +0.000 NA
ATOM      3  C   UNL     1       0.182  10.029  20.221  0.00  0.00    +0.000 A 
ATOM      4  S   UNL     1       0.852  11.586  20.469  0.00  0.00    +0.000 S 
ATOM      5  C   UNL     1      -0.554  12.328  19.786  0.00  0.00    +0.000 A 
ENDROOT
BRANCH   3   6
ATOM      6  C   UNL     1       0.897   8.841  20.695  0.00  0.00    +0.000 C 
ATOM      7  O   UNL     1       0.690   8.360  21.816  0.00  0.00    +0.000 OA
ATOM      8  N   UNL     1       1.806   8.198  19.835  0.00  0.00    +0.000 N 
ATOM      9  C   UNL     1       2.334   6.886  20.221  0.00  0.00    +0.000 C 
ATOM     10  C   UNL     1       2.399   5.955  19.004  0.00  0.00    +0.000 C 
ATOM     11  N   UNL     1       3.156   6.576  17.904  0.00  0.00    +0.000 N 
ATOM     12  C   UNL     1       4.150   5.823  17.304  0.00  0.00    +0.000 C 
ATOM     13  O   UNL     1       4.447   4.706  17.704  0.00  0.00    +0.000 OA
ATOM     14  N   UNL     1       4.771   6.384  16.223  0.00  0.00    +0.000 N 
ATOM     15  C   UNL     1       2.644   7.896  17.507  0.00  0.00    +0.000 C 
ATOM     16  C   UNL     1       2.531   8.832  18.724  0.00  0.00    +0.000 C 
ATOM     17  H   UNL     1       4.755   7.381  16.126  0.00  0.00    +0.000 HD
BRANCH  14  18
ATOM     18  C   UNL     1       5.871   5.686  15.556  0.00  0.00    +0.000 C 
ATOM     19  C   UNL     1       6.971   5.356  16.560  0.00  0.00    +0.000 C 
ATOM     20  C   UNL     1       5.377   4.415  14.869  0.00  0.00    +0.000 C 
ENDBRANCH  14  18
ENDBRANCH   3   6
BRANCH   1  24
ATOM     21  C   UNL     1      -5.139  12.112  17.399  0.00  0.00    +0.000 A 
ATOM     22  C   UNL     1      -4.995  12.344  18.768  0.00  0.00    +0.000 A 
ATOM     23  C   UNL     1      -3.786  12.063  19.414  0.00  0.00    +0.000 A 
ATOM     24  C   UNL     1      -2.714  11.505  18.705  0.00  0.00    +0.000 A 
ATOM     25  C   UNL     1      -2.915  11.170  17.359  0.00  0.00    +0.000 A 
ATOM     26  C   UNL     1      -4.097  11.518  16.695  0.00  0.00    +0.000 A 
BRANCH  21  28
ATOM     27  C   UNL     1      -6.688  13.842  16.958  0.00  0.00    +0.000 C 
ATOM     28  O   UNL     1      -6.348  12.463  16.866  0.00  0.00    +0.000 OA
ENDBRANCH  21  28
ENDBRANCH   1  24
BRANCH   5  29
ATOM     29  C   UNL     1      -0.651  13.805  19.724  0.00  0.00    +0.000 A 
ATOM     30  C   UNL     1      -0.090  14.541  18.670  0.00  0.00    +0.000 A 
ATOM     31  C   UNL     1      -0.334  15.915  18.545  0.00  0.00    +0.000 A 
ATOM     32  C   UNL     1      -1.181  16.571  19.436  0.00  0.00    +0.000 A 
ATOM     33  C   UNL     1      -1.702  15.871  20.517  0.00  0.00    +0.000 A 
ATOM     34  C   UNL     1      -1.391  14.516  20.684  0.00  0.00    +0.000 A 
BRANCH  32  35
ATOM     35  O   UNL     1      -1.393  17.895  19.177  0.00  0.00    +0.000 OA
ATOM     36  C   UNL     1      -2.720  18.247  18.795  0.00  0.00    +0.000 C 
ENDBRANCH  32  35
ENDBRANCH   5  29
TORSDOF 6
ENDMDL
MODEL 4
REMARK VINA RESULT:      -6.7      4.300      8.660
REMARK  Name = 
REMARK  10 active torsions:
REMARK  status: ('A' for Active; 'I' for Inactive)
REMARK    1  A    between atoms: C_1  and  O_2
REMARK    2  A    between atoms: O_2  and  C_3
REMARK    3  A    between atoms: C_6  and  C_7
REMARK    4  A    between atoms: C_9  and  C_10
REMARK    5  A    between atoms: N_18  and  C_19
REMARK    6  A    between atoms: C_19  and  C_20
REMARK    7  A    between atoms: C_19  and  C_21
REMARK    8  A    between atoms: C_25  and  C_26
REMARK    9  A    between atoms: C_29  and  O_30
REMARK   10  A    between atoms: O_30  and  C_31
REMARK                            x       y       z     vdW  Elec       q    Type
REMARK                         _______ _______ _______ _____ _____    ______ ____
ROOT
ATOM      1  C   UNL     1       0.618  11.181  19.955  0.00  0.00    +0.000 A 
ATOM      2  N   UNL     1       1.292  12.006  20.851  0.00  0.00    +0.000 NA
ATOM      3  C   UNL     1       0.757  13.210  20.862  0.00  0.00    +0.000 A 
ATOM      4  S   UNL     1      -0.610  13.404  19.849  0.00  0.00    +0.000 S 
ATOM      5  C   UNL     1      -0.500  11.755  19.340  0.00  0.00    +0.000 A 
ENDROOT
BRANCH   3   6
ATOM      6  C   UNL     1       1.195  14.315  21.720  0.00  0.00    +0.000 C 
ATOM      7  O   UNL     1       0.517  14.703  22.679  0.00  0.00    +0.000 OA
ATOM      8  N   UNL     1       2.444  14.917  21.481  0.00  0.00    +0.000 N 
ATOM      9  C   UNL     1       2.979  15.849  22.477  0.00  0.00    +0.000 C 
ATOM     10  C   UNL     1       4.486  15.629  22.663  0.00  0.00    +0.000 C 
ATOM     11  N   UNL     1       5.193  15.701  21.372  0.00  0.00    +0.000 N 
ATOM     12  C   UNL     1       6.313  16.510  21.299  0.00  0.00    +0.000 C 
ATOM     13  O   UNL     1       6.678  17.198  22.241  0.00  0.00    +0.000 OA
ATOM     14  N   UNL     1       7.008  16.484  20.122  0.00  0.00    +0.000 N 
ATOM     15  C   UNL     1       4.665  14.775  20.359  0.00  0.00    +0.000 C 
ATOM     16  C   UNL     1       3.146  14.952  20.189  0.00  0.00    +0.000 C 
ATOM     17  H   UNL     1       6.529  16.195  19.291  0.00  0.00    +0.000 HD
BRANCH  14  18
ATOM     18  C   UNL     1       8.175  17.346  19.931  0.00  0.00    +0.000 C 
ATOM     19  C   UNL     1       9.426  16.668  20.477  0.00  0.00    +0.000 C 
ATOM     20  C   UNL     1       8.359  17.701  18.457  0.00  0.00    +0.000 C 
ENDBRANCH  14  18
ENDBRANCH   3   6
BRANCH   1  24
ATOM     21  C   UNL     1       2.245   7.252  19.471  0.00  0.00    +0.000 A 
ATOM     22  C   UNL     1       2.285   8.174  18.423  0.00  0.00    +0.000 A 
ATOM     23  C   UNL     1       1.733   9.450  18.576  0.00  0.00    +0.000 A 
ATOM     24  C   UNL     1       1.096   9.810  19.770  0.00  0.00    +0.000 A 
ATOM     25  C   UNL     1       0.962   8.835  20.768  0.00  0.00    +0.000 A 
ATOM     26  C   UNL     1       1.576   7.583  20.644  0.00  0.00    +0.000 A 
BRANCH  21  28
ATOM     27  C   UNL     1       3.695   6.010  18.077  0.00  0.00    +0.000 C 
ATOM     28  O   UNL     1       2.852   6.052  19.223  0.00  0.00    +0.000 OA
ENDBRANCH  21  28
ENDBRANCH   1  24
BRANCH   5  29
ATOM     29  C   UNL     1      -1.504  11.205  18.400  0.00  0.00    +0.000 A 
ATOM     30  C   UNL     1      -2.755  11.811  18.215  0.00  0.00    +0.000 A 
ATOM     31  C   UNL     1      -3.622  11.373  17.205  0.00  0.00    +0.000 A 
ATOM     32  C   UNL     1      -3.239  10.360  16.328  0.00  0.00    +0.000 A 
ATOM     33  C   UNL     1      -2.027   9.711  16.530  0.00  0.00    +0.000 A 
ATOM     34  C   UNL     1      -1.198  10.098  17.590  0.00  0.00    +0.000 A 
BRANCH  32  35
ATOM     35  O   UNL     1      -4.140  10.062  15.346  0.00  0.00    +0.000 OA
ATOM     36  C   UNL     1      -3.638  10.098  14.013  0.00  0.00    +0.000 C 
ENDBRANCH  32  35
ENDBRANCH   5  29
TORSDOF 6
ENDMDL
MODEL 5
REMARK VINA RESULT:      -6.6      4.301      8.156
REMARK  Name = 
REMARK  10 active torsions:
REMARK  status: ('A' for Active; 'I' for Inactive)
REMARK    1  A    between atoms: C_1  and  O_2
REMARK    2  A    between atoms: O_2  and  C_3
REMARK    3  A    between atoms: C_6  and  C_7
REMARK    4  A    between atoms: C_9  and  C_10
REMARK    5  A    between atoms: N_18  and  C_19
REMARK    6  A    between atoms: C_19  and  C_20
REMARK    7  A    between atoms: C_19  and  C_21
REMARK    8  A    between atoms: C_25  and  C_26
REMARK    9  A    between atoms: C_29  and  O_30
REMARK   10  A    between atoms: O_30  and  C_31
REMARK                            x       y       z     vdW  Elec       q    Type
REMARK                         _______ _______ _______ _____ _____    ______ ____
ROOT
ATOM      1  C   UNL     1      -0.358  12.342  18.655  0.00  0.00    +0.000 A 
ATOM      2  N   UNL     1      -0.242  13.723  18.531  0.00  0.00    +0.000 NA
ATOM      3  C   UNL     1       0.993  14.107  18.784  0.00  0.00    +0.000 A 
ATOM      4  S   UNL     1       2.090  12.837  19.127  0.00  0.00    +0.000 S 
ATOM      5  C   UNL     1       0.835  11.663  18.927  0.00  0.00    +0.000 A 
ENDROOT
BRANCH   3   6
ATOM      6  C   UNL     1       1.475  15.489  18.706  0.00  0.00    +0.000 C 
ATOM      7  O   UNL     1       0.696  16.449  18.659  0.00  0.00    +0.000 OA
ATOM      8  N   UNL     1       2.859  15.736  18.738  0.00  0.00    +0.000 N 
ATOM      9  C   UNL     1       3.325  17.116  18.901  0.00  0.00    +0.000 C 
ATOM     10  C   UNL     1       4.525  17.169  19.855  0.00  0.00    +0.000 C 
ATOM     11  N   UNL     1       5.591  16.253  19.414  0.00  0.00    +0.000 N 
ATOM     12  C   UNL     1       6.878  16.755  19.336  0.00  0.00    +0.000 C 
ATOM     13  O   UNL     1       7.128  17.931  19.558  0.00  0.00    +0.000 OA
ATOM     14  N   UNL     1       7.863  15.862  19.020  0.00  0.00    +0.000 N 
ATOM     15  C   UNL     1       5.140  14.863  19.241  0.00  0.00    +0.000 C 
ATOM     16  C   UNL     1       3.909  14.795  18.319  0.00  0.00    +0.000 C 
ATOM     17  H   UNL     1       7.610  15.024  18.533  0.00  0.00    +0.000 HD
BRANCH  14  18
ATOM     18  C   UNL     1       9.247  16.311  18.862  0.00  0.00    +0.000 C 
ATOM     19  C   UNL     1      10.201  15.318  19.516  0.00  0.00    +0.000 C 
ATOM     20  C   UNL     1       9.598  16.497  17.387  0.00  0.00    +0.000 C 
ENDBRANCH  14  18
ENDBRANCH   3   6
BRANCH   1  24
ATOM     21  C   UNL     1      -4.253  10.734  17.903  0.00  0.00    +0.000 A 
ATOM     22  C   UNL     1      -4.073  11.757  18.836  0.00  0.00    +0.000 A 
ATOM     23  C   UNL     1      -2.796  12.266  19.096  0.00  0.00    +0.000 A 
ATOM     24  C   UNL     1      -1.673  11.730  18.454  0.00  0.00    +0.000 A 
ATOM     25  C   UNL     1      -1.857  10.627  17.609  0.00  0.00    +0.000 A 
ATOM     26  C   UNL     1      -3.140  10.164  17.293  0.00  0.00    +0.000 A 
BRANCH  21  28
ATOM     27  C   UNL     1      -6.461  10.660  18.745  0.00  0.00    +0.000 C 
ATOM     28  O   UNL     1      -5.547  10.344  17.699  0.00  0.00    +0.000 OA
ENDBRANCH  21  28
ENDBRANCH   1  24
BRANCH   5  29
ATOM     29  C   UNL     1       1.145  10.222  19.062  0.00  0.00    +0.000 A 
ATOM     30  C   UNL     1       1.787   9.504  18.043  0.00  0.00    +0.000 A 
ATOM     31  C   UNL     1       2.217   8.187  18.254  0.00  0.00    +0.000 A 
ATOM     32  C   UNL     1       2.063   7.579  19.498  0.00  0.00    +0.000 A 
ATOM     33  C   UNL     1       1.381   8.254  20.503  0.00  0.00    +0.000 A 
ATOM     34  C   UNL     1       0.881   9.540  20.262  0.00  0.00    +0.000 A 
BRANCH  32  35
ATOM     35  O   UNL     1       2.578   6.318  19.604  0.00  0.00    +0.000 OA
ATOM     36  C   UNL     1       1.925   5.458  20.533  0.00  0.00    +0.000 C 
ENDBRANCH  32  35
ENDBRANCH   5  29
TORSDOF 6
ENDMDL
MODEL 6
REMARK VINA RESULT:      -6.4      4.697      8.456
REMARK  Name = 
REMARK  10 active torsions:
REMARK  status: ('A' for Active; 'I' for Inactive)
REMARK    1  A    between atoms: C_1  and  O_2
REMARK    2  A    between atoms: O_2  and  C_3
REMARK    3  A    between atoms: C_6  and  C_7
REMARK    4  A    between atoms: C_9  and  C_10
REMARK    5  A    between atoms: N_18  and  C_19
REMARK    6  A    between atoms: C_19  and  C_20
REMARK    7  A    between atoms: C_19  and  C_21
REMARK    8  A    between atoms: C_25  and  C_26
REMARK    9  A    between atoms: C_29  and  O_30
REMARK   10  A    between atoms: O_30  and  C_31
REMARK                            x       y       z     vdW  Elec       q    Type
REMARK                         _______ _______ _______ _____ _____    ______ ____
ROOT
ATOM      1  C   UNL     1       0.884  12.185  20.122  0.00  0.00    +0.000 A 
ATOM      2  N   UNL     1       1.876  12.861  20.827  0.00  0.00    +0.000 NA
ATOM      3  C   UNL     1       1.504  14.101  21.072  0.00  0.00    +0.000 A 
ATOM      4  S   UNL     1      -0.068  14.507  20.525  0.00  0.00    +0.000 S 
ATOM      5  C   UNL     1      -0.293  12.907  19.905  0.00  0.00    +0.000 A 
ENDROOT
BRANCH   3   6
ATOM      6  C   UNL     1       2.290  15.080  21.828  0.00  0.00    +0.000 C 
ATOM      7  O   UNL     1       1.888  15.552  22.898  0.00  0.00    +0.000 OA
ATOM      8  N   UNL     1       3.560  15.455  21.353  0.00  0.00    +0.000 N 
ATOM      9  C   UNL     1       4.435  16.242  22.226  0.00  0.00    +0.000 C 
ATOM     10  C   UNL     1       5.884  15.748  22.121  0.00  0.00    +0.000 C 
ATOM     11  N   UNL     1       6.336  15.733  20.719  0.00  0.00    +0.000 N 
ATOM     12  C   UNL     1       7.551  16.329  20.431  0.00  0.00    +0.000 C 
ATOM     13  O   UNL     1       8.207  16.908  21.285  0.00  0.00    +0.000 OA
ATOM     14  N   UNL     1       7.995  16.217  19.143  0.00  0.00    +0.000 N 
ATOM     15  C   UNL     1       5.467  14.952  19.827  0.00  0.00    +0.000 C 
ATOM     16  C   UNL     1       4.001  15.406  19.951  0.00  0.00    +0.000 C 
ATOM     17  H   UNL     1       7.324  16.047  18.420  0.00  0.00    +0.000 HD
BRANCH  14  18
ATOM     18  C   UNL     1       9.243  16.861  18.731  0.00  0.00    +0.000 C 
ATOM     19  C   UNL     1       9.918  16.047  17.632  0.00  0.00    +0.000 C 
ATOM     20  C   UNL     1       8.992  18.291  18.259  0.00  0.00    +0.000 C 
ENDBRANCH  14  18
ENDBRANCH   3   6
BRANCH   1  24
ATOM     21  C   UNL     1       1.857   8.174  18.986  0.00  0.00    +0.000 A 
ATOM     22  C   UNL     1       1.957   9.220  18.066  0.00  0.00    +0.000 A 
ATOM     23  C   UNL     1       1.619  10.527  18.433  0.00  0.00    +0.000 A 
ATOM     24  C   UNL     1       1.134  10.800  19.719  0.00  0.00    +0.000 A 
ATOM     25  C   UNL     1       0.929   9.723  20.592  0.00  0.00    +0.000 A 
ATOM     26  C   UNL     1       1.336   8.428  20.250  0.00  0.00    +0.000 A 
BRANCH  21  28
ATOM     27  C   UNL     1       2.978   6.147  19.459  0.00  0.00    +0.000 C 
ATOM     28  O   UNL     1       2.255   6.948  18.530  0.00  0.00    +0.000 OA
ENDBRANCH  21  28
ENDBRANCH   1  24
BRANCH   5  29
ATOM     29  C   UNL     1      -1.580  12.537  19.273  0.00  0.00    +0.000 A 
ATOM     30  C   UNL     1      -1.638  11.944  18.003  0.00  0.00    +0.000 A 
ATOM     31  C   UNL     1      -2.848  11.452  17.495  0.00  0.00    +0.000 A 
ATOM     32  C   UNL     1      -4.011  11.495  18.261  0.00  0.00    +0.000 A 
ATOM     33  C   UNL     1      -3.985  12.128  19.497  0.00  0.00    +0.000 A 
ATOM     34  C   UNL     1      -2.792  12.689  19.968  0.00  0.00    +0.000 A 
BRANCH  32  35
ATOM     35  O   UNL     1      -5.113  10.930  17.686  0.00  0.00    +0.000 OA
ATOM     36  C   UNL     1      -6.336  11.638  17.862  0.00  0.00    +0.000 C 
ENDBRANCH  32  35
ENDBRANCH   5  29
TORSDOF 6
ENDMDL
MODEL 7
REMARK VINA RESULT:      -6.4      1.146      1.839
REMARK  Name = 
REMARK  10 active torsions:
REMARK  status: ('A' for Active; 'I' for Inactive)
REMARK    1  A    between atoms: C_1  and  O_2
REMARK    2  A    between atoms: O_2  and  C_3
REMARK    3  A    between atoms: C_6  and  C_7
REMARK    4  A    between atoms: C_9  and  C_10
REMARK    5  A    between atoms: N_18  and  C_19
REMARK    6  A    between atoms: C_19  and  C_20
REMARK    7  A    between atoms: C_19  and  C_21
REMARK    8  A    between atoms: C_25  and  C_26
REMARK    9  A    between atoms: C_29  and  O_30
REMARK   10  A    between atoms: O_30  and  C_31
REMARK                            x       y       z     vdW  Elec       q    Type
REMARK                         _______ _______ _______ _____ _____    ______ ____
ROOT
ATOM      1  C   UNL     1      -0.816  10.556  19.033  0.00  0.00    +0.000 A 
ATOM      2  N   UNL     1      -0.359   9.275  19.332  0.00  0.00    +0.000 NA
ATOM      3  C   UNL     1       0.532   9.318  20.301  0.00  0.00    +0.000 A 
ATOM      4  S   UNL     1       0.828  10.877  20.945  0.00  0.00    +0.000 S 
ATOM      5  C   UNL     1      -0.319  11.574  19.853  0.00  0.00    +0.000 A 
ENDROOT
BRANCH   3   6
ATOM      6  C   UNL     1       1.187   8.147  20.891  0.00  0.00    +0.000 C 
ATOM      7  O   UNL     1       0.999   7.819  22.068  0.00  0.00    +0.000 OA
ATOM      8  N   UNL     1       2.012   7.343  20.083  0.00  0.00    +0.000 N 
ATOM      9  C   UNL     1       2.469   6.052  20.607  0.00  0.00    +0.000 C 
ATOM     10  C   UNL     1       2.417   4.980  19.511  0.00  0.00    +0.000 C 
ATOM     11  N   UNL     1       3.165   5.410  18.316  0.00  0.00    +0.000 N 
ATOM     12  C   UNL     1       4.078   4.522  17.777  0.00  0.00    +0.000 C 
ATOM     13  O   UNL     1       4.317   3.443  18.299  0.00  0.00    +0.000 OA
ATOM     14  N   UNL     1       4.687   4.905  16.614  0.00  0.00    +0.000 N 
ATOM     15  C   UNL     1       2.723   6.707  17.780  0.00  0.00    +0.000 C 
ATOM     16  C   UNL     1       2.727   7.786  18.877  0.00  0.00    +0.000 C 
ATOM     17  H   UNL     1       4.732   5.881  16.397  0.00  0.00    +0.000 HD
BRANCH  14  18
ATOM     18  C   UNL     1       5.707   4.056  15.998  0.00  0.00    +0.000 C 
ATOM     19  C   UNL     1       5.604   4.125  14.478  0.00  0.00    +0.000 C 
ATOM     20  C   UNL     1       7.107   4.460  16.457  0.00  0.00    +0.000 C 
ENDBRANCH  14  18
ENDBRANCH   3   6
BRANCH   1  24
ATOM     21  C   UNL     1      -3.742  10.810  15.919  0.00  0.00    +0.000 A 
ATOM     22  C   UNL     1      -2.552  10.106  15.723  0.00  0.00    +0.000 A 
ATOM     23  C   UNL     1      -1.587  10.043  16.734  0.00  0.00    +0.000 A 
ATOM     24  C   UNL     1      -1.783  10.718  17.946  0.00  0.00    +0.000 A 
ATOM     25  C   UNL     1      -2.928  11.514  18.082  0.00  0.00    +0.000 A 
ATOM     26  C   UNL     1      -3.926  11.520  17.101  0.00  0.00    +0.000 A 
BRANCH  21  28
ATOM     27  C   UNL     1      -4.210  10.028  13.738  0.00  0.00    +0.000 C 
ATOM     28  O   UNL     1      -4.629  10.768  14.880  0.00  0.00    +0.000 OA
ENDBRANCH  21  28
ENDBRANCH   1  24
BRANCH   5  29
ATOM     29  C   UNL     1      -0.601  13.027  19.910  0.00  0.00    +0.000 A 
ATOM     30  C   UNL     1      -0.036  13.928  18.996  0.00  0.00    +0.000 A 
ATOM     31  C   UNL     1      -0.442  15.268  18.964  0.00  0.00    +0.000 A 
ATOM     32  C   UNL     1      -1.455  15.724  19.805  0.00  0.00    +0.000 A 
ATOM     33  C   UNL     1      -1.989  14.861  20.754  0.00  0.00    +0.000 A 
ATOM     34  C   UNL     1      -1.523  13.544  20.836  0.00  0.00    +0.000 A 
BRANCH  32  35
ATOM     35  O   UNL     1      -1.811  17.033  19.639  0.00  0.00    +0.000 OA
ATOM     36  C   UNL     1      -1.825  17.825  20.823  0.00  0.00    +0.000 C 
ENDBRANCH  32  35
ENDBRANCH   5  29
TORSDOF 6
ENDMDL
MODEL 8
REMARK VINA RESULT:      -6.4      0.889      1.342
REMARK  Name = 
REMARK  10 active torsions:
REMARK  status: ('A' for Active; 'I' for Inactive)
REMARK    1  A    between atoms: C_1  and  O_2
REMARK    2  A    between atoms: O_2  and  C_3
REMARK    3  A    between atoms: C_6  and  C_7
REMARK    4  A    between atoms: C_9  and  C_10
REMARK    5  A    between atoms: N_18  and  C_19
REMARK    6  A    between atoms: C_19  and  C_20
REMARK    7  A    between atoms: C_19  and  C_21
REMARK    8  A    between atoms: C_25  and  C_26
REMARK    9  A    between atoms: C_29  and  O_30
REMARK   10  A    between atoms: O_30  and  C_31
REMARK                            x       y       z     vdW  Elec       q    Type
REMARK                         _______ _______ _______ _____ _____    ______ ____
ROOT
ATOM      1  C   UNL     1      -1.356  11.404  19.529  0.00  0.00    +0.000 A 
ATOM      2  N   UNL     1      -1.018  10.080  19.792  0.00  0.00    +0.000 NA
ATOM      3  C   UNL     1       0.186  10.007  20.322  0.00  0.00    +0.000 A 
ATOM      4  S   UNL     1       0.952  11.515  20.587  0.00  0.00    +0.000 S 
ATOM      5  C   UNL     1      -0.418  12.354  19.948  0.00  0.00    +0.000 A 
ENDROOT
BRANCH   3   6
ATOM      6  C   UNL     1       0.837   8.768  20.757  0.00  0.00    +0.000 C 
ATOM      7  O   UNL     1       0.574   8.241  21.845  0.00  0.00    +0.000 OA
ATOM      8  N   UNL     1       1.749   8.132  19.895  0.00  0.00    +0.000 N 
ATOM      9  C   UNL     1       2.211   6.782  20.230  0.00  0.00    +0.000 C 
ATOM     10  C   UNL     1       2.280   5.910  18.970  0.00  0.00    +0.000 C 
ATOM     11  N   UNL     1       3.098   6.553  17.927  0.00  0.00    +0.000 N 
ATOM     12  C   UNL     1       4.080   5.791  17.321  0.00  0.00    +0.000 C 
ATOM     13  O   UNL     1       4.319   4.644  17.673  0.00  0.00    +0.000 OA
ATOM     14  N   UNL     1       4.759   6.378  16.290  0.00  0.00    +0.000 N 
ATOM     15  C   UNL     1       2.651   7.911  17.582  0.00  0.00    +0.000 C 
ATOM     16  C   UNL     1       2.535   8.790  18.841  0.00  0.00    +0.000 C 
ATOM     17  H   UNL     1       4.785   7.378  16.244  0.00  0.00    +0.000 HD
BRANCH  14  18
ATOM     18  C   UNL     1       5.852   5.669  15.624  0.00  0.00    +0.000 C 
ATOM     19  C   UNL     1       7.080   5.626  16.527  0.00  0.00    +0.000 C 
ATOM     20  C   UNL     1       5.429   4.256  15.229  0.00  0.00    +0.000 C 
ENDBRANCH  14  18
ENDBRANCH   3   6
BRANCH   1  24
ATOM     21  C   UNL     1      -5.187  11.986  17.711  0.00  0.00    +0.000 A 
ATOM     22  C   UNL     1      -4.111  11.499  16.966  0.00  0.00    +0.000 A 
ATOM     23  C   UNL     1      -2.854  11.330  17.556  0.00  0.00    +0.000 A 
ATOM     24  C   UNL     1      -2.645  11.685  18.895  0.00  0.00    +0.000 A 
ATOM     25  C   UNL     1      -3.703  12.281  19.595  0.00  0.00    +0.000 A 
ATOM     26  C   UNL     1      -4.979  12.383  19.027  0.00  0.00    +0.000 A 
BRANCH  21  28
ATOM     27  C   UNL     1      -7.049  13.321  17.130  0.00  0.00    +0.000 C 
ATOM     28  O   UNL     1      -6.376  12.070  17.042  0.00  0.00    +0.000 OA
ENDBRANCH  21  28
ENDBRANCH   1  24
BRANCH   5  29
ATOM     29  C   UNL     1      -0.428  13.835  19.918  0.00  0.00    +0.000 A 
ATOM     30  C   UNL     1      -0.536  14.599  21.089  0.00  0.00    +0.000 A 
ATOM     31  C   UNL     1      -0.379  15.991  21.056  0.00  0.00    +0.000 A 
ATOM     32  C   UNL     1      -0.060  16.642  19.866  0.00  0.00    +0.000 A 
ATOM     33  C   UNL     1      -0.004  15.909  18.687  0.00  0.00    +0.000 A 
ATOM     34  C   UNL     1      -0.241  14.530  18.711  0.00  0.00    +0.000 A 
BRANCH  32  35
ATOM     35  O   UNL     1       0.131  17.991  19.968  0.00  0.00    +0.000 OA
ATOM     36  C   UNL     1       0.660  18.630  18.810  0.00  0.00    +0.000 C 
ENDBRANCH  32  35
ENDBRANCH   5  29
TORSDOF 6
ENDMDL
MODEL 9
REMARK VINA RESULT:      -6.3      4.472      8.144
REMARK  Name = 
REMARK  10 active torsions:
REMARK  status: ('A' for Active; 'I' for Inactive)
REMARK    1  A    between atoms: C_1  and  O_2
REMARK    2  A    between atoms: O_2  and  C_3
REMARK    3  A    between atoms: C_6  and  C_7
REMARK    4  A    between atoms: C_9  and  C_10
REMARK    5  A    between atoms: N_18  and  C_19
REMARK    6  A    between atoms: C_19  and  C_20
REMARK    7  A    between atoms: C_19  and  C_21
REMARK    8  A    between atoms: C_25  and  C_26
REMARK    9  A    between atoms: C_29  and  O_30
REMARK   10  A    between atoms: O_30  and  C_31
REMARK                            x       y       z     vdW  Elec       q    Type
REMARK                         _______ _______ _______ _____ _____    ______ ____
ROOT
ATOM      1  C   UNL     1       0.682  12.244  19.217  0.00  0.00    +0.000 A 
ATOM      2  N   UNL     1       1.681  13.160  19.537  0.00  0.00    +0.000 NA
ATOM      3  C   UNL     1       1.241  14.393  19.390  0.00  0.00    +0.000 A 
ATOM      4  S   UNL     1      -0.400  14.524  18.918  0.00  0.00    +0.000 S 
ATOM      5  C   UNL     1      -0.561  12.802  18.902  0.00  0.00    +0.000 A 
ENDROOT
BRANCH   3   6
ATOM      6  C   UNL     1       2.018  15.601  19.679  0.00  0.00    +0.000 C 
ATOM      7  O   UNL     1       1.494  16.613  20.160  0.00  0.00    +0.000 OA
ATOM      8  N   UNL     1       3.406  15.595  19.453  0.00  0.00    +0.000 N 
ATOM      9  C   UNL     1       4.208  16.711  19.963  0.00  0.00    +0.000 C 
ATOM     10  C   UNL     1       5.529  16.198  20.551  0.00  0.00    +0.000 C 
ATOM     11  N   UNL     1       6.256  15.371  19.573  0.00  0.00    +0.000 N 
ATOM     12  C   UNL     1       7.593  15.654  19.360  0.00  0.00    +0.000 C 
ATOM     13  O   UNL     1       8.150  16.596  19.907  0.00  0.00    +0.000 OA
ATOM     14  N   UNL     1       8.270  14.812  18.522  0.00  0.00    +0.000 N 
ATOM     15  C   UNL     1       5.464  14.249  19.046  0.00  0.00    +0.000 C 
ATOM     16  C   UNL     1       4.115  14.740  18.490  0.00  0.00    +0.000 C 
ATOM     17  H   UNL     1       7.746  14.281  17.854  0.00  0.00    +0.000 HD
BRANCH  14  18
ATOM     18  C   UNL     1       9.674  15.064  18.195  0.00  0.00    +0.000 C 
ATOM     19  C   UNL     1      10.364  13.763  17.799  0.00  0.00    +0.000 C 
ATOM     20  C   UNL     1       9.799  16.096  17.076  0.00  0.00    +0.000 C 
ENDBRANCH  14  18
ENDBRANCH   3   6
BRANCH   1  24
ATOM     21  C   UNL     1       1.837   8.129  19.454  0.00  0.00    +0.000 A 
ATOM     22  C   UNL     1       2.044   8.861  18.283  0.00  0.00    +0.000 A 
ATOM     23  C   UNL     1       1.646  10.200  18.200  0.00  0.00    +0.000 A 
ATOM     24  C   UNL     1       0.997  10.816  19.278  0.00  0.00    +0.000 A 
ATOM     25  C   UNL     1       0.694  10.035  20.401  0.00  0.00    +0.000 A 
ATOM     26  C   UNL     1       1.155   8.718  20.513  0.00  0.00    +0.000 A 
BRANCH  21  28
ATOM     27  C   UNL     1       2.852   6.402  18.198  0.00  0.00    +0.000 C 
ATOM     28  O   UNL     1       2.304   6.845  19.436  0.00  0.00    +0.000 OA
ENDBRANCH  21  28
ENDBRANCH   1  24
BRANCH   5  29
ATOM     29  C   UNL     1      -1.869  12.187  18.581  0.00  0.00    +0.000 A 
ATOM     30  C   UNL     1      -2.984  12.335  19.418  0.00  0.00    +0.000 A 
ATOM     31  C   UNL     1      -4.249  11.886  19.017  0.00  0.00    +0.000 A 
ATOM     32  C   UNL     1      -4.437  11.328  17.754  0.00  0.00    +0.000 A 
ATOM     33  C   UNL     1      -3.336  11.123  16.932  0.00  0.00    +0.000 A 
ATOM     34  C   UNL     1      -2.061  11.500  17.369  0.00  0.00    +0.000 A 
BRANCH  32  35
ATOM     35  O   UNL     1      -5.725  10.986  17.450  0.00  0.00    +0.000 OA
ATOM     36  C   UNL     1      -6.730  11.555  18.282  0.00  0.00    +0.000 C 
ENDBRANCH  32  35
ENDBRANCH   5  29
TORSDOF 6
ENDMDL
