MODEL 1
REMARK VINA RESULT:      -6.1      0.000      0.000
REMARK  Name = 
REMARK  5 active torsions:
REMARK  status: ('A' for Active; 'I' for Inactive)
REMARK    1  A    between atoms: C_1  and  O_2
REMARK    2  A    between atoms: O_2  and  C_3
REMARK    3  A    between atoms: C_3  and  C_5
REMARK    4  A    between atoms: C_13  and  C_14
REMARK    5  A    between atoms: C_13  and  C_15
REMARK                            x       y       z     vdW  Elec       q    Type
REMARK                         _______ _______ _______ _____ _____    ______ ____
ROOT
ATOM      1  C   UNL     1       3.267   5.246  19.602  0.00  0.00    +0.000 C 
ATOM      2  N   UNL     1       4.264   5.382  18.522  0.00  0.00    +0.000 N 
ATOM      3  C   UNL     1       5.440   4.702  18.526  0.00  0.00    +0.000 C 
ATOM      4  O   UNL     1       6.183   4.442  19.458  0.00  0.00    +0.000 OA
ATOM      5  C   UNL     1       5.195   4.144  17.100  0.00  0.00    +0.000 C 
ATOM      6 BR   UNL     1       6.503   4.782  15.834  0.00  0.00    +0.000 Br
ATOM      7  C   UNL     1       3.855   4.910  17.191  0.00  0.00    +0.000 C 
ATOM      8  S   UNL     1       2.369   3.851  17.474  0.00  0.00    +0.000 S 
ATOM      9  C   UNL     1       2.519   3.903  19.332  0.00  0.00    +0.000 C 
ATOM     10  C   UNL     1       1.139   3.780  19.995  0.00  0.00    +0.000 C 
ENDROOT
BRANCH   1  11
ATOM     11  C   UNL     1       2.465   6.568  19.564  0.00  0.00    +0.000 C 
ATOM     12  O   UNL     1       2.489   7.386  18.645  0.00  0.00    +0.000 OA
BRANCH  11  14
ATOM     13  C   UNL     1       1.338   8.115  20.963  0.00  0.00    +0.000 C 
ATOM     14  O   UNL     1       1.776   6.763  20.727  0.00  0.00    +0.000 OA
ENDBRANCH  11  14
ENDBRANCH   1  11
BRANCH   9  15
ATOM     15  C   UNL     1       3.388   2.694  19.811  0.00  0.00    +0.000 C 
ATOM     16 CL   UNL     1       3.575   1.364  18.621  0.00  0.00    +0.000 Cl
ENDBRANCH   9  15
TORSDOF 3
ENDMDL
MODEL 2
REMARK VINA RESULT:      -6.0      3.024      3.956
REMARK  Name = 
REMARK  5 active torsions:
REMARK  status: ('A' for Active; 'I' for Inactive)
REMARK    1  A    between atoms: C_1  and  O_2
REMARK    2  A    between atoms: O_2  and  C_3
REMARK    3  A    between atoms: C_3  and  C_5
REMARK    4  A    between atoms: C_13  and  C_14
REMARK    5  A    between atoms: C_13  and  C_15
REMARK                            x       y       z     vdW  Elec       q    Type
REMARK                         _______ _______ _______ _____ _____    ______ ____
ROOT
ATOM      1  C   UNL     1       2.644   6.076  17.991  0.00  0.00    +0.000 C 
ATOM      2  N   UNL     1       2.152   5.202  19.074  0.00  0.00    +0.000 N 
ATOM      3  C   UNL     1       1.729   3.931  18.851  0.00  0.00    +0.000 C 
ATOM      4  O   UNL     1       1.085   3.480  17.917  0.00  0.00    +0.000 OA
ATOM      5  C   UNL     1       2.670   3.359  19.941  0.00  0.00    +0.000 C 
ATOM      6 BR   UNL     1       1.693   2.562  21.402  0.00  0.00    +0.000 Br
ATOM      7  C   UNL     1       3.130   4.825  20.106  0.00  0.00    +0.000 C 
ATOM      8  S   UNL     1       4.786   5.209  19.384  0.00  0.00    +0.000 S 
ATOM      9  C   UNL     1       4.106   5.615  17.696  0.00  0.00    +0.000 C 
ATOM     10  C   UNL     1       4.987   6.656  16.988  0.00  0.00    +0.000 C 
ENDROOT
BRANCH   1  11
ATOM     11  C   UNL     1       2.404   7.514  18.507  0.00  0.00    +0.000 C 
ATOM     12  O   UNL     1       2.230   7.825  19.685  0.00  0.00    +0.000 OA
BRANCH  11  14
ATOM     13  C   UNL     1       1.892   9.729  17.836  0.00  0.00    +0.000 C 
ATOM     14  O   UNL     1       2.326   8.404  17.474  0.00  0.00    +0.000 OA
ENDBRANCH  11  14
ENDBRANCH   1  11
BRANCH   9  15
ATOM     15  C   UNL     1       4.099   4.320  16.819  0.00  0.00    +0.000 C 
ATOM     16 CL   UNL     1       5.234   4.328  15.430  0.00  0.00    +0.000 Cl
ENDBRANCH   9  15
TORSDOF 3
ENDMDL
MODEL 3
REMARK VINA RESULT:      -6.0      1.238      1.541
REMARK  Name = 
REMARK  5 active torsions:
REMARK  status: ('A' for Active; 'I' for Inactive)
REMARK    1  A    between atoms: C_1  and  O_2
REMARK    2  A    between atoms: O_2  and  C_3
REMARK    3  A    between atoms: C_3  and  C_5
REMARK    4  A    between atoms: C_13  and  C_14
REMARK    5  A    between atoms: C_13  and  C_15
REMARK                            x       y       z     vdW  Elec       q    Type
REMARK                         _______ _______ _______ _____ _____    ______ ____
ROOT
ATOM      1  C   UNL     1       3.293   5.557  19.587  0.00  0.00    +0.000 C 
ATOM      2  N   UNL     1       4.165   5.378  18.409  0.00  0.00    +0.000 N 
ATOM      3  C   UNL     1       5.245   4.556  18.420  0.00  0.00    +0.000 C 
ATOM      4  O   UNL     1       6.058   4.353  19.307  0.00  0.00    +0.000 OA
ATOM      5  C   UNL     1       4.770   3.811  17.146  0.00  0.00    +0.000 C 
ATOM      6 BR   UNL     1       5.984   4.050  15.666  0.00  0.00    +0.000 Br
ATOM      7  C   UNL     1       3.549   4.755  17.228  0.00  0.00    +0.000 C 
ATOM      8  S   UNL     1       1.993   3.967  17.837  0.00  0.00    +0.000 S 
ATOM      9  C   UNL     1       2.367   4.302  19.632  0.00  0.00    +0.000 C 
ATOM     10  C   UNL     1       1.069   4.477  20.437  0.00  0.00    +0.000 C 
ENDROOT
BRANCH   1  11
ATOM     11  C   UNL     1       2.651   6.951  19.392  0.00  0.00    +0.000 C 
ATOM     12  O   UNL     1       1.908   7.509  20.199  0.00  0.00    +0.000 OA
BRANCH  11  14
ATOM     13  C   UNL     1       2.196   8.637  17.788  0.00  0.00    +0.000 C 
ATOM     14  O   UNL     1       2.947   7.466  18.162  0.00  0.00    +0.000 OA
ENDBRANCH  11  14
ENDBRANCH   1  11
BRANCH   9  15
ATOM     15  C   UNL     1       3.139   3.081  20.232  0.00  0.00    +0.000 C 
ATOM     16 CL   UNL     1       2.500   2.459  21.789  0.00  0.00    +0.000 Cl
ENDBRANCH   9  15
TORSDOF 3
ENDMDL
MODEL 4
REMARK VINA RESULT:      -5.8      3.555      5.356
REMARK  Name = 
REMARK  5 active torsions:
REMARK  status: ('A' for Active; 'I' for Inactive)
REMARK    1  A    between atoms: C_1  and  O_2
REMARK    2  A    between atoms: O_2  and  C_3
REMARK    3  A    between atoms: C_3  and  C_5
REMARK    4  A    between atoms: C_13  and  C_14
REMARK    5  A    between atoms: C_13  and  C_15
REMARK                            x       y       z     vdW  Elec       q    Type
REMARK                         _______ _______ _______ _____ _____    ______ ____
ROOT
ATOM      1  C   UNL     1       6.470   4.639  17.071  0.00  0.00    +0.000 C 
ATOM      2  N   UNL     1       5.088   4.127  17.160  0.00  0.00    +0.000 N 
ATOM      3  C   UNL     1       4.593   3.556  18.288  0.00  0.00    +0.000 C 
ATOM      4  O   UNL     1       5.138   2.808  19.083  0.00  0.00    +0.000 OA
ATOM      5  C   UNL     1       3.363   4.499  18.301  0.00  0.00    +0.000 C 
ATOM      6 BR   UNL     1       1.706   3.539  18.063  0.00  0.00    +0.000 Br
ATOM      7  C   UNL     1       4.013   5.124  17.046  0.00  0.00    +0.000 C 
ATOM      8  S   UNL     1       4.823   6.761  17.320  0.00  0.00    +0.000 S 
ATOM      9  C   UNL     1       6.466   6.020  17.798  0.00  0.00    +0.000 C 
ATOM     10  C   UNL     1       7.620   6.960  17.418  0.00  0.00    +0.000 C 
ENDROOT
BRANCH   1  11
ATOM     11  C   UNL     1       6.811   4.589  15.564  0.00  0.00    +0.000 C 
ATOM     12  O   UNL     1       7.575   5.360  14.983  0.00  0.00    +0.000 OA
BRANCH  11  14
ATOM     13  C   UNL     1       6.065   3.722  13.487  0.00  0.00    +0.000 C 
ATOM     14  O   UNL     1       6.090   3.622  14.924  0.00  0.00    +0.000 OA
ENDBRANCH  11  14
ENDBRANCH   1  11
BRANCH   9  15
ATOM     15  C   UNL     1       6.506   5.817  19.348  0.00  0.00    +0.000 C 
ATOM     16 CL   UNL     1       8.135   5.529  20.042  0.00  0.00    +0.000 Cl
ENDBRANCH   9  15
TORSDOF 3
ENDMDL
MODEL 5
REMARK VINA RESULT:      -5.8      3.365      4.628
REMARK  Name = 
REMARK  5 active torsions:
REMARK  status: ('A' for Active; 'I' for Inactive)
REMARK    1  A    between atoms: C_1  and  O_2
REMARK    2  A    between atoms: O_2  and  C_3
REMARK    3  A    between atoms: C_3  and  C_5
REMARK    4  A    between atoms: C_13  and  C_14
REMARK    5  A    between atoms: C_13  and  C_15
REMARK                            x       y       z     vdW  Elec       q    Type
REMARK                         _______ _______ _______ _____ _____    ______ ____
ROOT
ATOM      1  C   UNL     1       5.555   5.770  18.034  0.00  0.00    +0.000 C 
ATOM      2  N   UNL     1       5.320   5.145  16.718  0.00  0.00    +0.000 N 
ATOM      3  C   UNL     1       5.358   5.851  15.558  0.00  0.00    +0.000 C 
ATOM      4  O   UNL     1       4.958   6.979  15.322  0.00  0.00    +0.000 OA
ATOM      5  C   UNL     1       6.371   4.866  14.919  0.00  0.00    +0.000 C 
ATOM      6 BR   UNL     1       5.631   3.951  13.390  0.00  0.00    +0.000 Br
ATOM      7  C   UNL     1       6.305   4.143  16.285  0.00  0.00    +0.000 C 
ATOM      8  S   UNL     1       7.778   4.392  17.371  0.00  0.00    +0.000 S 
ATOM      9  C   UNL     1       7.101   5.940  18.161  0.00  0.00    +0.000 C 
ATOM     10  C   UNL     1       7.625   6.093  19.597  0.00  0.00    +0.000 C 
ENDROOT
BRANCH   1  11
ATOM     11  C   UNL     1       4.819   4.855  19.041  0.00  0.00    +0.000 C 
ATOM     12  O   UNL     1       5.168   3.716  19.351  0.00  0.00    +0.000 OA
BRANCH  11  14
ATOM     13  C   UNL     1       2.449   4.826  19.036  0.00  0.00    +0.000 C 
ATOM     14  O   UNL     1       3.670   5.438  19.493  0.00  0.00    +0.000 OA
ENDBRANCH  11  14
ENDBRANCH   1  11
BRANCH   9  15
ATOM     15  C   UNL     1       7.578   7.185  17.344  0.00  0.00    +0.000 C 
ATOM     16 CL   UNL     1       8.370   8.476  18.305  0.00  0.00    +0.000 Cl
ENDBRANCH   9  15
TORSDOF 3
ENDMDL
MODEL 6
REMARK VINA RESULT:      -5.7      2.908      3.752
REMARK  Name = 
REMARK  5 active torsions:
REMARK  status: ('A' for Active; 'I' for Inactive)
REMARK    1  A    between atoms: C_1  and  O_2
REMARK    2  A    between atoms: O_2  and  C_3
REMARK    3  A    between atoms: C_3  and  C_5
REMARK    4  A    between atoms: C_13  and  C_14
REMARK    5  A    between atoms: C_13  and  C_15
REMARK                            x       y       z     vdW  Elec       q    Type
REMARK                         _______ _______ _______ _____ _____    ______ ____
ROOT
ATOM      1  C   UNL     1       2.700   6.018  17.869  0.00  0.00    +0.000 C 
ATOM      2  N   UNL     1       2.194   5.203  18.991  0.00  0.00    +0.000 N 
ATOM      3  C   UNL     1       1.761   3.926  18.827  0.00  0.00    +0.000 C 
ATOM      4  O   UNL     1       1.119   3.435  17.913  0.00  0.00    +0.000 OA
ATOM      5  C   UNL     1       2.691   3.401  19.951  0.00  0.00    +0.000 C 
ATOM      6 BR   UNL     1       1.699   2.685  21.442  0.00  0.00    +0.000 Br
ATOM      7  C   UNL     1       3.163   4.870  20.046  0.00  0.00    +0.000 C 
ATOM      8  S   UNL     1       4.826   5.203  19.316  0.00  0.00    +0.000 S 
ATOM      9  C   UNL     1       4.159   5.532  17.606  0.00  0.00    +0.000 C 
ATOM     10  C   UNL     1       5.053   6.529  16.853  0.00  0.00    +0.000 C 
ENDROOT
BRANCH   1  11
ATOM     11  C   UNL     1       2.469   7.482  18.312  0.00  0.00    +0.000 C 
ATOM     12  O   UNL     1       2.641   8.474  17.603  0.00  0.00    +0.000 OA
BRANCH  11  14
ATOM     13  C   UNL     1       1.384   8.728  20.012  0.00  0.00    +0.000 C 
ATOM     14  O   UNL     1       2.123   7.552  19.631  0.00  0.00    +0.000 OA
ENDBRANCH  11  14
ENDBRANCH   1  11
BRANCH   9  15
ATOM     15  C   UNL     1       4.147   4.195  16.794  0.00  0.00    +0.000 C 
ATOM     16 CL   UNL     1       5.576   3.921  15.746  0.00  0.00    +0.000 Cl
ENDBRANCH   9  15
TORSDOF 3
ENDMDL
MODEL 7
REMARK VINA RESULT:      -5.6      1.741      2.371
REMARK  Name = 
REMARK  5 active torsions:
REMARK  status: ('A' for Active; 'I' for Inactive)
REMARK    1  A    between atoms: C_1  and  O_2
REMARK    2  A    between atoms: O_2  and  C_3
REMARK    3  A    between atoms: C_3  and  C_5
REMARK    4  A    between atoms: C_13  and  C_14
REMARK    5  A    between atoms: C_13  and  C_15
REMARK                            x       y       z     vdW  Elec       q    Type
REMARK                         _______ _______ _______ _____ _____    ______ ____
ROOT
ATOM      1  C   UNL     1       2.904   3.787  19.770  0.00  0.00    +0.000 C 
ATOM      2  N   UNL     1       3.790   4.848  19.252  0.00  0.00    +0.000 N 
ATOM      3  C   UNL     1       4.943   4.577  18.588  0.00  0.00    +0.000 C 
ATOM      4  O   UNL     1       5.770   3.704  18.794  0.00  0.00    +0.000 OA
ATOM      5  C   UNL     1       4.540   5.477  17.392  0.00  0.00    +0.000 C 
ATOM      6 BR   UNL     1       5.727   6.983  17.182  0.00  0.00    +0.000 Br
ATOM      7  C   UNL     1       3.235   5.702  18.191  0.00  0.00    +0.000 C 
ATOM      8  S   UNL     1       1.760   4.797  17.546  0.00  0.00    +0.000 S 
ATOM      9  C   UNL     1       2.100   3.258  18.542  0.00  0.00    +0.000 C 
ATOM     10  C   UNL     1       0.792   2.529  18.883  0.00  0.00    +0.000 C 
ENDROOT
BRANCH   1  11
ATOM     11  C   UNL     1       2.135   4.451  20.937  0.00  0.00    +0.000 C 
ATOM     12  O   UNL     1       1.631   5.573  20.906  0.00  0.00    +0.000 OA
BRANCH  11  14
ATOM     13  C   UNL     1       2.588   2.308  21.843  0.00  0.00    +0.000 C 
ATOM     14  O   UNL     1       2.151   3.664  22.053  0.00  0.00    +0.000 OA
ENDBRANCH  11  14
ENDBRANCH   1  11
BRANCH   9  15
ATOM     15  C   UNL     1       2.983   2.283  17.695  0.00  0.00    +0.000 C 
ATOM     16 CL   UNL     1       3.811   0.993  18.626  0.00  0.00    +0.000 Cl
ENDBRANCH   9  15
TORSDOF 3
ENDMDL
MODEL 8
REMARK VINA RESULT:      -5.6      1.126      1.345
REMARK  Name = 
REMARK  5 active torsions:
REMARK  status: ('A' for Active; 'I' for Inactive)
REMARK    1  A    between atoms: C_1  and  O_2
REMARK    2  A    between atoms: O_2  and  C_3
REMARK    3  A    between atoms: C_3  and  C_5
REMARK    4  A    between atoms: C_13  and  C_14
REMARK    5  A    between atoms: C_13  and  C_15
REMARK                            x       y       z     vdW  Elec       q    Type
REMARK                         _______ _______ _______ _____ _____    ______ ____
ROOT
ATOM      1  C   UNL     1       3.320   4.365  19.752  0.00  0.00    +0.000 C 
ATOM      2  N   UNL     1       4.055   4.953  18.615  0.00  0.00    +0.000 N 
ATOM      3  C   UNL     1       5.314   4.567  18.283  0.00  0.00    +0.000 C 
ATOM      4  O   UNL     1       6.254   4.279  19.006  0.00  0.00    +0.000 OA
ATOM      5  C   UNL     1       4.911   4.297  16.811  0.00  0.00    +0.000 C 
ATOM      6 BR   UNL     1       5.819   5.473  15.580  0.00  0.00    +0.000 Br
ATOM      7  C   UNL     1       3.495   4.708  17.277  0.00  0.00    +0.000 C 
ATOM      8  S   UNL     1       2.306   3.310  17.485  0.00  0.00    +0.000 S 
ATOM      9  C   UNL     1       2.791   2.983  19.255  0.00  0.00    +0.000 C 
ATOM     10  C   UNL     1       1.605   2.414  20.050  0.00  0.00    +0.000 C 
ENDROOT
BRANCH   1  11
ATOM     11  C   UNL     1       2.298   5.451  20.163  0.00  0.00    +0.000 C 
ATOM     12  O   UNL     1       1.235   5.240  20.746  0.00  0.00    +0.000 OA
BRANCH  11  14
ATOM     13  C   UNL     1       1.874   7.783  20.186  0.00  0.00    +0.000 C 
ATOM     14  O   UNL     1       2.683   6.685  19.723  0.00  0.00    +0.000 OA
ENDBRANCH  11  14
ENDBRANCH   1  11
BRANCH   9  15
ATOM     15  C   UNL     1       3.939   1.921  19.285  0.00  0.00    +0.000 C 
ATOM     16 CL   UNL     1       4.802   1.768  20.850  0.00  0.00    +0.000 Cl
ENDBRANCH   9  15
TORSDOF 3
ENDMDL
MODEL 9
REMARK VINA RESULT:      -5.5      3.477      5.172
REMARK  Name = 
REMARK  5 active torsions:
REMARK  status: ('A' for Active; 'I' for Inactive)
REMARK    1  A    between atoms: C_1  and  O_2
REMARK    2  A    between atoms: O_2  and  C_3
REMARK    3  A    between atoms: C_3  and  C_5
REMARK    4  A    between atoms: C_13  and  C_14
REMARK    5  A    between atoms: C_13  and  C_15
REMARK                            x       y       z     vdW  Elec       q    Type
REMARK                         _______ _______ _______ _____ _____    ______ ____
ROOT
ATOM      1  C   UNL     1       5.712   4.343  17.208  0.00  0.00    +0.000 C 
ATOM      2  N   UNL     1       4.392   3.853  17.650  0.00  0.00    +0.000 N 
ATOM      3  C   UNL     1       4.183   3.333  18.888  0.00  0.00    +0.000 C 
ATOM      4  O   UNL     1       4.903   2.610  19.556  0.00  0.00    +0.000 OA
ATOM      5  C   UNL     1       2.997   4.293  19.161  0.00  0.00    +0.000 C 
ATOM      6 BR   UNL     1       1.329   3.346  19.371  0.00  0.00    +0.000 Br
ATOM      7  C   UNL     1       3.325   4.860  17.760  0.00  0.00    +0.000 C 
ATOM      8  S   UNL     1       4.183   6.495  17.762  0.00  0.00    +0.000 S 
ATOM      9  C   UNL     1       5.890   5.751  17.856  0.00  0.00    +0.000 C 
ATOM     10  C   UNL     1       6.920   6.660  17.169  0.00  0.00    +0.000 C 
ENDROOT
BRANCH   1  11
ATOM     11  C   UNL     1       5.676   4.230  15.666  0.00  0.00    +0.000 C 
ATOM     12  O   UNL     1       4.654   4.189  14.981  0.00  0.00    +0.000 OA
BRANCH  11  14
ATOM     13  C   UNL     1       7.177   4.826  13.931  0.00  0.00    +0.000 C 
ATOM     14  O   UNL     1       6.933   4.097  15.149  0.00  0.00    +0.000 OA
ENDBRANCH  11  14
ENDBRANCH   1  11
BRANCH   9  15
ATOM     15  C   UNL     1       6.306   5.608  19.357  0.00  0.00    +0.000 C 
ATOM     16 CL   UNL     1       8.069   5.692  19.676  0.00  0.00    +0.000 Cl
ENDBRANCH   9  15
TORSDOF 3
ENDMDL
