MODEL 1
REMARK VINA RESULT:      -7.8      0.000      0.000
REMARK  Name = 
REMARK  3 active torsions:
REMARK  status: ('A' for Active; 'I' for Inactive)
REMARK    1  A    between atoms: C_4  and  S_5
REMARK    2  A    between atoms: S_5  and  C_6
REMARK    3  A    between atoms: C_6  and  C_7
REMARK                            x       y       z     vdW  Elec       q    Type
REMARK                         _______ _______ _______ _____ _____    ______ ____
ROOT
ATOM      1  N   UNL     1       6.908   5.043  13.765  0.00  0.00    +0.000 N 
ATOM      2  C   UNL     1       6.684   4.916  15.120  0.00  0.00    +0.000 A 
ATOM      3  N   UNL     1       5.712   4.072  15.496  0.00  0.00    +0.000 NA
ATOM      4  C   UNL     1       5.418   3.924  16.820  0.00  0.00    +0.000 A 
ATOM      5  C   UNL     1       6.173   4.644  17.754  0.00  0.00    +0.000 A 
ATOM      6  N   UNL     1       6.177   4.761  19.133  0.00  0.00    +0.000 NA
ATOM      7  C   UNL     1       7.124   5.632  19.410  0.00  0.00    +0.000 A 
ATOM      8  N   UNL     1       7.750   6.077  18.281  0.00  0.00    +0.000 N 
ATOM      9  C   UNL     1       7.159   5.458  17.217  0.00  0.00    +0.000 A 
ATOM     10  N   UNL     1       7.472   5.634  15.931  0.00  0.00    +0.000 NA
ATOM     11  H   UNL     1       6.579   4.219  13.279  0.00  0.00    +0.000 HD
ATOM     12  H   UNL     1       7.850   5.354  13.581  0.00  0.00    +0.000 HD
ATOM     13  H   UNL     1       8.498   6.749  18.221  0.00  0.00    +0.000 HD
ENDROOT
BRANCH   4  14
ATOM     14  S   UNL     1       4.067   2.836  17.208  0.00  0.00    +0.000 S 
BRANCH  14  15
ATOM     15  C   UNL     1       2.595   3.896  17.038  0.00  0.00    +0.000 C 
BRANCH  15  16
ATOM     16  C   UNL     1       2.207   4.566  18.343  0.00  0.00    +0.000 A 
ATOM     17  C   UNL     1       1.438   3.891  19.312  0.00  0.00    +0.000 A 
ATOM     18 CL   UNL     1       0.816   2.297  19.049  0.00  0.00    +0.000 Cl
ATOM     19  C   UNL     1       1.143   4.480  20.550  0.00  0.00    +0.000 A 
ATOM     20  C   UNL     1       1.602   5.759  20.847  0.00  0.00    +0.000 A 
ATOM     21  C   UNL     1       2.333   6.460  19.893  0.00  0.00    +0.000 A 
ATOM     22  C   UNL     1       2.622   5.878  18.652  0.00  0.00    +0.000 A 
ATOM     23 CL   UNL     1       3.515   6.851  17.533  0.00  0.00    +0.000 Cl
ENDBRANCH  15  16
ENDBRANCH  14  15
ENDBRANCH   4  14
TORSDOF 3
ENDMDL
MODEL 2
REMARK VINA RESULT:      -7.8      0.951      3.286
REMARK  Name = 
REMARK  3 active torsions:
REMARK  status: ('A' for Active; 'I' for Inactive)
REMARK    1  A    between atoms: C_4  and  S_5
REMARK    2  A    between atoms: S_5  and  C_6
REMARK    3  A    between atoms: C_6  and  C_7
REMARK                            x       y       z     vdW  Elec       q    Type
REMARK                         _______ _______ _______ _____ _____    ______ ____
ROOT
ATOM      1  N   UNL     1       8.082   5.637  19.927  0.00  0.00    +0.000 N 
ATOM      2  C   UNL     1       7.352   5.265  18.817  0.00  0.00    +0.000 A 
ATOM      3  N   UNL     1       6.233   4.560  19.038  0.00  0.00    +0.000 NA
ATOM      4  C   UNL     1       5.481   4.135  17.981  0.00  0.00    +0.000 A 
ATOM      5  C   UNL     1       5.894   4.480  16.688  0.00  0.00    +0.000 A 
ATOM      6  N   UNL     1       5.420   4.242  15.410  0.00  0.00    +0.000 NA
ATOM      7  C   UNL     1       6.284   4.818  14.602  0.00  0.00    +0.000 A 
ATOM      8  N   UNL     1       7.290   5.434  15.290  0.00  0.00    +0.000 N 
ATOM      9  C   UNL     1       7.058   5.230  16.620  0.00  0.00    +0.000 A 
ATOM     10  N   UNL     1       7.822   5.661  17.627  0.00  0.00    +0.000 NA
ATOM     11  H   UNL     1       7.486   5.658  20.744  0.00  0.00    +0.000 HD
ATOM     12  H   UNL     1       8.646   6.451  19.734  0.00  0.00    +0.000 HD
ATOM     13  H   UNL     1       8.075   5.935  14.906  0.00  0.00    +0.000 HD
ENDROOT
BRANCH   4  14
ATOM     14  S   UNL     1       4.057   3.148  18.379  0.00  0.00    +0.000 S 
BRANCH  14  15
ATOM     15  C   UNL     1       2.652   4.184  17.856  0.00  0.00    +0.000 C 
BRANCH  15  16
ATOM     16  C   UNL     1       2.331   5.278  18.858  0.00  0.00    +0.000 A 
ATOM     17  C   UNL     1       2.707   6.616  18.625  0.00  0.00    +0.000 A 
ATOM     18 CL   UNL     1       3.627   7.087  17.236  0.00  0.00    +0.000 Cl
ATOM     19  C   UNL     1       2.345   7.640  19.512  0.00  0.00    +0.000 A 
ATOM     20  C   UNL     1       1.607   7.353  20.654  0.00  0.00    +0.000 A 
ATOM     21  C   UNL     1       1.255   6.035  20.925  0.00  0.00    +0.000 A 
ATOM     22  C   UNL     1       1.621   5.007  20.046  0.00  0.00    +0.000 A 
ATOM     23 CL   UNL     1       1.151   3.403  20.496  0.00  0.00    +0.000 Cl
ENDBRANCH  15  16
ENDBRANCH  14  15
ENDBRANCH   4  14
TORSDOF 3
ENDMDL
MODEL 3
REMARK VINA RESULT:      -7.7      0.254      2.059
REMARK  Name = 
REMARK  3 active torsions:
REMARK  status: ('A' for Active; 'I' for Inactive)
REMARK    1  A    between atoms: C_4  and  S_5
REMARK    2  A    between atoms: S_5  and  C_6
REMARK    3  A    between atoms: C_6  and  C_7
REMARK                            x       y       z     vdW  Elec       q    Type
REMARK                         _______ _______ _______ _____ _____    ______ ____
ROOT
ATOM      1  N   UNL     1       7.016   5.250  13.946  0.00  0.00    +0.000 N 
ATOM      2  C   UNL     1       6.768   5.071  15.291  0.00  0.00    +0.000 A 
ATOM      3  N   UNL     1       5.783   4.222  15.617  0.00  0.00    +0.000 NA
ATOM      4  C   UNL     1       5.466   4.023  16.930  0.00  0.00    +0.000 A 
ATOM      5  C   UNL     1       6.211   4.699  17.904  0.00  0.00    +0.000 A 
ATOM      6  N   UNL     1       6.193   4.761  19.286  0.00  0.00    +0.000 NA
ATOM      7  C   UNL     1       7.143   5.611  19.613  0.00  0.00    +0.000 A 
ATOM      8  N   UNL     1       7.791   6.095  18.513  0.00  0.00    +0.000 N 
ATOM      9  C   UNL     1       7.213   5.525  17.416  0.00  0.00    +0.000 A 
ATOM     10  N   UNL     1       7.549   5.749  16.143  0.00  0.00    +0.000 NA
ATOM     11  H   UNL     1       6.689   4.449  13.422  0.00  0.00    +0.000 HD
ATOM     12  H   UNL     1       7.964   5.559  13.791  0.00  0.00    +0.000 HD
ATOM     13  H   UNL     1       8.546   6.762  18.493  0.00  0.00    +0.000 HD
ENDROOT
BRANCH   4  14
ATOM     14  S   UNL     1       4.099   2.933  17.251  0.00  0.00    +0.000 S 
BRANCH  14  15
ATOM     15  C   UNL     1       2.641   4.018  17.128  0.00  0.00    +0.000 C 
BRANCH  15  16
ATOM     16  C   UNL     1       2.331   4.726  18.434  0.00  0.00    +0.000 A 
ATOM     17  C   UNL     1       2.705   6.068  18.646  0.00  0.00    +0.000 A 
ATOM     18 CL   UNL     1       3.611   6.968  17.477  0.00  0.00    +0.000 Cl
ATOM     19  C   UNL     1       2.352   6.747  19.821  0.00  0.00    +0.000 A 
ATOM     20  C   UNL     1       1.625   6.101  20.814  0.00  0.00    +0.000 A 
ATOM     21  C   UNL     1       1.275   4.766  20.645  0.00  0.00    +0.000 A 
ATOM     22  C   UNL     1       1.632   4.081  19.476  0.00  0.00    +0.000 A 
ATOM     23 CL   UNL     1       1.166   2.417  19.384  0.00  0.00    +0.000 Cl
ENDBRANCH  15  16
ENDBRANCH  14  15
ENDBRANCH   4  14
TORSDOF 3
ENDMDL
MODEL 4
REMARK VINA RESULT:      -7.7      2.005      3.412
REMARK  Name = 
REMARK  3 active torsions:
REMARK  status: ('A' for Active; 'I' for Inactive)
REMARK    1  A    between atoms: C_4  and  S_5
REMARK    2  A    between atoms: S_5  and  C_6
REMARK    3  A    between atoms: C_6  and  C_7
REMARK                            x       y       z     vdW  Elec       q    Type
REMARK                         _______ _______ _______ _____ _____    ______ ____
ROOT
ATOM      1  N   UNL     1       7.940   5.306  20.030  0.00  0.00    +0.000 N 
ATOM      2  C   UNL     1       7.236   5.395  18.847  0.00  0.00    +0.000 A 
ATOM      3  N   UNL     1       6.039   5.998  18.900  0.00  0.00    +0.000 NA
ATOM      4  C   UNL     1       5.277   6.091  17.771  0.00  0.00    +0.000 A 
ATOM      5  C   UNL     1       5.792   5.574  16.576  0.00  0.00    +0.000 A 
ATOM      6  N   UNL     1       5.339   5.478  15.272  0.00  0.00    +0.000 NA
ATOM      7  C   UNL     1       6.290   4.851  14.614  0.00  0.00    +0.000 A 
ATOM      8  N   UNL     1       7.350   4.547  15.421  0.00  0.00    +0.000 N 
ATOM      9  C   UNL     1       7.051   5.001  16.673  0.00  0.00    +0.000 A 
ATOM     10  N   UNL     1       7.823   4.887  17.756  0.00  0.00    +0.000 NA
ATOM     11  H   UNL     1       7.636   6.027  20.671  0.00  0.00    +0.000 HD
ATOM     12  H   UNL     1       8.930   5.217  19.856  0.00  0.00    +0.000 HD
ATOM     13  H   UNL     1       8.195   4.064  15.163  0.00  0.00    +0.000 HD
ENDROOT
BRANCH   4  14
ATOM     14  S   UNL     1       3.679   6.845  17.963  0.00  0.00    +0.000 S 
BRANCH  14  15
ATOM     15  C   UNL     1       2.524   5.438  17.889  0.00  0.00    +0.000 C 
BRANCH  15  16
ATOM     16  C   UNL     1       2.642   4.525  19.096  0.00  0.00    +0.000 A 
ATOM     17  C   UNL     1       2.148   4.913  20.358  0.00  0.00    +0.000 A 
ATOM     18 CL   UNL     1       1.457   6.476  20.637  0.00  0.00    +0.000 Cl
ATOM     19  C   UNL     1       2.186   4.042  21.456  0.00  0.00    +0.000 A 
ATOM     20  C   UNL     1       2.724   2.767  21.322  0.00  0.00    +0.000 A 
ATOM     21  C   UNL     1       3.251   2.373  20.097  0.00  0.00    +0.000 A 
ATOM     22  C   UNL     1       3.223   3.244  18.999  0.00  0.00    +0.000 A 
ATOM     23 CL   UNL     1       3.928   2.658  17.532  0.00  0.00    +0.000 Cl
ENDBRANCH  15  16
ENDBRANCH  14  15
ENDBRANCH   4  14
TORSDOF 3
ENDMDL
MODEL 5
REMARK VINA RESULT:      -7.5      1.974      3.250
REMARK  Name = 
REMARK  3 active torsions:
REMARK  status: ('A' for Active; 'I' for Inactive)
REMARK    1  A    between atoms: C_4  and  S_5
REMARK    2  A    between atoms: S_5  and  C_6
REMARK    3  A    between atoms: C_6  and  C_7
REMARK                            x       y       z     vdW  Elec       q    Type
REMARK                         _______ _______ _______ _____ _____    ______ ____
ROOT
ATOM      1  N   UNL     1       8.174   5.380  19.820  0.00  0.00    +0.000 N 
ATOM      2  C   UNL     1       7.347   5.350  18.717  0.00  0.00    +0.000 A 
ATOM      3  N   UNL     1       6.171   5.986  18.825  0.00  0.00    +0.000 NA
ATOM      4  C   UNL     1       5.292   5.968  17.781  0.00  0.00    +0.000 A 
ATOM      5  C   UNL     1       5.668   5.303  16.607  0.00  0.00    +0.000 A 
ATOM      6  N   UNL     1       5.074   5.069  15.379  0.00  0.00    +0.000 NA
ATOM      7  C   UNL     1       5.940   4.346  14.701  0.00  0.00    +0.000 A 
ATOM      8  N   UNL     1       7.077   4.111  15.421  0.00  0.00    +0.000 N 
ATOM      9  C   UNL     1       6.922   4.713  16.635  0.00  0.00    +0.000 A 
ATOM     10  N   UNL     1       7.806   4.705  17.637  0.00  0.00    +0.000 NA
ATOM     11  H   UNL     1       7.951   6.178  20.400  0.00  0.00    +0.000 HD
ATOM     12  H   UNL     1       9.138   5.246  19.553  0.00  0.00    +0.000 HD
ATOM     13  H   UNL     1       7.883   3.579  15.133  0.00  0.00    +0.000 HD
ENDROOT
BRANCH   4  14
ATOM     14  S   UNL     1       3.734   6.779  18.052  0.00  0.00    +0.000 S 
BRANCH  14  15
ATOM     15  C   UNL     1       2.514   5.434  17.914  0.00  0.00    +0.000 C 
BRANCH  15  16
ATOM     16  C   UNL     1       2.543   4.498  19.107  0.00  0.00    +0.000 A 
ATOM     17  C   UNL     1       3.036   3.182  18.994  0.00  0.00    +0.000 A 
ATOM     18 CL   UNL     1       3.558   2.520  17.482  0.00  0.00    +0.000 Cl
ATOM     19  C   UNL     1       3.135   2.341  20.112  0.00  0.00    +0.000 A 
ATOM     20  C   UNL     1       2.738   2.789  21.366  0.00  0.00    +0.000 A 
ATOM     21  C   UNL     1       2.214   4.071  21.498  0.00  0.00    +0.000 A 
ATOM     22  C   UNL     1       2.105   4.912  20.383  0.00  0.00    +0.000 A 
ATOM     23 CL   UNL     1       1.417   6.476  20.660  0.00  0.00    +0.000 Cl
ENDBRANCH  15  16
ENDBRANCH  14  15
ENDBRANCH   4  14
TORSDOF 3
ENDMDL
MODEL 6
REMARK VINA RESULT:      -7.3      1.915      2.376
REMARK  Name = 
REMARK  3 active torsions:
REMARK  status: ('A' for Active; 'I' for Inactive)
REMARK    1  A    between atoms: C_4  and  S_5
REMARK    2  A    between atoms: S_5  and  C_6
REMARK    3  A    between atoms: C_6  and  C_7
REMARK                            x       y       z     vdW  Elec       q    Type
REMARK                         _______ _______ _______ _____ _____    ______ ____
ROOT
ATOM      1  N   UNL     1       6.314   4.564  14.211  0.00  0.00    +0.000 N 
ATOM      2  C   UNL     1       6.285   4.872  15.555  0.00  0.00    +0.000 A 
ATOM      3  N   UNL     1       5.176   5.470  16.015  0.00  0.00    +0.000 NA
ATOM      4  C   UNL     1       5.095   5.830  17.329  0.00  0.00    +0.000 A 
ATOM      5  C   UNL     1       6.176   5.530  18.169  0.00  0.00    +0.000 A 
ATOM      6  N   UNL     1       6.463   5.728  19.508  0.00  0.00    +0.000 NA
ATOM      7  C   UNL     1       7.671   5.237  19.686  0.00  0.00    +0.000 A 
ATOM      8  N   UNL     1       8.180   4.713  18.531  0.00  0.00    +0.000 N 
ATOM      9  C   UNL     1       7.242   4.889  17.556  0.00  0.00    +0.000 A 
ATOM     10  N   UNL     1       7.360   4.526  16.276  0.00  0.00    +0.000 NA
ATOM     11  H   UNL     1       5.371   4.485  13.852  0.00  0.00    +0.000 HD
ATOM     12  H   UNL     1       6.954   3.806  14.027  0.00  0.00    +0.000 HD
ATOM     13  H   UNL     1       9.083   4.288  18.400  0.00  0.00    +0.000 HD
ENDROOT
BRANCH   4  14
ATOM     14  S   UNL     1       3.614   6.680  17.821  0.00  0.00    +0.000 S 
BRANCH  14  15
ATOM     15  C   UNL     1       2.361   5.360  17.896  0.00  0.00    +0.000 C 
BRANCH  15  16
ATOM     16  C   UNL     1       2.526   4.469  19.113  0.00  0.00    +0.000 A 
ATOM     17  C   UNL     1       2.105   4.890  20.391  0.00  0.00    +0.000 A 
ATOM     18 CL   UNL     1       1.455   6.470  20.673  0.00  0.00    +0.000 Cl
ATOM     19  C   UNL     1       2.187   4.040  21.503  0.00  0.00    +0.000 A 
ATOM     20  C   UNL     1       2.697   2.753  21.368  0.00  0.00    +0.000 A 
ATOM     21  C   UNL     1       3.152   2.327  20.125  0.00  0.00    +0.000 A 
ATOM     22  C   UNL     1       3.081   3.176  19.013  0.00  0.00    +0.000 A 
ATOM     23 CL   UNL     1       3.700   2.549  17.523  0.00  0.00    +0.000 Cl
ENDBRANCH  15  16
ENDBRANCH  14  15
ENDBRANCH   4  14
TORSDOF 3
ENDMDL
MODEL 7
REMARK VINA RESULT:      -7.3      1.304      2.687
REMARK  Name = 
REMARK  3 active torsions:
REMARK  status: ('A' for Active; 'I' for Inactive)
REMARK    1  A    between atoms: C_4  and  S_5
REMARK    2  A    between atoms: S_5  and  C_6
REMARK    3  A    between atoms: C_6  and  C_7
REMARK                            x       y       z     vdW  Elec       q    Type
REMARK                         _______ _______ _______ _____ _____    ______ ____
ROOT
ATOM      1  N   UNL     1       8.123   7.644  18.401  0.00  0.00    +0.000 N 
ATOM      2  C   UNL     1       7.461   6.628  17.743  0.00  0.00    +0.000 A 
ATOM      3  N   UNL     1       6.602   5.897  18.467  0.00  0.00    +0.000 NA
ATOM      4  C   UNL     1       5.938   4.857  17.883  0.00  0.00    +0.000 A 
ATOM      5  C   UNL     1       6.159   4.606  16.523  0.00  0.00    +0.000 A 
ATOM      6  N   UNL     1       5.695   3.677  15.608  0.00  0.00    +0.000 NA
ATOM      7  C   UNL     1       6.312   3.956  14.480  0.00  0.00    +0.000 A 
ATOM      8  N   UNL     1       7.143   5.032  14.609  0.00  0.00    +0.000 N 
ATOM      9  C   UNL     1       7.058   5.460  15.902  0.00  0.00    +0.000 A 
ATOM     10  N   UNL     1       7.728   6.482  16.438  0.00  0.00    +0.000 NA
ATOM     11  H   UNL     1       7.595   7.932  19.215  0.00  0.00    +0.000 HD
ATOM     12  H   UNL     1       8.421   8.360  17.756  0.00  0.00    +0.000 HD
ATOM     13  H   UNL     1       7.730   5.439  13.898  0.00  0.00    +0.000 HD
ENDROOT
BRANCH   4  14
ATOM     14  S   UNL     1       4.876   3.908  18.946  0.00  0.00    +0.000 S 
BRANCH  14  15
ATOM     15  C   UNL     1       3.200   4.304  18.351  0.00  0.00    +0.000 C 
BRANCH  15  16
ATOM     16  C   UNL     1       2.577   5.468  19.099  0.00  0.00    +0.000 A 
ATOM     17  C   UNL     1       1.832   5.266  20.278  0.00  0.00    +0.000 A 
ATOM     18 CL   UNL     1       1.507   3.684  20.904  0.00  0.00    +0.000 Cl
ATOM     19  C   UNL     1       1.321   6.345  21.013  0.00  0.00    +0.000 A 
ATOM     20  C   UNL     1       1.534   7.651  20.584  0.00  0.00    +0.000 A 
ATOM     21  C   UNL     1       2.235   7.875  19.404  0.00  0.00    +0.000 A 
ATOM     22  C   UNL     1       2.741   6.799  18.662  0.00  0.00    +0.000 A 
ATOM     23 CL   UNL     1       3.575   7.195  17.199  0.00  0.00    +0.000 Cl
ENDBRANCH  15  16
ENDBRANCH  14  15
ENDBRANCH   4  14
TORSDOF 3
ENDMDL
MODEL 8
REMARK VINA RESULT:      -7.2      1.908      2.159
REMARK  Name = 
REMARK  3 active torsions:
REMARK  status: ('A' for Active; 'I' for Inactive)
REMARK    1  A    between atoms: C_4  and  S_5
REMARK    2  A    between atoms: S_5  and  C_6
REMARK    3  A    between atoms: C_6  and  C_7
REMARK                            x       y       z     vdW  Elec       q    Type
REMARK                         _______ _______ _______ _____ _____    ______ ____
ROOT
ATOM      1  N   UNL     1       5.965   4.310  14.152  0.00  0.00    +0.000 N 
ATOM      2  C   UNL     1       6.064   4.674  15.479  0.00  0.00    +0.000 A 
ATOM      3  N   UNL     1       5.008   5.304  16.014  0.00  0.00    +0.000 NA
ATOM      4  C   UNL     1       5.052   5.718  17.313  0.00  0.00    +0.000 A 
ATOM      5  C   UNL     1       6.203   5.440  18.061  0.00  0.00    +0.000 A 
ATOM      6  N   UNL     1       6.615   5.691  19.359  0.00  0.00    +0.000 NA
ATOM      7  C   UNL     1       7.830   5.193  19.444  0.00  0.00    +0.000 A 
ATOM      8  N   UNL     1       8.226   4.616  18.271  0.00  0.00    +0.000 N 
ATOM      9  C   UNL     1       7.202   4.762  17.380  0.00  0.00    +0.000 A 
ATOM     10  N   UNL     1       7.198   4.345  16.111  0.00  0.00    +0.000 NA
ATOM     11  H   UNL     1       4.993   4.228  13.885  0.00  0.00    +0.000 HD
ATOM     12  H   UNL     1       6.579   3.537  13.942  0.00  0.00    +0.000 HD
ATOM     13  H   UNL     1       9.110   4.174  18.075  0.00  0.00    +0.000 HD
ENDROOT
BRANCH   4  14
ATOM     14  S   UNL     1       3.630   6.605  17.904  0.00  0.00    +0.000 S 
BRANCH  14  15
ATOM     15  C   UNL     1       2.311   5.349  17.923  0.00  0.00    +0.000 C 
BRANCH  15  16
ATOM     16  C   UNL     1       2.409   4.421  19.119  0.00  0.00    +0.000 A 
ATOM     17  C   UNL     1       2.903   3.107  18.989  0.00  0.00    +0.000 A 
ATOM     18 CL   UNL     1       3.348   2.438  17.455  0.00  0.00    +0.000 Cl
ATOM     19  C   UNL     1       3.066   2.275  20.105  0.00  0.00    +0.000 A 
ATOM     20  C   UNL     1       2.734   2.730  21.376  0.00  0.00    +0.000 A 
ATOM     21  C   UNL     1       2.211   4.009  21.527  0.00  0.00    +0.000 A 
ATOM     22  C   UNL     1       2.037   4.842  20.413  0.00  0.00    +0.000 A 
ATOM     23 CL   UNL     1       1.355   6.403  20.716  0.00  0.00    +0.000 Cl
ENDBRANCH  15  16
ENDBRANCH  14  15
ENDBRANCH   4  14
TORSDOF 3
ENDMDL
MODEL 9
REMARK VINA RESULT:      -6.8      1.197      2.732
REMARK  Name = 
REMARK  3 active torsions:
REMARK  status: ('A' for Active; 'I' for Inactive)
REMARK    1  A    between atoms: C_4  and  S_5
REMARK    2  A    between atoms: S_5  and  C_6
REMARK    3  A    between atoms: C_6  and  C_7
REMARK                            x       y       z     vdW  Elec       q    Type
REMARK                         _______ _______ _______ _____ _____    ______ ____
ROOT
ATOM      1  N   UNL     1       7.186   5.716  19.237  0.00  0.00    +0.000 N 
ATOM      2  C   UNL     1       6.754   5.272  18.004  0.00  0.00    +0.000 A 
ATOM      3  N   UNL     1       5.625   4.550  17.982  0.00  0.00    +0.000 NA
ATOM      4  C   UNL     1       5.159   4.055  16.798  0.00  0.00    +0.000 A 
ATOM      5  C   UNL     1       5.872   4.349  15.628  0.00  0.00    +0.000 A 
ATOM      6  N   UNL     1       5.728   4.038  14.287  0.00  0.00    +0.000 NA
ATOM      7  C   UNL     1       6.756   4.597  13.684  0.00  0.00    +0.000 A 
ATOM      8  N   UNL     1       7.554   5.271  14.564  0.00  0.00    +0.000 N 
ATOM      9  C   UNL     1       7.007   5.125  15.805  0.00  0.00    +0.000 A 
ATOM     10  N   UNL     1       7.495   5.623  16.944  0.00  0.00    +0.000 NA
ATOM     11  H   UNL     1       6.408   5.760  19.882  0.00  0.00    +0.000 HD
ATOM     12  H   UNL     1       7.768   6.534  19.144  0.00  0.00    +0.000 HD
ATOM     13  H   UNL     1       8.402   5.774  14.357  0.00  0.00    +0.000 HD
ENDROOT
BRANCH   4  14
ATOM     14  S   UNL     1       3.695   3.052  16.887  0.00  0.00    +0.000 S 
BRANCH  14  15
ATOM     15  C   UNL     1       2.421   4.199  17.504  0.00  0.00    +0.000 C 
BRANCH  15  16
ATOM     16  C   UNL     1       2.147   4.022  18.986  0.00  0.00    +0.000 A 
ATOM     17  C   UNL     1       1.507   2.867  19.479  0.00  0.00    +0.000 A 
ATOM     18 CL   UNL     1       0.918   1.620  18.431  0.00  0.00    +0.000 Cl
ATOM     19  C   UNL     1       1.322   2.666  20.854  0.00  0.00    +0.000 A 
ATOM     20  C   UNL     1       1.763   3.615  21.769  0.00  0.00    +0.000 A 
ATOM     21  C   UNL     1       2.365   4.781  21.306  0.00  0.00    +0.000 A 
ATOM     22  C   UNL     1       2.544   4.990  19.932  0.00  0.00    +0.000 A 
ATOM     23 CL   UNL     1       3.281   6.485  19.469  0.00  0.00    +0.000 Cl
ENDBRANCH  15  16
ENDBRANCH  14  15
ENDBRANCH   4  14
TORSDOF 3
ENDMDL
