MODEL 1
REMARK VINA RESULT:      -6.9      0.000      0.000
REMARK  Name = 
REMARK  6 active torsions:
REMARK  status: ('A' for Active; 'I' for Inactive)
REMARK    1  A    between atoms: C_1  and  N_2
REMARK    2  A    between atoms: N_2  and  C_3
REMARK    3  A    between atoms: N_2  and  C_15
REMARK    4  A    between atoms: C_3  and  C_4
REMARK    5  A    between atoms: C_7  and  N_8
REMARK    6  A    between atoms: C_15  and  C_16
REMARK                            x       y       z     vdW  Elec       q    Type
REMARK                         _______ _______ _______ _____ _____    ______ ____
ROOT
ATOM      1  C   UNL     1       1.366   9.376  22.504  0.00  0.00    +0.000 C 
ATOM      2  N   UNL     1       1.213   9.010  21.099  0.00  0.00    +0.000 NA
ENDROOT
BRANCH   2   3
ATOM      3  C   UNL     1       1.137   7.553  20.897  0.00  0.00    +0.000 C 
BRANCH   3   4
ATOM      4  C   UNL     1       2.066   7.017  19.832  0.00  0.00    +0.000 A 
ATOM      5  C   UNL     1       2.558   5.713  19.937  0.00  0.00    +0.000 A 
ATOM      6  C   UNL     1       3.396   5.189  18.951  0.00  0.00    +0.000 A 
ATOM      7  C   UNL     1       3.755   5.969  17.845  0.00  0.00    +0.000 A 
ATOM      8  C   UNL     1       3.270   7.284  17.738  0.00  0.00    +0.000 A 
ATOM      9  C   UNL     1       2.426   7.800  18.725  0.00  0.00    +0.000 A 
BRANCH   7  10
ATOM     10  N   UNL     1       4.610   5.439  16.837  0.00  0.00    +0.000 N 
ATOM     11  C   UNL     1       5.255   6.124  15.829  0.00  0.00    +0.000 A 
ATOM     12  C   UNL     1       5.965   5.201  15.097  0.00  0.00    +0.000 A 
ATOM     13  C   UNL     1       5.698   3.980  15.728  0.00  0.00    +0.000 A 
ATOM     14  N   UNL     1       4.894   4.110  16.784  0.00  0.00    +0.000 NA
ENDBRANCH   7  10
ENDBRANCH   3   4
ENDBRANCH   2   3
BRANCH   2  15
ATOM     15  C   UNL     1       0.028   9.631  20.483  0.00  0.00    +0.000 C 
BRANCH  15  16
ATOM     16  C   UNL     1       0.247  10.704  19.381  0.00  0.00    +0.000 C 
ATOM     17  C   UNL     1       0.581  12.055  20.045  0.00  0.00    +0.000 C 
ATOM     18  C   UNL     1      -0.598  12.569  20.866  0.00  0.00    +0.000 C 
ATOM     19  C   UNL     1      -1.948  12.482  20.136  0.00  0.00    +0.000 C 
ATOM     20  N   UNL     1      -2.158  11.339  19.231  0.00  0.00    +0.000 NA
ATOM     21  C   UNL     1      -3.310  11.605  18.350  0.00  0.00    +0.000 C 
ATOM     22  C   UNL     1      -3.634  10.419  17.444  0.00  0.00    +0.000 C 
ATOM     23  C   UNL     1      -2.430  10.033  16.598  0.00  0.00    +0.000 C 
ATOM     24  C   UNL     1      -1.236   9.773  17.506  0.00  0.00    +0.000 C 
ATOM     25  C   UNL     1      -0.966  10.961  18.450  0.00  0.00    +0.000 C 
ENDBRANCH  15  16
ENDBRANCH   2  15
TORSDOF 5
ENDMDL
MODEL 2
REMARK VINA RESULT:      -6.9      4.128      6.781
REMARK  Name = 
REMARK  6 active torsions:
REMARK  status: ('A' for Active; 'I' for Inactive)
REMARK    1  A    between atoms: C_1  and  N_2
REMARK    2  A    between atoms: N_2  and  C_3
REMARK    3  A    between atoms: N_2  and  C_15
REMARK    4  A    between atoms: C_3  and  C_4
REMARK    5  A    between atoms: C_7  and  N_8
REMARK    6  A    between atoms: C_15  and  C_16
REMARK                            x       y       z     vdW  Elec       q    Type
REMARK                         _______ _______ _______ _____ _____    ______ ____
ROOT
ATOM      1  C   UNL     1       2.364   7.501  19.574  0.00  0.00    +0.000 C 
ATOM      2  N   UNL     1       2.844   6.126  19.477  0.00  0.00    +0.000 NA
ENDROOT
BRANCH   2   3
ATOM      3  C   UNL     1       4.315   6.037  19.475  0.00  0.00    +0.000 C 
BRANCH   3   4
ATOM      4  C   UNL     1       4.925   5.748  18.123  0.00  0.00    +0.000 A 
ATOM      5  C   UNL     1       5.960   4.815  18.016  0.00  0.00    +0.000 A 
ATOM      6  C   UNL     1       6.520   4.515  16.773  0.00  0.00    +0.000 A 
ATOM      7  C   UNL     1       6.050   5.150  15.618  0.00  0.00    +0.000 A 
ATOM      8  C   UNL     1       5.015   6.096  15.719  0.00  0.00    +0.000 A 
ATOM      9  C   UNL     1       4.455   6.387  16.965  0.00  0.00    +0.000 A 
BRANCH   7  10
ATOM     10  N   UNL     1       6.619   4.847  14.348  0.00  0.00    +0.000 N 
ATOM     11  C   UNL     1       6.168   3.937  13.414  0.00  0.00    +0.000 A 
ATOM     12  C   UNL     1       7.035   3.984  12.347  0.00  0.00    +0.000 A 
ATOM     13  C   UNL     1       7.981   4.950  12.712  0.00  0.00    +0.000 A 
ATOM     14  N   UNL     1       7.737   5.486  13.908  0.00  0.00    +0.000 NA
ENDBRANCH   7  10
ENDBRANCH   3   4
ENDBRANCH   2   3
BRANCH   2  15
ATOM     15  C   UNL     1       2.325   5.273  20.560  0.00  0.00    +0.000 C 
BRANCH  15  16
ATOM     16  C   UNL     1       1.375   4.101  20.183  0.00  0.00    +0.000 C 
ATOM     17  C   UNL     1       1.086   3.257  21.441  0.00  0.00    +0.000 C 
ATOM     18  C   UNL     1       2.356   2.585  21.955  0.00  0.00    +0.000 C 
ATOM     19  C   UNL     1       3.189   1.908  20.854  0.00  0.00    +0.000 C 
ATOM     20  N   UNL     1       3.212   2.550  19.529  0.00  0.00    +0.000 NA
ATOM     21  C   UNL     1       3.724   1.600  18.524  0.00  0.00    +0.000 C 
ATOM     22  C   UNL     1       3.853   2.233  17.140  0.00  0.00    +0.000 C 
ATOM     23  C   UNL     1       2.520   2.797  16.670  0.00  0.00    +0.000 C 
ATOM     24  C   UNL     1       1.984   3.766  17.714  0.00  0.00    +0.000 C 
ATOM     25  C   UNL     1       1.918   3.120  19.112  0.00  0.00    +0.000 C 
ENDBRANCH  15  16
ENDBRANCH   2  15
TORSDOF 5
ENDMDL
MODEL 3
REMARK VINA RESULT:      -6.8      0.387      1.232
REMARK  Name = 
REMARK  6 active torsions:
REMARK  status: ('A' for Active; 'I' for Inactive)
REMARK    1  A    between atoms: C_1  and  N_2
REMARK    2  A    between atoms: N_2  and  C_3
REMARK    3  A    between atoms: N_2  and  C_15
REMARK    4  A    between atoms: C_3  and  C_4
REMARK    5  A    between atoms: C_7  and  N_8
REMARK    6  A    between atoms: C_15  and  C_16
REMARK                            x       y       z     vdW  Elec       q    Type
REMARK                         _______ _______ _______ _____ _____    ______ ____
ROOT
ATOM      1  C   UNL     1       1.300   9.550  22.364  0.00  0.00    +0.000 C 
ATOM      2  N   UNL     1       1.167   9.066  20.993  0.00  0.00    +0.000 NA
ENDROOT
BRANCH   2   3
ATOM      3  C   UNL     1       1.125   7.596  20.911  0.00  0.00    +0.000 C 
BRANCH   3   4
ATOM      4  C   UNL     1       2.008   7.000  19.840  0.00  0.00    +0.000 A 
ATOM      5  C   UNL     1       2.406   7.787  18.755  0.00  0.00    +0.000 A 
ATOM      6  C   UNL     1       3.244   7.264  17.768  0.00  0.00    +0.000 A 
ATOM      7  C   UNL     1       3.691   5.941  17.854  0.00  0.00    +0.000 A 
ATOM      8  C   UNL     1       3.288   5.141  18.937  0.00  0.00    +0.000 A 
ATOM      9  C   UNL     1       2.455   5.672  19.925  0.00  0.00    +0.000 A 
BRANCH   7  10
ATOM     10  N   UNL     1       4.545   5.403  16.849  0.00  0.00    +0.000 N 
ATOM     11  C   UNL     1       4.886   4.082  16.647  0.00  0.00    +0.000 A 
ATOM     12  C   UNL     1       5.735   4.040  15.565  0.00  0.00    +0.000 A 
ATOM     13  C   UNL     1       5.855   5.378  15.168  0.00  0.00    +0.000 A 
ATOM     14  N   UNL     1       5.135   6.207  15.924  0.00  0.00    +0.000 NA
ENDBRANCH   7  10
ENDBRANCH   3   4
ENDBRANCH   2   3
BRANCH   2  15
ATOM     15  C   UNL     1      -0.024   9.608  20.319  0.00  0.00    +0.000 C 
BRANCH  15  16
ATOM     16  C   UNL     1       0.180  10.660  19.193  0.00  0.00    +0.000 C 
ATOM     17  C   UNL     1       0.577  12.010  19.824  0.00  0.00    +0.000 C 
ATOM     18  C   UNL     1      -0.553  12.568  20.684  0.00  0.00    +0.000 C 
ATOM     19  C   UNL     1      -1.933  12.509  20.009  0.00  0.00    +0.000 C 
ATOM     20  N   UNL     1      -2.211  11.360  19.130  0.00  0.00    +0.000 NA
ATOM     21  C   UNL     1      -3.390  11.647  18.292  0.00  0.00    +0.000 C 
ATOM     22  C   UNL     1      -3.782  10.459  17.417  0.00  0.00    +0.000 C 
ATOM     23  C   UNL     1      -2.624  10.028  16.529  0.00  0.00    +0.000 C 
ATOM     24  C   UNL     1      -1.403   9.746  17.393  0.00  0.00    +0.000 C 
ATOM     25  C   UNL     1      -1.062  10.939  18.307  0.00  0.00    +0.000 C 
ENDBRANCH  15  16
ENDBRANCH   2  15
TORSDOF 5
ENDMDL
MODEL 4
REMARK VINA RESULT:      -6.8      1.945      8.460
REMARK  Name = 
REMARK  6 active torsions:
REMARK  status: ('A' for Active; 'I' for Inactive)
REMARK    1  A    between atoms: C_1  and  N_2
REMARK    2  A    between atoms: N_2  and  C_3
REMARK    3  A    between atoms: N_2  and  C_15
REMARK    4  A    between atoms: C_3  and  C_4
REMARK    5  A    between atoms: C_7  and  N_8
REMARK    6  A    between atoms: C_15  and  C_16
REMARK                            x       y       z     vdW  Elec       q    Type
REMARK                         _______ _______ _______ _____ _____    ______ ____
ROOT
ATOM      1  C   UNL     1       1.837   7.995  20.631  0.00  0.00    +0.000 C 
ATOM      2  N   UNL     1       1.518   7.912  19.209  0.00  0.00    +0.000 NA
ENDROOT
BRANCH   2   3
ATOM      3  C   UNL     1       1.498   9.232  18.554  0.00  0.00    +0.000 C 
BRANCH   3   4
ATOM      4  C   UNL     1       0.131   9.869  18.466  0.00  0.00    +0.000 A 
ATOM      5  C   UNL     1      -0.721   9.536  17.409  0.00  0.00    +0.000 A 
ATOM      6  C   UNL     1      -1.998  10.093  17.323  0.00  0.00    +0.000 A 
ATOM      7  C   UNL     1      -2.437  10.998  18.297  0.00  0.00    +0.000 A 
ATOM      8  C   UNL     1      -1.583  11.344  19.358  0.00  0.00    +0.000 A 
ATOM      9  C   UNL     1      -0.309  10.777  19.441  0.00  0.00    +0.000 A 
BRANCH   7  10
ATOM     10  N   UNL     1      -3.739  11.570  18.213  0.00  0.00    +0.000 N 
ATOM     11  C   UNL     1      -4.454  12.196  19.212  0.00  0.00    +0.000 A 
ATOM     12  C   UNL     1      -5.659  12.582  18.672  0.00  0.00    +0.000 A 
ATOM     13  C   UNL     1      -5.593  12.155  17.339  0.00  0.00    +0.000 A 
ATOM     14  N   UNL     1      -4.439  11.555  17.046  0.00  0.00    +0.000 NA
ENDBRANCH   7  10
ENDBRANCH   3   4
ENDBRANCH   2   3
BRANCH   2  15
ATOM     15  C   UNL     1       2.448   7.038  18.475  0.00  0.00    +0.000 C 
BRANCH  15  16
ATOM     16  C   UNL     1       3.310   6.032  19.287  0.00  0.00    +0.000 C 
ATOM     17  C   UNL     1       4.724   5.964  18.676  0.00  0.00    +0.000 C 
ATOM     18  C   UNL     1       4.683   5.395  17.261  0.00  0.00    +0.000 C 
ATOM     19  C   UNL     1       3.819   4.131  17.125  0.00  0.00    +0.000 C 
ATOM     20  N   UNL     1       2.609   4.043  17.960  0.00  0.00    +0.000 NA
ATOM     21  C   UNL     1       2.123   2.651  17.987  0.00  0.00    +0.000 C 
ATOM     22  C   UNL     1       0.819   2.507  18.769  0.00  0.00    +0.000 C 
ATOM     23  C   UNL     1       0.978   3.016  20.195  0.00  0.00    +0.000 C 
ATOM     24  C   UNL     1       1.494   4.447  20.166  0.00  0.00    +0.000 C 
ATOM     25  C   UNL     1       2.778   4.575  19.324  0.00  0.00    +0.000 C 
ENDBRANCH  15  16
ENDBRANCH   2  15
TORSDOF 5
ENDMDL
MODEL 5
REMARK VINA RESULT:      -6.6      2.114      8.597
REMARK  Name = 
REMARK  6 active torsions:
REMARK  status: ('A' for Active; 'I' for Inactive)
REMARK    1  A    between atoms: C_1  and  N_2
REMARK    2  A    between atoms: N_2  and  C_3
REMARK    3  A    between atoms: N_2  and  C_15
REMARK    4  A    between atoms: C_3  and  C_4
REMARK    5  A    between atoms: C_7  and  N_8
REMARK    6  A    between atoms: C_15  and  C_16
REMARK                            x       y       z     vdW  Elec       q    Type
REMARK                         _______ _______ _______ _____ _____    ______ ____
ROOT
ATOM      1  C   UNL     1       1.861   4.522  18.062  0.00  0.00    +0.000 C 
ATOM      2  N   UNL     1       2.478   5.844  18.108  0.00  0.00    +0.000 NA
ENDROOT
BRANCH   2   3
ATOM      3  C   UNL     1       2.370   6.475  19.435  0.00  0.00    +0.000 C 
BRANCH   3   4
ATOM      4  C   UNL     1       1.860   7.897  19.415  0.00  0.00    +0.000 A 
ATOM      5  C   UNL     1       1.890   8.626  18.223  0.00  0.00    +0.000 A 
ATOM      6  C   UNL     1       1.399   9.932  18.177  0.00  0.00    +0.000 A 
ATOM      7  C   UNL     1       0.874  10.528  19.329  0.00  0.00    +0.000 A 
ATOM      8  C   UNL     1       0.848   9.804  20.533  0.00  0.00    +0.000 A 
ATOM      9  C   UNL     1       1.335   8.495  20.571  0.00  0.00    +0.000 A 
BRANCH   7  10
ATOM     10  N   UNL     1       0.373  11.860  19.286  0.00  0.00    +0.000 N 
ATOM     11  C   UNL     1       1.013  12.990  18.820  0.00  0.00    +0.000 A 
ATOM     12  C   UNL     1       0.146  14.046  18.981  0.00  0.00    +0.000 A 
ATOM     13  C   UNL     1      -0.997  13.471  19.550  0.00  0.00    +0.000 A 
ATOM     14  N   UNL     1      -0.879  12.155  19.728  0.00  0.00    +0.000 NA
ENDBRANCH   7  10
ENDBRANCH   3   4
ENDBRANCH   2   3
BRANCH   2  15
ATOM     15  C   UNL     1       3.898   5.815  17.717  0.00  0.00    +0.000 C 
BRANCH  15  16
ATOM     16  C   UNL     1       4.641   4.450  17.742  0.00  0.00    +0.000 C 
ATOM     17  C   UNL     1       5.433   4.326  19.059  0.00  0.00    +0.000 C 
ATOM     18  C   UNL     1       6.536   5.377  19.137  0.00  0.00    +0.000 C 
ATOM     19  C   UNL     1       7.367   5.501  17.850  0.00  0.00    +0.000 C 
ATOM     20  N   UNL     1       6.669   5.299  16.569  0.00  0.00    +0.000 NA
ATOM     21  C   UNL     1       7.654   5.080  15.494  0.00  0.00    +0.000 C 
ATOM     22  C   UNL     1       6.995   4.949  14.122  0.00  0.00    +0.000 C 
ATOM     23  C   UNL     1       5.975   3.819  14.111  0.00  0.00    +0.000 C 
ATOM     24  C   UNL     1       4.967   4.038  15.231  0.00  0.00    +0.000 C 
ATOM     25  C   UNL     1       5.660   4.225  16.595  0.00  0.00    +0.000 C 
ENDBRANCH  15  16
ENDBRANCH   2  15
TORSDOF 5
ENDMDL
MODEL 6
REMARK VINA RESULT:      -6.6      2.481      8.623
REMARK  Name = 
REMARK  6 active torsions:
REMARK  status: ('A' for Active; 'I' for Inactive)
REMARK    1  A    between atoms: C_1  and  N_2
REMARK    2  A    between atoms: N_2  and  C_3
REMARK    3  A    between atoms: N_2  and  C_15
REMARK    4  A    between atoms: C_3  and  C_4
REMARK    5  A    between atoms: C_7  and  N_8
REMARK    6  A    between atoms: C_15  and  C_16
REMARK                            x       y       z     vdW  Elec       q    Type
REMARK                         _______ _______ _______ _____ _____    ______ ____
ROOT
ATOM      1  C   UNL     1       1.114   8.803  18.074  0.00  0.00    +0.000 C 
ATOM      2  N   UNL     1       2.165   8.156  18.853  0.00  0.00    +0.000 NA
ENDROOT
BRANCH   2   3
ATOM      3  C   UNL     1       1.746   7.857  20.233  0.00  0.00    +0.000 C 
BRANCH   3   4
ATOM      4  C   UNL     1       1.002   8.978  20.921  0.00  0.00    +0.000 A 
ATOM      5  C   UNL     1       1.243  10.301  20.543  0.00  0.00    +0.000 A 
ATOM      6  C   UNL     1       0.548  11.350  21.147  0.00  0.00    +0.000 A 
ATOM      7  C   UNL     1      -0.399  11.085  22.144  0.00  0.00    +0.000 A 
ATOM      8  C   UNL     1      -0.640   9.757  22.535  0.00  0.00    +0.000 A 
ATOM      9  C   UNL     1       0.055   8.711  21.922  0.00  0.00    +0.000 A 
BRANCH   7  10
ATOM     10  N   UNL     1      -1.110  12.152  22.764  0.00  0.00    +0.000 N 
ATOM     11  C   UNL     1      -2.452  12.206  23.075  0.00  0.00    +0.000 A 
ATOM     12  C   UNL     1      -2.688  13.430  23.657  0.00  0.00    +0.000 A 
ATOM     13  C   UNL     1      -1.436  14.057  23.663  0.00  0.00    +0.000 A 
ATOM     14  N   UNL     1      -0.475  13.295  23.139  0.00  0.00    +0.000 NA
ENDBRANCH   7  10
ENDBRANCH   3   4
ENDBRANCH   2   3
BRANCH   2  15
ATOM     15  C   UNL     1       2.642   6.911  18.227  0.00  0.00    +0.000 C 
BRANCH  15  16
ATOM     16  C   UNL     1       3.465   5.918  19.094  0.00  0.00    +0.000 C 
ATOM     17  C   UNL     1       4.875   5.763  18.489  0.00  0.00    +0.000 C 
ATOM     18  C   UNL     1       4.811   5.120  17.107  0.00  0.00    +0.000 C 
ATOM     19  C   UNL     1       3.899   3.884  17.040  0.00  0.00    +0.000 C 
ATOM     20  N   UNL     1       2.688   3.888  17.877  0.00  0.00    +0.000 NA
ATOM     21  C   UNL     1       2.149   2.519  17.980  0.00  0.00    +0.000 C 
ATOM     22  C   UNL     1       0.841   2.469  18.767  0.00  0.00    +0.000 C 
ATOM     23  C   UNL     1       1.021   3.048  20.163  0.00  0.00    +0.000 C 
ATOM     24  C   UNL     1       1.591   4.455  20.057  0.00  0.00    +0.000 C 
ATOM     25  C   UNL     1       2.878   4.488  19.210  0.00  0.00    +0.000 C 
ENDBRANCH  15  16
ENDBRANCH   2  15
TORSDOF 5
ENDMDL
MODEL 7
REMARK VINA RESULT:      -6.5      2.299      8.345
REMARK  Name = 
REMARK  6 active torsions:
REMARK  status: ('A' for Active; 'I' for Inactive)
REMARK    1  A    between atoms: C_1  and  N_2
REMARK    2  A    between atoms: N_2  and  C_3
REMARK    3  A    between atoms: N_2  and  C_15
REMARK    4  A    between atoms: C_3  and  C_4
REMARK    5  A    between atoms: C_7  and  N_8
REMARK    6  A    between atoms: C_15  and  C_16
REMARK                            x       y       z     vdW  Elec       q    Type
REMARK                         _______ _______ _______ _____ _____    ______ ____
ROOT
ATOM      1  C   UNL     1       5.146   7.301  17.127  0.00  0.00    +0.000 C 
ATOM      2  N   UNL     1       3.898   7.055  17.845  0.00  0.00    +0.000 NA
ENDROOT
BRANCH   2   3
ATOM      3  C   UNL     1       2.790   7.897  17.361  0.00  0.00    +0.000 C 
BRANCH   3   4
ATOM      4  C   UNL     1       2.023   8.613  18.449  0.00  0.00    +0.000 A 
ATOM      5  C   UNL     1       1.458   9.864  18.187  0.00  0.00    +0.000 A 
ATOM      6  C   UNL     1       0.724  10.530  19.170  0.00  0.00    +0.000 A 
ATOM      7  C   UNL     1       0.548   9.951  20.432  0.00  0.00    +0.000 A 
ATOM      8  C   UNL     1       1.121   8.696  20.704  0.00  0.00    +0.000 A 
ATOM      9  C   UNL     1       1.849   8.032  19.714  0.00  0.00    +0.000 A 
BRANCH   7  10
ATOM     10  N   UNL     1      -0.199  10.627  21.438  0.00  0.00    +0.000 N 
ATOM     11  C   UNL     1      -0.576  11.954  21.463  0.00  0.00    +0.000 A 
ATOM     12  C   UNL     1      -1.279  12.157  22.628  0.00  0.00    +0.000 A 
ATOM     13  C   UNL     1      -1.284  10.903  23.252  0.00  0.00    +0.000 A 
ATOM     14  N   UNL     1      -0.649   9.970  22.541  0.00  0.00    +0.000 NA
ENDBRANCH   7  10
ENDBRANCH   3   4
ENDBRANCH   2   3
BRANCH   2  15
ATOM     15  C   UNL     1       3.480   5.645  17.776  0.00  0.00    +0.000 C 
BRANCH  15  16
ATOM     16  C   UNL     1       4.289   4.596  18.588  0.00  0.00    +0.000 C 
ATOM     17  C   UNL     1       5.003   3.638  17.613  0.00  0.00    +0.000 C 
ATOM     18  C   UNL     1       3.996   2.822  16.808  0.00  0.00    +0.000 C 
ATOM     19  C   UNL     1       2.869   2.215  17.659  0.00  0.00    +0.000 C 
ATOM     20  N   UNL     1       2.389   2.999  18.810  0.00  0.00    +0.000 NA
ATOM     21  C   UNL     1       1.604   2.133  19.710  0.00  0.00    +0.000 C 
ATOM     22  C   UNL     1       1.005   2.907  20.882  0.00  0.00    +0.000 C 
ATOM     23  C   UNL     1       2.090   3.615  21.681  0.00  0.00    +0.000 C 
ATOM     24  C   UNL     1       2.909   4.497  20.749  0.00  0.00    +0.000 C 
ATOM     25  C   UNL     1       3.454   3.705  19.545  0.00  0.00    +0.000 C 
ENDBRANCH  15  16
ENDBRANCH   2  15
TORSDOF 5
ENDMDL
MODEL 8
REMARK VINA RESULT:      -6.5      1.638      8.666
REMARK  Name = 
REMARK  6 active torsions:
REMARK  status: ('A' for Active; 'I' for Inactive)
REMARK    1  A    between atoms: C_1  and  N_2
REMARK    2  A    between atoms: N_2  and  C_3
REMARK    3  A    between atoms: N_2  and  C_15
REMARK    4  A    between atoms: C_3  and  C_4
REMARK    5  A    between atoms: C_7  and  N_8
REMARK    6  A    between atoms: C_15  and  C_16
REMARK                            x       y       z     vdW  Elec       q    Type
REMARK                         _______ _______ _______ _____ _____    ______ ____
ROOT
ATOM      1  C   UNL     1       1.443   8.235  20.808  0.00  0.00    +0.000 C 
ATOM      2  N   UNL     1       1.568   8.153  19.355  0.00  0.00    +0.000 NA
ENDROOT
BRANCH   2   3
ATOM      3  C   UNL     1       1.487   9.472  18.704  0.00  0.00    +0.000 C 
BRANCH   3   4
ATOM      4  C   UNL     1       0.084  10.010  18.545  0.00  0.00    +0.000 A 
ATOM      5  C   UNL     1      -0.377  11.006  19.410  0.00  0.00    +0.000 A 
ATOM      6  C   UNL     1      -1.661  11.535  19.265  0.00  0.00    +0.000 A 
ATOM      7  C   UNL     1      -2.503  11.067  18.249  0.00  0.00    +0.000 A 
ATOM      8  C   UNL     1      -2.050  10.060  17.381  0.00  0.00    +0.000 A 
ATOM      9  C   UNL     1      -0.761   9.539  17.528  0.00  0.00    +0.000 A 
BRANCH   7  10
ATOM     10  N   UNL     1      -3.814  11.603  18.098  0.00  0.00    +0.000 N 
ATOM     11  C   UNL     1      -4.569  11.680  16.946  0.00  0.00    +0.000 A 
ATOM     12  C   UNL     1      -5.763  12.276  17.279  0.00  0.00    +0.000 A 
ATOM     13  C   UNL     1      -5.653  12.527  18.653  0.00  0.00    +0.000 A 
ATOM     14  N   UNL     1      -4.491  12.116  19.161  0.00  0.00    +0.000 NA
ENDBRANCH   7  10
ENDBRANCH   3   4
ENDBRANCH   2   3
BRANCH   2  15
ATOM     15  C   UNL     1       2.819   7.499  18.935  0.00  0.00    +0.000 C 
BRANCH  15  16
ATOM     16  C   UNL     1       2.735   6.341  17.902  0.00  0.00    +0.000 C 
ATOM     17  C   UNL     1       1.853   5.213  18.474  0.00  0.00    +0.000 C 
ATOM     18  C   UNL     1       2.493   4.591  19.713  0.00  0.00    +0.000 C 
ATOM     19  C   UNL     1       3.987   4.272  19.545  0.00  0.00    +0.000 C 
ATOM     20  N   UNL     1       4.788   5.189  18.717  0.00  0.00    +0.000 NA
ATOM     21  C   UNL     1       6.068   4.548  18.358  0.00  0.00    +0.000 C 
ATOM     22  C   UNL     1       6.983   5.483  17.570  0.00  0.00    +0.000 C 
ATOM     23  C   UNL     1       6.296   5.983  16.307  0.00  0.00    +0.000 C 
ATOM     24  C   UNL     1       4.969   6.631  16.676  0.00  0.00    +0.000 C 
ATOM     25  C   UNL     1       4.088   5.688  17.520  0.00  0.00    +0.000 C 
ENDBRANCH  15  16
ENDBRANCH   2  15
TORSDOF 5
ENDMDL
MODEL 9
REMARK VINA RESULT:      -6.5      1.650      8.697
REMARK  Name = 
REMARK  6 active torsions:
REMARK  status: ('A' for Active; 'I' for Inactive)
REMARK    1  A    between atoms: C_1  and  N_2
REMARK    2  A    between atoms: N_2  and  C_3
REMARK    3  A    between atoms: N_2  and  C_15
REMARK    4  A    between atoms: C_3  and  C_4
REMARK    5  A    between atoms: C_7  and  N_8
REMARK    6  A    between atoms: C_15  and  C_16
REMARK                            x       y       z     vdW  Elec       q    Type
REMARK                         _______ _______ _______ _____ _____    ______ ____
ROOT
ATOM      1  C   UNL     1       1.585   8.224  20.452  0.00  0.00    +0.000 C 
ATOM      2  N   UNL     1       1.687   8.181  18.996  0.00  0.00    +0.000 NA
ENDROOT
BRANCH   2   3
ATOM      3  C   UNL     1       1.596   9.517  18.382  0.00  0.00    +0.000 C 
BRANCH   3   4
ATOM      4  C   UNL     1       0.198  10.089  18.328  0.00  0.00    +0.000 A 
ATOM      5  C   UNL     1      -0.743   9.534  17.457  0.00  0.00    +0.000 A 
ATOM      6  C   UNL     1      -2.047  10.031  17.411  0.00  0.00    +0.000 A 
ATOM      7  C   UNL     1      -2.424  11.096  18.237  0.00  0.00    +0.000 A 
ATOM      8  C   UNL     1      -1.480  11.664  19.110  0.00  0.00    +0.000 A 
ATOM      9  C   UNL     1      -0.179  11.158  19.156  0.00  0.00    +0.000 A 
BRANCH   7  10
ATOM     10  N   UNL     1      -3.753  11.607  18.192  0.00  0.00    +0.000 N 
ATOM     11  C   UNL     1      -4.494  12.128  19.232  0.00  0.00    +0.000 A 
ATOM     12  C   UNL     1      -5.719  12.489  18.720  0.00  0.00    +0.000 A 
ATOM     13  C   UNL     1      -5.638  12.155  17.362  0.00  0.00    +0.000 A 
ATOM     14  N   UNL     1      -4.457  11.634  17.028  0.00  0.00    +0.000 NA
ENDBRANCH   7  10
ENDBRANCH   3   4
ENDBRANCH   2   3
BRANCH   2  15
ATOM     15  C   UNL     1       2.932   7.539  18.540  0.00  0.00    +0.000 C 
BRANCH  15  16
ATOM     16  C   UNL     1       2.827   6.194  17.769  0.00  0.00    +0.000 C 
ATOM     17  C   UNL     1       2.093   5.160  18.647  0.00  0.00    +0.000 C 
ATOM     18  C   UNL     1       2.899   4.834  19.901  0.00  0.00    +0.000 C 
ATOM     19  C   UNL     1       4.387   4.565  19.629  0.00  0.00    +0.000 C 
ATOM     20  N   UNL     1       5.031   5.336  18.553  0.00  0.00    +0.000 NA
ATOM     21  C   UNL     1       6.311   4.702  18.182  0.00  0.00    +0.000 C 
ATOM     22  C   UNL     1       7.071   5.504  17.127  0.00  0.00    +0.000 C 
ATOM     23  C   UNL     1       6.225   5.703  15.878  0.00  0.00    +0.000 C 
ATOM     24  C   UNL     1       4.898   6.344  16.263  0.00  0.00    +0.000 C 
ATOM     25  C   UNL     1       4.179   5.547  17.369  0.00  0.00    +0.000 C 
ENDBRANCH  15  16
ENDBRANCH   2  15
TORSDOF 5
ENDMDL
