MODEL 1
REMARK VINA RESULT:      -8.8      0.000      0.000
REMARK  Name = 
REMARK  9 active torsions:
REMARK  status: ('A' for Active; 'I' for Inactive)
REMARK    1  A    between atoms: C_1  and  N_2
REMARK    2  A    between atoms: N_2  and  C_3
REMARK    3  A    between atoms: N_2  and  C_4
REMARK    4  A    between atoms: C_4  and  C_5
REMARK    5  A    between atoms: C_5  and  C_6
REMARK    6  A    between atoms: C_6  and  C_7
REMARK    7  A    between atoms: C_7  and  C_8
REMARK    8  A    between atoms: C_19  and  C_20
REMARK    9  A    between atoms: C_21  and  C_22
REMARK                            x       y       z     vdW  Elec       q    Type
REMARK                         _______ _______ _______ _____ _____    ______ ____
ROOT
ATOM      1  C   UNL     1       5.430   4.633  16.551  0.00  0.00    +0.000 C 
ATOM      2  O   UNL     1       4.649   5.454  15.628  0.00  0.00    +0.000 OA
ATOM      3  C   UNL     1       5.085   6.829  15.657  0.00  0.00    +0.000 C 
ATOM      4  C   UNL     1       6.127   6.892  16.706  0.00  0.00    +0.000 A 
ATOM      5  C   UNL     1       6.861   7.990  17.135  0.00  0.00    +0.000 A 
ATOM      6  C   UNL     1       7.830   7.811  18.130  0.00  0.00    +0.000 A 
ATOM      7  C   UNL     1       8.062   6.519  18.638  0.00  0.00    +0.000 A 
ATOM      8  C   UNL     1       7.323   5.425  18.187  0.00  0.00    +0.000 A 
ATOM      9  C   UNL     1       6.340   5.627  17.230  0.00  0.00    +0.000 A 
ENDROOT
BRANCH   1  10
ATOM     10  C   UNL     1       4.492   3.915  17.533  0.00  0.00    +0.000 A 
ATOM     11  C   UNL     1       3.230   3.440  17.116  0.00  0.00    +0.000 A 
ATOM     12  C   UNL     1       2.391   2.743  17.989  0.00  0.00    +0.000 A 
ATOM     13  C   UNL     1       2.792   2.535  19.299  0.00  0.00    +0.000 A 
ATOM     14  F   UNL     1       1.991   1.860  20.134  0.00  0.00    +0.000 F 
ATOM     15  C   UNL     1       4.008   3.022  19.755  0.00  0.00    +0.000 A 
ATOM     16  C   UNL     1       4.854   3.707  18.878  0.00  0.00    +0.000 A 
ENDBRANCH   1  10
BRANCH   6  17
ATOM     17  C   UNL     1       8.670   8.904  18.640  0.00  0.00    +0.000 C 
ATOM     18  C   UNL     1       8.817  10.101  18.048  0.00  0.00    +0.000 C 
BRANCH  18  19
ATOM     19  C   UNL     1       9.610  11.200  18.619  0.00  0.00    +0.000 A 
ATOM     20  C   UNL     1      10.067  11.190  19.945  0.00  0.00    +0.000 A 
ATOM     21  C   UNL     1      10.807  12.262  20.451  0.00  0.00    +0.000 A 
ATOM     22  C   UNL     1      11.107  13.343  19.628  0.00  0.00    +0.000 A 
ATOM     23 CL   UNL     1      12.009  14.668  20.251  0.00  0.00    +0.000 Cl
ATOM     24  C   UNL     1      10.682  13.358  18.303  0.00  0.00    +0.000 A 
ATOM     25  C   UNL     1       9.939  12.288  17.798  0.00  0.00    +0.000 A 
ENDBRANCH  18  19
ENDBRANCH   6  17
BRANCH   1  26
ATOM     26  C   UNL     1       6.268   3.661  15.692  0.00  0.00    +0.000 C 
BRANCH  26  27
ATOM     27  C   UNL     1       6.279   4.016  14.199  0.00  0.00    +0.000 C 
BRANCH  27  28
ATOM     28  C   UNL     1       5.173   3.285  13.425  0.00  0.00    +0.000 C 
BRANCH  28  30
ATOM     29  C   UNL     1       6.011   1.950  11.565  0.00  0.00    +0.000 C 
ATOM     30  N   UNL     1       5.405   3.220  11.971  0.00  0.00    +0.000 NA
ATOM     31  C   UNL     1       4.146   3.426  11.253  0.00  0.00    +0.000 C 
ENDBRANCH  28  30
ENDBRANCH  27  28
ENDBRANCH  26  27
ENDBRANCH   1  26
TORSDOF 7
ENDMDL
MODEL 2
REMARK VINA RESULT:      -8.8      0.876      1.134
REMARK  Name = 
REMARK  9 active torsions:
REMARK  status: ('A' for Active; 'I' for Inactive)
REMARK    1  A    between atoms: C_1  and  N_2
REMARK    2  A    between atoms: N_2  and  C_3
REMARK    3  A    between atoms: N_2  and  C_4
REMARK    4  A    between atoms: C_4  and  C_5
REMARK    5  A    between atoms: C_5  and  C_6
REMARK    6  A    between atoms: C_6  and  C_7
REMARK    7  A    between atoms: C_7  and  C_8
REMARK    8  A    between atoms: C_19  and  C_20
REMARK    9  A    between atoms: C_21  and  C_22
REMARK                            x       y       z     vdW  Elec       q    Type
REMARK                         _______ _______ _______ _____ _____    ______ ____
ROOT
ATOM      1  C   UNL     1       5.389   4.849  16.960  0.00  0.00    +0.000 C 
ATOM      2  O   UNL     1       4.554   5.643  16.061  0.00  0.00    +0.000 OA
ATOM      3  C   UNL     1       5.005   7.013  16.007  0.00  0.00    +0.000 C 
ATOM      4  C   UNL     1       6.116   7.103  16.980  0.00  0.00    +0.000 A 
ATOM      5  C   UNL     1       6.889   8.208  17.315  0.00  0.00    +0.000 A 
ATOM      6  C   UNL     1       7.922   8.055  18.248  0.00  0.00    +0.000 A 
ATOM      7  C   UNL     1       8.175   6.781  18.789  0.00  0.00    +0.000 A 
ATOM      8  C   UNL     1       7.397   5.679  18.432  0.00  0.00    +0.000 A 
ATOM      9  C   UNL     1       6.352   5.857  17.537  0.00  0.00    +0.000 A 
ENDROOT
BRANCH   1  10
ATOM     10  C   UNL     1       4.513   4.180  18.031  0.00  0.00    +0.000 A 
ATOM     11  C   UNL     1       4.033   4.912  19.138  0.00  0.00    +0.000 A 
ATOM     12  C   UNL     1       3.196   4.326  20.090  0.00  0.00    +0.000 A 
ATOM     13  C   UNL     1       2.850   2.990  19.963  0.00  0.00    +0.000 A 
ATOM     14  F   UNL     1       2.042   2.429  20.871  0.00  0.00    +0.000 F 
ATOM     15  C   UNL     1       3.335   2.228  18.910  0.00  0.00    +0.000 A 
ATOM     16  C   UNL     1       4.160   2.819  17.948  0.00  0.00    +0.000 A 
ENDBRANCH   1  10
BRANCH   6  17
ATOM     17  C   UNL     1       8.805   9.156  18.657  0.00  0.00    +0.000 C 
ATOM     18  C   UNL     1       8.949  10.314  17.991  0.00  0.00    +0.000 C 
BRANCH  18  19
ATOM     19  C   UNL     1       9.788  11.425  18.462  0.00  0.00    +0.000 A 
ATOM     20  C   UNL     1      11.141  11.262  18.795  0.00  0.00    +0.000 A 
ATOM     21  C   UNL     1      11.898  12.343  19.251  0.00  0.00    +0.000 A 
ATOM     22  C   UNL     1      11.310  13.599  19.364  0.00  0.00    +0.000 A 
ATOM     23 CL   UNL     1      12.237  14.930  19.935  0.00  0.00    +0.000 Cl
ATOM     24  C   UNL     1       9.975  13.786  19.015  0.00  0.00    +0.000 A 
ATOM     25  C   UNL     1       9.217  12.702  18.562  0.00  0.00    +0.000 A 
ENDBRANCH  18  19
ENDBRANCH   6  17
BRANCH   1  26
ATOM     26  C   UNL     1       6.157   3.834  16.085  0.00  0.00    +0.000 C 
BRANCH  26  27
ATOM     27  C   UNL     1       6.302   4.274  14.621  0.00  0.00    +0.000 C 
BRANCH  27  28
ATOM     28  C   UNL     1       5.465   3.405  13.673  0.00  0.00    +0.000 C 
BRANCH  28  30
ATOM     29  C   UNL     1       7.177   4.029  12.053  0.00  0.00    +0.000 C 
ATOM     30  N   UNL     1       5.795   3.586  12.249  0.00  0.00    +0.000 NA
ATOM     31  C   UNL     1       5.560   2.340  11.517  0.00  0.00    +0.000 C 
ENDBRANCH  28  30
ENDBRANCH  27  28
ENDBRANCH  26  27
ENDBRANCH   1  26
TORSDOF 7
ENDMDL
MODEL 3
REMARK VINA RESULT:      -8.7      2.715      4.692
REMARK  Name = 
REMARK  9 active torsions:
REMARK  status: ('A' for Active; 'I' for Inactive)
REMARK    1  A    between atoms: C_1  and  N_2
REMARK    2  A    between atoms: N_2  and  C_3
REMARK    3  A    between atoms: N_2  and  C_4
REMARK    4  A    between atoms: C_4  and  C_5
REMARK    5  A    between atoms: C_5  and  C_6
REMARK    6  A    between atoms: C_6  and  C_7
REMARK    7  A    between atoms: C_7  and  C_8
REMARK    8  A    between atoms: C_19  and  C_20
REMARK    9  A    between atoms: C_21  and  C_22
REMARK                            x       y       z     vdW  Elec       q    Type
REMARK                         _______ _______ _______ _____ _____    ______ ____
ROOT
ATOM      1  C   UNL     1       6.092   5.258  17.234  0.00  0.00    +0.000 C 
ATOM      2  O   UNL     1       6.800   4.296  18.076  0.00  0.00    +0.000 OA
ATOM      3  C   UNL     1       7.795   4.950  18.890  0.00  0.00    +0.000 C 
ATOM      4  C   UNL     1       7.772   6.371  18.478  0.00  0.00    +0.000 A 
ATOM      5  C   UNL     1       8.545   7.424  18.952  0.00  0.00    +0.000 A 
ATOM      6  C   UNL     1       8.328   8.708  18.437  0.00  0.00    +0.000 A 
ATOM      7  C   UNL     1       7.308   8.904  17.488  0.00  0.00    +0.000 A 
ATOM      8  C   UNL     1       6.533   7.837  17.033  0.00  0.00    +0.000 A 
ATOM      9  C   UNL     1       6.788   6.565  17.523  0.00  0.00    +0.000 A 
ENDROOT
BRANCH   1  10
ATOM     10  C   UNL     1       6.198   4.839  15.760  0.00  0.00    +0.000 A 
ATOM     11  C   UNL     1       7.330   5.177  14.988  0.00  0.00    +0.000 A 
ATOM     12  C   UNL     1       7.458   4.759  13.662  0.00  0.00    +0.000 A 
ATOM     13  C   UNL     1       6.441   4.018  13.080  0.00  0.00    +0.000 A 
ATOM     14  F   UNL     1       6.566   3.610  11.810  0.00  0.00    +0.000 F 
ATOM     15  C   UNL     1       5.295   3.700  13.795  0.00  0.00    +0.000 A 
ATOM     16  C   UNL     1       5.175   4.106  15.127  0.00  0.00    +0.000 A 
ENDBRANCH   1  10
BRANCH   6  17
ATOM     17  C   UNL     1       9.079   9.890  18.882  0.00  0.00    +0.000 C 
ATOM     18  C   UNL     1       9.594  10.826  18.067  0.00  0.00    +0.000 C 
BRANCH  18  19
ATOM     19  C   UNL     1      10.280  12.034  18.546  0.00  0.00    +0.000 A 
ATOM     20  C   UNL     1      11.531  11.991  19.180  0.00  0.00    +0.000 A 
ATOM     21  C   UNL     1      12.143  13.163  19.631  0.00  0.00    +0.000 A 
ATOM     22  C   UNL     1      11.513  14.389  19.437  0.00  0.00    +0.000 A 
ATOM     23 CL   UNL     1      12.258  15.832  20.000  0.00  0.00    +0.000 Cl
ATOM     24  C   UNL     1      10.283  14.453  18.788  0.00  0.00    +0.000 A 
ATOM     25  C   UNL     1       9.670  13.280  18.340  0.00  0.00    +0.000 A 
ENDBRANCH  18  19
ENDBRANCH   6  17
BRANCH   1  26
ATOM     26  C   UNL     1       4.635   5.318  17.743  0.00  0.00    +0.000 C 
BRANCH  26  27
ATOM     27  C   UNL     1       4.192   4.048  18.483  0.00  0.00    +0.000 C 
BRANCH  27  28
ATOM     28  C   UNL     1       3.474   4.371  19.801  0.00  0.00    +0.000 C 
BRANCH  28  30
ATOM     29  C   UNL     1       1.077   4.019  20.082  0.00  0.00    +0.000 C 
ATOM     30  N   UNL     1       2.409   3.414  20.151  0.00  0.00    +0.000 NA
ATOM     31  C   UNL     1       2.475   2.247  19.269  0.00  0.00    +0.000 C 
ENDBRANCH  28  30
ENDBRANCH  27  28
ENDBRANCH  26  27
ENDBRANCH   1  26
TORSDOF 7
ENDMDL
MODEL 4
REMARK VINA RESULT:      -8.7      6.050      7.323
REMARK  Name = 
REMARK  9 active torsions:
REMARK  status: ('A' for Active; 'I' for Inactive)
REMARK    1  A    between atoms: C_1  and  N_2
REMARK    2  A    between atoms: N_2  and  C_3
REMARK    3  A    between atoms: N_2  and  C_4
REMARK    4  A    between atoms: C_4  and  C_5
REMARK    5  A    between atoms: C_5  and  C_6
REMARK    6  A    between atoms: C_6  and  C_7
REMARK    7  A    between atoms: C_7  and  C_8
REMARK    8  A    between atoms: C_19  and  C_20
REMARK    9  A    between atoms: C_21  and  C_22
REMARK                            x       y       z     vdW  Elec       q    Type
REMARK                         _______ _______ _______ _____ _____    ______ ____
ROOT
ATOM      1  C   UNL     1       2.606   5.869  18.680  0.00  0.00    +0.000 C 
ATOM      2  O   UNL     1       2.334   5.510  20.070  0.00  0.00    +0.000 OA
ATOM      3  C   UNL     1       1.807   6.634  20.804  0.00  0.00    +0.000 C 
ATOM      4  C   UNL     1       1.830   7.772  19.859  0.00  0.00    +0.000 A 
ATOM      5  C   UNL     1       1.433   9.086  20.072  0.00  0.00    +0.000 A 
ATOM      6  C   UNL     1       1.512   9.998  19.012  0.00  0.00    +0.000 A 
ATOM      7  C   UNL     1       1.949   9.550  17.752  0.00  0.00    +0.000 A 
ATOM      8  C   UNL     1       2.333   8.223  17.552  0.00  0.00    +0.000 A 
ATOM      9  C   UNL     1       2.287   7.343  18.623  0.00  0.00    +0.000 A 
ENDROOT
BRANCH   1  10
ATOM     10  C   UNL     1       4.073   5.563  18.338  0.00  0.00    +0.000 A 
ATOM     11  C   UNL     1       5.012   5.282  19.354  0.00  0.00    +0.000 A 
ATOM     12  C   UNL     1       6.335   4.955  19.051  0.00  0.00    +0.000 A 
ATOM     13  C   UNL     1       6.745   4.931  17.727  0.00  0.00    +0.000 A 
ATOM     14  F   UNL     1       8.012   4.609  17.435  0.00  0.00    +0.000 F 
ATOM     15  C   UNL     1       5.861   5.240  16.704  0.00  0.00    +0.000 A 
ATOM     16  C   UNL     1       4.532   5.553  17.007  0.00  0.00    +0.000 A 
ENDBRANCH   1  10
BRANCH   6  17
ATOM     17  C   UNL     1       1.102  11.404  19.130  0.00  0.00    +0.000 C 
ATOM     18  C   UNL     1       1.774  12.446  18.614  0.00  0.00    +0.000 C 
BRANCH  18  19
ATOM     19  C   UNL     1       1.302  13.837  18.689  0.00  0.00    +0.000 A 
ATOM     20  C   UNL     1      -0.051  14.167  18.856  0.00  0.00    +0.000 A 
ATOM     21  C   UNL     1      -0.458  15.502  18.909  0.00  0.00    +0.000 A 
ATOM     22  C   UNL     1       0.489  16.517  18.809  0.00  0.00    +0.000 A 
ATOM     23 CL   UNL     1      -0.010  18.161  18.864  0.00  0.00    +0.000 Cl
ATOM     24  C   UNL     1       1.839  16.208  18.666  0.00  0.00    +0.000 A 
ATOM     25  C   UNL     1       2.246  14.872  18.610  0.00  0.00    +0.000 A 
ENDBRANCH  18  19
ENDBRANCH   6  17
BRANCH   1  26
ATOM     26  C   UNL     1       1.604   5.084  17.805  0.00  0.00    +0.000 C 
BRANCH  26  27
ATOM     27  C   UNL     1       1.920   3.585  17.708  0.00  0.00    +0.000 C 
BRANCH  27  28
ATOM     28  C   UNL     1       1.047   2.750  18.655  0.00  0.00    +0.000 C 
BRANCH  28  30
ATOM     29  C   UNL     1       3.253   2.095  19.460  0.00  0.00    +0.000 C 
ATOM     30  N   UNL     1       1.809   2.032  19.692  0.00  0.00    +0.000 NA
ATOM     31  C   UNL     1       1.490   2.573  21.014  0.00  0.00    +0.000 C 
ENDBRANCH  28  30
ENDBRANCH  27  28
ENDBRANCH  26  27
ENDBRANCH   1  26
TORSDOF 7
ENDMDL
MODEL 5
REMARK VINA RESULT:      -8.6      5.719      7.751
REMARK  Name = 
REMARK  9 active torsions:
REMARK  status: ('A' for Active; 'I' for Inactive)
REMARK    1  A    between atoms: C_1  and  N_2
REMARK    2  A    between atoms: N_2  and  C_3
REMARK    3  A    between atoms: N_2  and  C_4
REMARK    4  A    between atoms: C_4  and  C_5
REMARK    5  A    between atoms: C_5  and  C_6
REMARK    6  A    between atoms: C_6  and  C_7
REMARK    7  A    between atoms: C_7  and  C_8
REMARK    8  A    between atoms: C_19  and  C_20
REMARK    9  A    between atoms: C_21  and  C_22
REMARK                            x       y       z     vdW  Elec       q    Type
REMARK                         _______ _______ _______ _____ _____    ______ ____
ROOT
ATOM      1  C   UNL     1       4.562   3.906  17.562  0.00  0.00    +0.000 C 
ATOM      2  O   UNL     1       5.370   3.614  18.745  0.00  0.00    +0.000 OA
ATOM      3  C   UNL     1       5.025   4.488  19.839  0.00  0.00    +0.000 C 
ATOM      4  C   UNL     1       4.019   5.427  19.295  0.00  0.00    +0.000 A 
ATOM      5  C   UNL     1       3.370   6.473  19.940  0.00  0.00    +0.000 A 
ATOM      6  C   UNL     1       2.419   7.219  19.232  0.00  0.00    +0.000 A 
ATOM      7  C   UNL     1       2.118   6.864  17.904  0.00  0.00    +0.000 A 
ATOM      8  C   UNL     1       2.771   5.803  17.276  0.00  0.00    +0.000 A 
ATOM      9  C   UNL     1       3.738   5.100  17.979  0.00  0.00    +0.000 A 
ENDROOT
BRANCH   1  10
ATOM     10  C   UNL     1       5.478   4.202  16.365  0.00  0.00    +0.000 A 
ATOM     11  C   UNL     1       5.149   3.750  15.069  0.00  0.00    +0.000 A 
ATOM     12  C   UNL     1       5.949   4.055  13.967  0.00  0.00    +0.000 A 
ATOM     13  C   UNL     1       7.107   4.796  14.149  0.00  0.00    +0.000 A 
ATOM     14  F   UNL     1       7.871   5.096  13.091  0.00  0.00    +0.000 F 
ATOM     15  C   UNL     1       7.484   5.224  15.413  0.00  0.00    +0.000 A 
ATOM     16  C   UNL     1       6.674   4.931  16.515  0.00  0.00    +0.000 A 
ENDBRANCH   1  10
BRANCH   6  17
ATOM     17  C   UNL     1       1.667   8.332  19.826  0.00  0.00    +0.000 C 
ATOM     18  C   UNL     1       1.055   8.295  21.022  0.00  0.00    +0.000 C 
BRANCH  18  19
ATOM     19  C   UNL     1       0.369   9.449  21.622  0.00  0.00    +0.000 A 
ATOM     20  C   UNL     1      -0.427   9.340  22.772  0.00  0.00    +0.000 A 
ATOM     21  C   UNL     1      -1.072  10.460  23.302  0.00  0.00    +0.000 A 
ATOM     22  C   UNL     1      -0.912  11.701  22.691  0.00  0.00    +0.000 A 
ATOM     23 CL   UNL     1      -1.712  13.080  23.335  0.00  0.00    +0.000 Cl
ATOM     24  C   UNL     1      -0.106  11.832  21.564  0.00  0.00    +0.000 A 
ATOM     25  C   UNL     1       0.536  10.710  21.032  0.00  0.00    +0.000 A 
ENDBRANCH  18  19
ENDBRANCH   6  17
BRANCH   1  26
ATOM     26  C   UNL     1       3.639   2.690  17.333  0.00  0.00    +0.000 C 
BRANCH  26  27
ATOM     27  C   UNL     1       2.289   2.801  18.055  0.00  0.00    +0.000 C 
BRANCH  27  28
ATOM     28  C   UNL     1       2.240   1.932  19.320  0.00  0.00    +0.000 C 
BRANCH  28  30
ATOM     29  C   UNL     1       2.324   2.792  21.600  0.00  0.00    +0.000 C 
ATOM     30  N   UNL     1       1.481   2.535  20.430  0.00  0.00    +0.000 NA
ATOM     31  C   UNL     1       0.847   3.778  19.986  0.00  0.00    +0.000 C 
ENDBRANCH  28  30
ENDBRANCH  27  28
ENDBRANCH  26  27
ENDBRANCH   1  26
TORSDOF 7
ENDMDL
MODEL 6
REMARK VINA RESULT:      -8.6      2.838      4.790
REMARK  Name = 
REMARK  9 active torsions:
REMARK  status: ('A' for Active; 'I' for Inactive)
REMARK    1  A    between atoms: C_1  and  N_2
REMARK    2  A    between atoms: N_2  and  C_3
REMARK    3  A    between atoms: N_2  and  C_4
REMARK    4  A    between atoms: C_4  and  C_5
REMARK    5  A    between atoms: C_5  and  C_6
REMARK    6  A    between atoms: C_6  and  C_7
REMARK    7  A    between atoms: C_7  and  C_8
REMARK    8  A    between atoms: C_19  and  C_20
REMARK    9  A    between atoms: C_21  and  C_22
REMARK                            x       y       z     vdW  Elec       q    Type
REMARK                         _______ _______ _______ _____ _____    ______ ____
ROOT
ATOM      1  C   UNL     1       6.092   5.264  17.284  0.00  0.00    +0.000 C 
ATOM      2  O   UNL     1       6.774   4.314  18.160  0.00  0.00    +0.000 OA
ATOM      3  C   UNL     1       7.762   4.975  18.976  0.00  0.00    +0.000 C 
ATOM      4  C   UNL     1       7.762   6.387  18.532  0.00  0.00    +0.000 A 
ATOM      5  C   UNL     1       8.538   7.442  18.995  0.00  0.00    +0.000 A 
ATOM      6  C   UNL     1       8.345   8.717  18.448  0.00  0.00    +0.000 A 
ATOM      7  C   UNL     1       7.344   8.902  17.477  0.00  0.00    +0.000 A 
ATOM      8  C   UNL     1       6.565   7.833  17.032  0.00  0.00    +0.000 A 
ATOM      9  C   UNL     1       6.797   6.569  17.555  0.00  0.00    +0.000 A 
ENDROOT
BRANCH   1  10
ATOM     10  C   UNL     1       6.219   4.810  15.821  0.00  0.00    +0.000 A 
ATOM     11  C   UNL     1       5.182   4.090  15.191  0.00  0.00    +0.000 A 
ATOM     12  C   UNL     1       5.267   3.716  13.849  0.00  0.00    +0.000 A 
ATOM     13  C   UNL     1       6.405   4.034  13.124  0.00  0.00    +0.000 A 
ATOM     14  F   UNL     1       6.485   3.682  11.834  0.00  0.00    +0.000 F 
ATOM     15  C   UNL     1       7.462   4.705  13.720  0.00  0.00    +0.000 A 
ATOM     16  C   UNL     1       7.370   5.093  15.060  0.00  0.00    +0.000 A 
ENDBRANCH   1  10
BRANCH   6  17
ATOM     17  C   UNL     1       9.102   9.900  18.880  0.00  0.00    +0.000 C 
ATOM     18  C   UNL     1       9.362  10.969  18.108  0.00  0.00    +0.000 C 
BRANCH  18  19
ATOM     19  C   UNL     1      10.062  12.169  18.590  0.00  0.00    +0.000 A 
ATOM     20  C   UNL     1       9.442  13.129  19.403  0.00  0.00    +0.000 A 
ATOM     21  C   UNL     1      10.140  14.262  19.829  0.00  0.00    +0.000 A 
ATOM     22  C   UNL     1      11.470  14.433  19.454  0.00  0.00    +0.000 A 
ATOM     23 CL   UNL     1      12.329  15.831  19.968  0.00  0.00    +0.000 Cl
ATOM     24  C   UNL     1      12.109  13.479  18.668  0.00  0.00    +0.000 A 
ATOM     25  C   UNL     1      11.408  12.347  18.240  0.00  0.00    +0.000 A 
ENDBRANCH  18  19
ENDBRANCH   6  17
BRANCH   1  26
ATOM     26  C   UNL     1       4.627   5.352  17.765  0.00  0.00    +0.000 C 
BRANCH  26  27
ATOM     27  C   UNL     1       4.335   4.486  18.999  0.00  0.00    +0.000 C 
BRANCH  27  28
ATOM     28  C   UNL     1       3.251   5.105  19.893  0.00  0.00    +0.000 C 
BRANCH  28  30
ATOM     29  C   UNL     1       1.077   4.103  20.355  0.00  0.00    +0.000 C 
ATOM     30  N   UNL     1       2.502   4.119  20.692  0.00  0.00    +0.000 NA
ATOM     31  C   UNL     1       3.075   2.785  20.508  0.00  0.00    +0.000 C 
ENDBRANCH  28  30
ENDBRANCH  27  28
ENDBRANCH  26  27
ENDBRANCH   1  26
TORSDOF 7
ENDMDL
MODEL 7
REMARK VINA RESULT:      -8.6      2.675      4.551
REMARK  Name = 
REMARK  9 active torsions:
REMARK  status: ('A' for Active; 'I' for Inactive)
REMARK    1  A    between atoms: C_1  and  N_2
REMARK    2  A    between atoms: N_2  and  C_3
REMARK    3  A    between atoms: N_2  and  C_4
REMARK    4  A    between atoms: C_4  and  C_5
REMARK    5  A    between atoms: C_5  and  C_6
REMARK    6  A    between atoms: C_6  and  C_7
REMARK    7  A    between atoms: C_7  and  C_8
REMARK    8  A    between atoms: C_19  and  C_20
REMARK    9  A    between atoms: C_21  and  C_22
REMARK                            x       y       z     vdW  Elec       q    Type
REMARK                         _______ _______ _______ _____ _____    ______ ____
ROOT
ATOM      1  C   UNL     1       6.005   5.365  17.381  0.00  0.00    +0.000 C 
ATOM      2  O   UNL     1       6.625   4.406  18.292  0.00  0.00    +0.000 OA
ATOM      3  C   UNL     1       7.637   5.038  19.102  0.00  0.00    +0.000 C 
ATOM      4  C   UNL     1       7.717   6.435  18.619  0.00  0.00    +0.000 A 
ATOM      5  C   UNL     1       8.542   7.461  19.062  0.00  0.00    +0.000 A 
ATOM      6  C   UNL     1       8.422   8.727  18.477  0.00  0.00    +0.000 A 
ATOM      7  C   UNL     1       7.444   8.936  17.488  0.00  0.00    +0.000 A 
ATOM      8  C   UNL     1       6.615   7.897  17.063  0.00  0.00    +0.000 A 
ATOM      9  C   UNL     1       6.774   6.639  17.625  0.00  0.00    +0.000 A 
ENDROOT
BRANCH   1  10
ATOM     10  C   UNL     1       6.125   4.863  15.933  0.00  0.00    +0.000 A 
ATOM     11  C   UNL     1       5.060   4.176  15.312  0.00  0.00    +0.000 A 
ATOM     12  C   UNL     1       5.142   3.760  13.981  0.00  0.00    +0.000 A 
ATOM     13  C   UNL     1       6.302   4.000  13.262  0.00  0.00    +0.000 A 
ATOM     14  F   UNL     1       6.378   3.608  11.983  0.00  0.00    +0.000 F 
ATOM     15  C   UNL     1       7.384   4.637  13.851  0.00  0.00    +0.000 A 
ATOM     16  C   UNL     1       7.296   5.068  15.178  0.00  0.00    +0.000 A 
ENDBRANCH   1  10
BRANCH   6  17
ATOM     17  C   UNL     1       9.235   9.881  18.885  0.00  0.00    +0.000 C 
ATOM     18  C   UNL     1       9.344  11.028  18.193  0.00  0.00    +0.000 C 
BRANCH  18  19
ATOM     19  C   UNL     1      10.110  12.192  18.662  0.00  0.00    +0.000 A 
ATOM     20  C   UNL     1      11.511  12.202  18.716  0.00  0.00    +0.000 A 
ATOM     21  C   UNL     1      12.199  13.326  19.180  0.00  0.00    +0.000 A 
ATOM     22  C   UNL     1      11.488  14.453  19.580  0.00  0.00    +0.000 A 
ATOM     23 CL   UNL     1      12.330  15.835  20.161  0.00  0.00    +0.000 Cl
ATOM     24  C   UNL     1      10.097  14.470  19.510  0.00  0.00    +0.000 A 
ATOM     25  C   UNL     1       9.410  13.344  19.048  0.00  0.00    +0.000 A 
ENDBRANCH  18  19
ENDBRANCH   6  17
BRANCH   1  26
ATOM     26  C   UNL     1       4.541   5.543  17.840  0.00  0.00    +0.000 C 
BRANCH  26  27
ATOM     27  C   UNL     1       4.108   4.532  18.912  0.00  0.00    +0.000 C 
BRANCH  27  28
ATOM     28  C   UNL     1       2.984   3.613  18.415  0.00  0.00    +0.000 C 
BRANCH  28  30
ATOM     29  C   UNL     1       1.465   4.347  20.176  0.00  0.00    +0.000 C 
ATOM     30  N   UNL     1       2.040   3.201  19.469  0.00  0.00    +0.000 NA
ATOM     31  C   UNL     1       0.972   2.381  18.893  0.00  0.00    +0.000 C 
ENDBRANCH  28  30
ENDBRANCH  27  28
ENDBRANCH  26  27
ENDBRANCH   1  26
TORSDOF 7
ENDMDL
MODEL 8
REMARK VINA RESULT:      -8.5      5.695      7.809
REMARK  Name = 
REMARK  9 active torsions:
REMARK  status: ('A' for Active; 'I' for Inactive)
REMARK    1  A    between atoms: C_1  and  N_2
REMARK    2  A    between atoms: N_2  and  C_3
REMARK    3  A    between atoms: N_2  and  C_4
REMARK    4  A    between atoms: C_4  and  C_5
REMARK    5  A    between atoms: C_5  and  C_6
REMARK    6  A    between atoms: C_6  and  C_7
REMARK    7  A    between atoms: C_7  and  C_8
REMARK    8  A    between atoms: C_19  and  C_20
REMARK    9  A    between atoms: C_21  and  C_22
REMARK                            x       y       z     vdW  Elec       q    Type
REMARK                         _______ _______ _______ _____ _____    ______ ____
ROOT
ATOM      1  C   UNL     1       4.763   3.907  17.586  0.00  0.00    +0.000 C 
ATOM      2  O   UNL     1       5.682   3.786  18.716  0.00  0.00    +0.000 OA
ATOM      3  C   UNL     1       5.348   4.723  19.760  0.00  0.00    +0.000 C 
ATOM      4  C   UNL     1       4.226   5.528  19.228  0.00  0.00    +0.000 A 
ATOM      5  C   UNL     1       3.541   6.572  19.837  0.00  0.00    +0.000 A 
ATOM      6  C   UNL     1       2.477   7.174  19.153  0.00  0.00    +0.000 A 
ATOM      7  C   UNL     1       2.106   6.680  17.889  0.00  0.00    +0.000 A 
ATOM      8  C   UNL     1       2.798   5.622  17.297  0.00  0.00    +0.000 A 
ATOM      9  C   UNL     1       3.874   5.064  17.971  0.00  0.00    +0.000 A 
ENDROOT
BRANCH   1  10
ATOM     10  C   UNL     1       5.555   4.167  16.295  0.00  0.00    +0.000 A 
ATOM     11  C   UNL     1       5.062   3.744  15.042  0.00  0.00    +0.000 A 
ATOM     12  C   UNL     1       5.750   4.019  13.859  0.00  0.00    +0.000 A 
ATOM     13  C   UNL     1       6.957   4.698  13.915  0.00  0.00    +0.000 A 
ATOM     14  F   UNL     1       7.614   4.970  12.779  0.00  0.00    +0.000 F 
ATOM     15  C   UNL     1       7.493   5.096  15.131  0.00  0.00    +0.000 A 
ATOM     16  C   UNL     1       6.796   4.834  16.314  0.00  0.00    +0.000 A 
ENDBRANCH   1  10
BRANCH   6  17
ATOM     17  C   UNL     1       1.680   8.273  19.715  0.00  0.00    +0.000 C 
ATOM     18  C   UNL     1       1.226   8.324  20.979  0.00  0.00    +0.000 C 
BRANCH  18  19
ATOM     19  C   UNL     1       0.490   9.470  21.533  0.00  0.00    +0.000 A 
ATOM     20  C   UNL     1       0.553  10.752  20.969  0.00  0.00    +0.000 A 
ATOM     21  C   UNL     1      -0.153  11.816  21.536  0.00  0.00    +0.000 A 
ATOM     22  C   UNL     1      -0.940  11.599  22.663  0.00  0.00    +0.000 A 
ATOM     23 CL   UNL     1      -1.804  12.908  23.368  0.00  0.00    +0.000 Cl
ATOM     24  C   UNL     1      -1.035  10.328  23.222  0.00  0.00    +0.000 A 
ATOM     25  C   UNL     1      -0.325   9.265  22.657  0.00  0.00    +0.000 A 
ENDBRANCH  18  19
ENDBRANCH   6  17
BRANCH   1  26
ATOM     26  C   UNL     1       3.934   2.606  17.536  0.00  0.00    +0.000 C 
BRANCH  26  27
ATOM     27  C   UNL     1       3.641   2.012  18.921  0.00  0.00    +0.000 C 
BRANCH  27  28
ATOM     28  C   UNL     1       2.183   2.235  19.346  0.00  0.00    +0.000 C 
BRANCH  28  30
ATOM     29  C   UNL     1       0.802   4.022  20.266  0.00  0.00    +0.000 C 
ATOM     30  N   UNL     1       2.020   3.225  20.426  0.00  0.00    +0.000 NA
ATOM     31  C   UNL     1       2.011   2.552  21.726  0.00  0.00    +0.000 C 
ENDBRANCH  28  30
ENDBRANCH  27  28
ENDBRANCH  26  27
ENDBRANCH   1  26
TORSDOF 7
ENDMDL
MODEL 9
REMARK VINA RESULT:      -8.4      7.296      8.294
REMARK  Name = 
REMARK  9 active torsions:
REMARK  status: ('A' for Active; 'I' for Inactive)
REMARK    1  A    between atoms: C_1  and  N_2
REMARK    2  A    between atoms: N_2  and  C_3
REMARK    3  A    between atoms: N_2  and  C_4
REMARK    4  A    between atoms: C_4  and  C_5
REMARK    5  A    between atoms: C_5  and  C_6
REMARK    6  A    between atoms: C_6  and  C_7
REMARK    7  A    between atoms: C_7  and  C_8
REMARK    8  A    between atoms: C_19  and  C_20
REMARK    9  A    between atoms: C_21  and  C_22
REMARK                            x       y       z     vdW  Elec       q    Type
REMARK                         _______ _______ _______ _____ _____    ______ ____
ROOT
ATOM      1  C   UNL     1       2.815   6.513  19.029  0.00  0.00    +0.000 C 
ATOM      2  O   UNL     1       2.962   7.068  17.685  0.00  0.00    +0.000 OA
ATOM      3  C   UNL     1       2.365   8.378  17.595  0.00  0.00    +0.000 C 
ATOM      4  C   UNL     1       1.740   8.620  18.914  0.00  0.00    +0.000 A 
ATOM      5  C   UNL     1       1.029   9.733  19.347  0.00  0.00    +0.000 A 
ATOM      6  C   UNL     1       0.552   9.763  20.663  0.00  0.00    +0.000 A 
ATOM      7  C   UNL     1       0.839   8.685  21.522  0.00  0.00    +0.000 A 
ATOM      8  C   UNL     1       1.564   7.581  21.074  0.00  0.00    +0.000 A 
ATOM      9  C   UNL     1       1.996   7.550  19.756  0.00  0.00    +0.000 A 
ENDROOT
BRANCH   1  10
ATOM     10  C   UNL     1       2.117   5.146  18.955  0.00  0.00    +0.000 A 
ATOM     11  C   UNL     1       2.003   4.453  17.731  0.00  0.00    +0.000 A 
ATOM     12  C   UNL     1       1.415   3.188  17.663  0.00  0.00    +0.000 A 
ATOM     13  C   UNL     1       0.906   2.611  18.816  0.00  0.00    +0.000 A 
ATOM     14  F   UNL     1       0.349   1.394  18.753  0.00  0.00    +0.000 F 
ATOM     15  C   UNL     1       0.964   3.279  20.030  0.00  0.00    +0.000 A 
ATOM     16  C   UNL     1       1.567   4.538  20.101  0.00  0.00    +0.000 A 
ENDBRANCH   1  10
BRANCH   6  17
ATOM     17  C   UNL     1      -0.195  10.898  21.222  0.00  0.00    +0.000 C 
ATOM     18  C   UNL     1      -0.860  10.880  22.389  0.00  0.00    +0.000 C 
BRANCH  18  19
ATOM     19  C   UNL     1      -1.540  12.054  22.956  0.00  0.00    +0.000 A 
ATOM     20  C   UNL     1      -2.853  12.002  23.449  0.00  0.00    +0.000 A 
ATOM     21  C   UNL     1      -3.466  13.145  23.968  0.00  0.00    +0.000 A 
ATOM     22  C   UNL     1      -2.762  14.346  24.011  0.00  0.00    +0.000 A 
ATOM     23 CL   UNL     1      -3.517  15.757  24.641  0.00  0.00    +0.000 Cl
ATOM     24  C   UNL     1      -1.451  14.410  23.550  0.00  0.00    +0.000 A 
ATOM     25  C   UNL     1      -0.839  13.267  23.027  0.00  0.00    +0.000 A 
ENDBRANCH  18  19
ENDBRANCH   6  17
BRANCH   1  26
ATOM     26  C   UNL     1       4.229   6.439  19.644  0.00  0.00    +0.000 C 
BRANCH  26  27
ATOM     27  C   UNL     1       5.053   5.244  19.144  0.00  0.00    +0.000 C 
BRANCH  27  28
ATOM     28  C   UNL     1       6.480   5.653  18.752  0.00  0.00    +0.000 C 
BRANCH  28  30
ATOM     29  C   UNL     1       7.539   7.468  17.515  0.00  0.00    +0.000 C 
ATOM     30  N   UNL     1       6.564   6.376  17.471  0.00  0.00    +0.000 NA
ATOM     31  C   UNL     1       6.902   5.446  16.392  0.00  0.00    +0.000 C 
ENDBRANCH  28  30
ENDBRANCH  27  28
ENDBRANCH  26  27
ENDBRANCH   1  26
TORSDOF 7
ENDMDL
