MODEL 1
REMARK VINA RESULT:      -8.5      0.000      0.000
REMARK  Name = 
REMARK  15 active torsions:
REMARK  status: ('A' for Active; 'I' for Inactive)
REMARK    1  A    between atoms: C_1  and  O_2
REMARK    2  A    between atoms: O_2  and  C_3
REMARK    3  A    between atoms: C_9  and  C_10
REMARK    4  A    between atoms: C_10  and  N_11
REMARK    5  A    between atoms: N_11  and  C_12
REMARK    6  A    between atoms: C_12  and  C_13
REMARK    7  A    between atoms: C_13  and  C_14
REMARK    8  A    between atoms: C_14  and  N_15
REMARK    9  A    between atoms: N_15  and  C_16
REMARK   10  A    between atoms: C_22  and  O_23
REMARK   11  A    between atoms: O_23  and  C_24
REMARK   12  A    between atoms: C_27  and  C_28
REMARK   13  A    between atoms: C_28  and  C_29
REMARK   14  A    between atoms: C_28  and  C_30
REMARK   15  A    between atoms: C_28  and  C_31
REMARK                            x       y       z     vdW  Elec       q    Type
REMARK                         _______ _______ _______ _____ _____    ______ ____
ROOT
ATOM      1  C   UNL     1       2.111   7.062  19.867  0.00  0.00    +0.000 A 
ATOM      2  C   UNL     1       2.428   7.050  18.507  0.00  0.00    +0.000 A 
ATOM      3  C   UNL     1       2.267   8.205  17.766  0.00  0.00    +0.000 A 
ATOM      4  N   UNL     1       1.799   9.365  18.267  0.00  0.00    +0.000 NA
ATOM      5  C   UNL     1       1.429   9.390  19.551  0.00  0.00    +0.000 A 
ATOM      6  C   UNL     1       0.936  10.582  20.070  0.00  0.00    +0.000 A 
ATOM      7  C   UNL     1       0.510  10.690  21.394  0.00  0.00    +0.000 A 
ATOM      8  C   UNL     1       0.508   9.554  22.199  0.00  0.00    +0.000 A 
ATOM      9  C   UNL     1       1.057   8.366  21.727  0.00  0.00    +0.000 A 
ATOM     10  C   UNL     1       1.533   8.251  20.399  0.00  0.00    +0.000 A 
ENDROOT
BRANCH   1  11
ATOM     11  N   UNL     1       2.261   5.906  20.658  0.00  0.00    +0.000 N 
ATOM     12  H   UNL     1       3.181   5.835  21.081  0.00  0.00    +0.000 HD
BRANCH  11  13
ATOM     13  C   UNL     1       1.797   4.598  20.190  0.00  0.00    +0.000 C 
BRANCH  13  14
ATOM     14  C   UNL     1       2.811   3.486  20.467  0.00  0.00    +0.000 C 
BRANCH  14  15
ATOM     15  C   UNL     1       2.804   2.444  19.344  0.00  0.00    +0.000 C 
BRANCH  15  16
ATOM     16  N   UNL     1       4.074   2.507  18.627  0.00  0.00    +0.000 NA
ATOM     17  H   UNL     1       4.818   2.803  19.261  0.00  0.00    +0.000 HD
BRANCH  16  18
ATOM     18  C   UNL     1       4.032   3.450  17.505  0.00  0.00    +0.000 C 
BRANCH  18  25
ATOM     19  C   UNL     1       5.821   4.923  16.393  0.00  0.00    +0.000 A 
ATOM     20  C   UNL     1       6.910   5.798  16.517  0.00  0.00    +0.000 A 
ATOM     21  C   UNL     1       7.449   6.090  17.771  0.00  0.00    +0.000 A 
ATOM     22  C   UNL     1       6.898   5.510  18.903  0.00  0.00    +0.000 A 
ATOM     23  F   UNL     1       7.417   5.788  20.106  0.00  0.00    +0.000 F 
ATOM     24  C   UNL     1       5.812   4.654  18.804  0.00  0.00    +0.000 A 
ATOM     25  C   UNL     1       5.243   4.361  17.549  0.00  0.00    +0.000 A 
BRANCH  19  27
ATOM     26  C   UNL     1       6.108   4.022  14.215  0.00  0.00    +0.000 C 
ATOM     27  O   UNL     1       5.244   4.597  15.192  0.00  0.00    +0.000 OA
ENDBRANCH  19  27
ENDBRANCH  18  25
ENDBRANCH  16  18
ENDBRANCH  15  16
ENDBRANCH  14  15
ENDBRANCH  13  14
ENDBRANCH  11  13
ENDBRANCH   1  11
BRANCH   7  28
ATOM     28  O   UNL     1       0.093  11.927  21.843  0.00  0.00    +0.000 OA
BRANCH  28  29
ATOM     29  C   UNL     1      -1.265  12.172  21.897  0.00  0.00    +0.000 A 
ATOM     30  C   UNL     1      -2.031  12.464  20.770  0.00  0.00    +0.000 A 
ATOM     31  C   UNL     1      -3.374  12.812  20.892  0.00  0.00    +0.000 A 
ATOM     32  C   UNL     1      -4.028  12.786  22.133  0.00  0.00    +0.000 A 
ATOM     33  C   UNL     1      -3.260  12.408  23.254  0.00  0.00    +0.000 A 
ATOM     34  C   UNL     1      -1.892  12.110  23.139  0.00  0.00    +0.000 A 
BRANCH  32  35
ATOM     35  C   UNL     1      -5.531  13.093  22.250  0.00  0.00    +0.000 C 
ATOM     36  C   UNL     1      -5.866  14.585  22.006  0.00  0.00    +0.000 C 
ATOM     37  C   UNL     1      -6.295  12.273  21.191  0.00  0.00    +0.000 C 
ATOM     38  C   UNL     1      -6.067  12.736  23.651  0.00  0.00    +0.000 C 
ENDBRANCH  32  35
ENDBRANCH  28  29
ENDBRANCH   7  28
TORSDOF 11
ENDMDL
MODEL 2
REMARK VINA RESULT:      -8.4      1.781      2.379
REMARK  Name = 
REMARK  15 active torsions:
REMARK  status: ('A' for Active; 'I' for Inactive)
REMARK    1  A    between atoms: C_1  and  O_2
REMARK    2  A    between atoms: O_2  and  C_3
REMARK    3  A    between atoms: C_9  and  C_10
REMARK    4  A    between atoms: C_10  and  N_11
REMARK    5  A    between atoms: N_11  and  C_12
REMARK    6  A    between atoms: C_12  and  C_13
REMARK    7  A    between atoms: C_13  and  C_14
REMARK    8  A    between atoms: C_14  and  N_15
REMARK    9  A    between atoms: N_15  and  C_16
REMARK   10  A    between atoms: C_22  and  O_23
REMARK   11  A    between atoms: O_23  and  C_24
REMARK   12  A    between atoms: C_27  and  C_28
REMARK   13  A    between atoms: C_28  and  C_29
REMARK   14  A    between atoms: C_28  and  C_30
REMARK   15  A    between atoms: C_28  and  C_31
REMARK                            x       y       z     vdW  Elec       q    Type
REMARK                         _______ _______ _______ _____ _____    ______ ____
ROOT
ATOM      1  C   UNL     1       2.263   7.151  19.653  0.00  0.00    +0.000 A 
ATOM      2  C   UNL     1       2.848   6.837  18.426  0.00  0.00    +0.000 A 
ATOM      3  C   UNL     1       2.861   7.786  17.421  0.00  0.00    +0.000 A 
ATOM      4  N   UNL     1       2.322   9.015  17.537  0.00  0.00    +0.000 NA
ATOM      5  C   UNL     1       1.700   9.323  18.679  0.00  0.00    +0.000 A 
ATOM      6  C   UNL     1       1.133  10.587  18.798  0.00  0.00    +0.000 A 
ATOM      7  C   UNL     1       0.449  10.982  19.948  0.00  0.00    +0.000 A 
ATOM      8  C   UNL     1       0.264  10.062  20.976  0.00  0.00    +0.000 A 
ATOM      9  C   UNL     1       0.877   8.814  20.911  0.00  0.00    +0.000 A 
ATOM     10  C   UNL     1       1.610   8.413  19.770  0.00  0.00    +0.000 A 
ENDROOT
BRANCH   1  11
ATOM     11  N   UNL     1       2.229   6.212  20.703  0.00  0.00    +0.000 N 
ATOM     12  H   UNL     1       3.153   5.984  21.058  0.00  0.00    +0.000 HD
BRANCH  11  13
ATOM     13  C   UNL     1       1.387   5.017  20.628  0.00  0.00    +0.000 C 
BRANCH  13  14
ATOM     14  C   UNL     1       2.200   3.746  20.369  0.00  0.00    +0.000 C 
BRANCH  14  15
ATOM     15  C   UNL     1       1.992   3.243  18.938  0.00  0.00    +0.000 C 
BRANCH  15  16
ATOM     16  N   UNL     1       3.267   2.767  18.409  0.00  0.00    +0.000 NA
ATOM     17  H   UNL     1       3.394   1.781  18.641  0.00  0.00    +0.000 HD
BRANCH  16  18
ATOM     18  C   UNL     1       4.406   3.512  18.954  0.00  0.00    +0.000 C 
BRANCH  18  25
ATOM     19  C   UNL     1       6.334   4.949  18.045  0.00  0.00    +0.000 A 
ATOM     20  C   UNL     1       7.042   5.463  16.949  0.00  0.00    +0.000 A 
ATOM     21  C   UNL     1       6.609   5.218  15.645  0.00  0.00    +0.000 A 
ATOM     22  C   UNL     1       5.470   4.458  15.434  0.00  0.00    +0.000 A 
ATOM     23  F   UNL     1       5.053   4.226  14.182  0.00  0.00    +0.000 F 
ATOM     24  C   UNL     1       4.764   3.928  16.503  0.00  0.00    +0.000 A 
ATOM     25  C   UNL     1       5.195   4.149  17.826  0.00  0.00    +0.000 A 
BRANCH  19  27
ATOM     26  C   UNL     1       7.995   5.727  19.554  0.00  0.00    +0.000 C 
ATOM     27  O   UNL     1       6.707   5.150  19.349  0.00  0.00    +0.000 OA
ENDBRANCH  19  27
ENDBRANCH  18  25
ENDBRANCH  16  18
ENDBRANCH  15  16
ENDBRANCH  14  15
ENDBRANCH  13  14
ENDBRANCH  11  13
ENDBRANCH   1  11
BRANCH   7  28
ATOM     28  O   UNL     1      -0.028  12.277  20.006  0.00  0.00    +0.000 OA
BRANCH  28  29
ATOM     29  C   UNL     1      -0.949  12.583  20.990  0.00  0.00    +0.000 A 
ATOM     30  C   UNL     1      -2.314  12.339  20.855  0.00  0.00    +0.000 A 
ATOM     31  C   UNL     1      -3.213  12.768  21.829  0.00  0.00    +0.000 A 
ATOM     32  C   UNL     1      -2.774  13.368  23.019  0.00  0.00    +0.000 A 
ATOM     33  C   UNL     1      -1.382  13.534  23.177  0.00  0.00    +0.000 A 
ATOM     34  C   UNL     1      -0.479  13.151  22.171  0.00  0.00    +0.000 A 
BRANCH  32  35
ATOM     35  C   UNL     1      -3.766  13.766  24.126  0.00  0.00    +0.000 C 
ATOM     36  C   UNL     1      -4.960  14.600  23.600  0.00  0.00    +0.000 C 
ATOM     37  C   UNL     1      -4.346  12.488  24.764  0.00  0.00    +0.000 C 
ATOM     38  C   UNL     1      -3.075  14.609  25.217  0.00  0.00    +0.000 C 
ENDBRANCH  32  35
ENDBRANCH  28  29
ENDBRANCH   7  28
TORSDOF 11
ENDMDL
MODEL 3
REMARK VINA RESULT:      -8.2      1.582      2.206
REMARK  Name = 
REMARK  15 active torsions:
REMARK  status: ('A' for Active; 'I' for Inactive)
REMARK    1  A    between atoms: C_1  and  O_2
REMARK    2  A    between atoms: O_2  and  C_3
REMARK    3  A    between atoms: C_9  and  C_10
REMARK    4  A    between atoms: C_10  and  N_11
REMARK    5  A    between atoms: N_11  and  C_12
REMARK    6  A    between atoms: C_12  and  C_13
REMARK    7  A    between atoms: C_13  and  C_14
REMARK    8  A    between atoms: C_14  and  N_15
REMARK    9  A    between atoms: N_15  and  C_16
REMARK   10  A    between atoms: C_22  and  O_23
REMARK   11  A    between atoms: O_23  and  C_24
REMARK   12  A    between atoms: C_27  and  C_28
REMARK   13  A    between atoms: C_28  and  C_29
REMARK   14  A    between atoms: C_28  and  C_30
REMARK   15  A    between atoms: C_28  and  C_31
REMARK                            x       y       z     vdW  Elec       q    Type
REMARK                         _______ _______ _______ _____ _____    ______ ____
ROOT
ATOM      1  C   UNL     1       2.097   6.696  20.030  0.00  0.00    +0.000 A 
ATOM      2  C   UNL     1       2.542   6.512  18.720  0.00  0.00    +0.000 A 
ATOM      3  C   UNL     1       2.513   7.578  17.841  0.00  0.00    +0.000 A 
ATOM      4  N   UNL     1       2.059   8.806  18.158  0.00  0.00    +0.000 NA
ATOM      5  C   UNL     1       1.569   8.996  19.387  0.00  0.00    +0.000 A 
ATOM      6  C   UNL     1       1.090  10.259  19.715  0.00  0.00    +0.000 A 
ATOM      7  C   UNL     1       0.544  10.538  20.968  0.00  0.00    +0.000 A 
ATOM      8  C   UNL     1       0.406   9.505  21.891  0.00  0.00    +0.000 A 
ATOM      9  C   UNL     1       0.937   8.249  21.614  0.00  0.00    +0.000 A 
ATOM     10  C   UNL     1       1.532   7.961  20.364  0.00  0.00    +0.000 A 
ENDROOT
BRANCH   1  11
ATOM     11  N   UNL     1       2.111   5.635  20.957  0.00  0.00    +0.000 N 
ATOM     12  H   UNL     1       2.972   5.591  21.493  0.00  0.00    +0.000 HD
BRANCH  11  13
ATOM     13  C   UNL     1       1.657   4.294  20.585  0.00  0.00    +0.000 C 
BRANCH  13  14
ATOM     14  C   UNL     1       2.800   3.275  20.566  0.00  0.00    +0.000 C 
BRANCH  14  15
ATOM     15  C   UNL     1       2.811   2.488  19.253  0.00  0.00    +0.000 C 
BRANCH  15  16
ATOM     16  N   UNL     1       4.157   2.524  18.687  0.00  0.00    +0.000 NA
ATOM     17  H   UNL     1       4.756   1.851  19.169  0.00  0.00    +0.000 HD
BRANCH  16  18
ATOM     18  C   UNL     1       4.774   3.848  18.808  0.00  0.00    +0.000 C 
BRANCH  18  25
ATOM     19  C   UNL     1       6.890   4.553  17.530  0.00  0.00    +0.000 A 
ATOM     20  C   UNL     1       7.535   4.801  16.309  0.00  0.00    +0.000 A 
ATOM     21  C   UNL     1       6.834   4.720  15.105  0.00  0.00    +0.000 A 
ATOM     22  C   UNL     1       5.488   4.389  15.118  0.00  0.00    +0.000 A 
ATOM     23  F   UNL     1       4.815   4.314  13.963  0.00  0.00    +0.000 F 
ATOM     24  C   UNL     1       4.835   4.126  16.313  0.00  0.00    +0.000 A 
ATOM     25  C   UNL     1       5.530   4.184  17.536  0.00  0.00    +0.000 A 
BRANCH  19  27
ATOM     26  C   UNL     1       7.942   5.906  19.173  0.00  0.00    +0.000 C 
ATOM     27  O   UNL     1       7.521   4.613  18.745  0.00  0.00    +0.000 OA
ENDBRANCH  19  27
ENDBRANCH  18  25
ENDBRANCH  16  18
ENDBRANCH  15  16
ENDBRANCH  14  15
ENDBRANCH  13  14
ENDBRANCH  11  13
ENDBRANCH   1  11
BRANCH   7  28
ATOM     28  O   UNL     1       0.150  11.835  21.230  0.00  0.00    +0.000 OA
BRANCH  28  29
ATOM     29  C   UNL     1      -1.200  12.126  21.170  0.00  0.00    +0.000 A 
ATOM     30  C   UNL     1      -1.919  12.152  19.977  0.00  0.00    +0.000 A 
ATOM     31  C   UNL     1      -3.251  12.559  19.959  0.00  0.00    +0.000 A 
ATOM     32  C   UNL     1      -3.943  12.861  21.141  0.00  0.00    +0.000 A 
ATOM     33  C   UNL     1      -3.223  12.751  22.350  0.00  0.00    +0.000 A 
ATOM     34  C   UNL     1      -1.864  12.392  22.365  0.00  0.00    +0.000 A 
BRANCH  32  35
ATOM     35  C   UNL     1      -5.436  13.232  21.121  0.00  0.00    +0.000 C 
ATOM     36  C   UNL     1      -6.368  12.005  21.273  0.00  0.00    +0.000 C 
ATOM     37  C   UNL     1      -5.733  14.181  22.300  0.00  0.00    +0.000 C 
ATOM     38  C   UNL     1      -5.821  13.928  19.800  0.00  0.00    +0.000 C 
ENDBRANCH  32  35
ENDBRANCH  28  29
ENDBRANCH   7  28
TORSDOF 11
ENDMDL
MODEL 4
REMARK VINA RESULT:      -8.2      1.508      2.248
REMARK  Name = 
REMARK  15 active torsions:
REMARK  status: ('A' for Active; 'I' for Inactive)
REMARK    1  A    between atoms: C_1  and  O_2
REMARK    2  A    between atoms: O_2  and  C_3
REMARK    3  A    between atoms: C_9  and  C_10
REMARK    4  A    between atoms: C_10  and  N_11
REMARK    5  A    between atoms: N_11  and  C_12
REMARK    6  A    between atoms: C_12  and  C_13
REMARK    7  A    between atoms: C_13  and  C_14
REMARK    8  A    between atoms: C_14  and  N_15
REMARK    9  A    between atoms: N_15  and  C_16
REMARK   10  A    between atoms: C_22  and  O_23
REMARK   11  A    between atoms: O_23  and  C_24
REMARK   12  A    between atoms: C_27  and  C_28
REMARK   13  A    between atoms: C_28  and  C_29
REMARK   14  A    between atoms: C_28  and  C_30
REMARK   15  A    between atoms: C_28  and  C_31
REMARK                            x       y       z     vdW  Elec       q    Type
REMARK                         _______ _______ _______ _____ _____    ______ ____
ROOT
ATOM      1  C   UNL     1       2.019   7.093  19.893  0.00  0.00    +0.000 A 
ATOM      2  C   UNL     1       2.326   7.096  18.531  0.00  0.00    +0.000 A 
ATOM      3  C   UNL     1       2.193   8.268  17.812  0.00  0.00    +0.000 A 
ATOM      4  N   UNL     1       1.762   9.432  18.337  0.00  0.00    +0.000 NA
ATOM      5  C   UNL     1       1.402   9.444  19.624  0.00  0.00    +0.000 A 
ATOM      6  C   UNL     1       0.947  10.641  20.167  0.00  0.00    +0.000 A 
ATOM      7  C   UNL     1       0.533  10.737  21.495  0.00  0.00    +0.000 A 
ATOM      8  C   UNL     1       0.504   9.588  22.280  0.00  0.00    +0.000 A 
ATOM      9  C   UNL     1       1.015   8.393  21.783  0.00  0.00    +0.000 A 
ATOM     10  C   UNL     1       1.479   8.288  20.451  0.00  0.00    +0.000 A 
ENDROOT
BRANCH   1  11
ATOM     11  N   UNL     1       2.141   5.919  20.663  0.00  0.00    +0.000 N 
ATOM     12  H   UNL     1       3.096   5.581  20.717  0.00  0.00    +0.000 HD
BRANCH  11  13
ATOM     13  C   UNL     1       1.200   4.807  20.509  0.00  0.00    +0.000 C 
BRANCH  13  14
ATOM     14  C   UNL     1       1.908   3.476  20.248  0.00  0.00    +0.000 C 
BRANCH  14  15
ATOM     15  C   UNL     1       3.424   3.618  20.415  0.00  0.00    +0.000 C 
BRANCH  15  16
ATOM     16  N   UNL     1       4.083   3.174  19.189  0.00  0.00    +0.000 NA
ATOM     17  H   UNL     1       5.096   3.182  19.315  0.00  0.00    +0.000 HD
BRANCH  16  18
ATOM     18  C   UNL     1       3.760   4.031  18.045  0.00  0.00    +0.000 C 
BRANCH  18  25
ATOM     19  C   UNL     1       6.237   4.608  17.668  0.00  0.00    +0.000 A 
ATOM     20  C   UNL     1       7.336   4.696  16.800  0.00  0.00    +0.000 A 
ATOM     21  C   UNL     1       7.193   4.417  15.441  0.00  0.00    +0.000 A 
ATOM     22  C   UNL     1       5.952   4.049  14.945  0.00  0.00    +0.000 A 
ATOM     23  F   UNL     1       5.815   3.784  13.639  0.00  0.00    +0.000 F 
ATOM     24  C   UNL     1       4.856   3.942  15.787  0.00  0.00    +0.000 A 
ATOM     25  C   UNL     1       4.984   4.202  17.165  0.00  0.00    +0.000 A 
BRANCH  19  27
ATOM     26  C   UNL     1       7.433   5.630  19.446  0.00  0.00    +0.000 C 
ATOM     27  O   UNL     1       6.310   4.866  19.012  0.00  0.00    +0.000 OA
ENDBRANCH  19  27
ENDBRANCH  18  25
ENDBRANCH  16  18
ENDBRANCH  15  16
ENDBRANCH  14  15
ENDBRANCH  13  14
ENDBRANCH  11  13
ENDBRANCH   1  11
BRANCH   7  28
ATOM     28  O   UNL     1       0.155  11.978  21.969  0.00  0.00    +0.000 OA
BRANCH  28  29
ATOM     29  C   UNL     1      -1.189  12.296  21.949  0.00  0.00    +0.000 A 
ATOM     30  C   UNL     1      -2.034  12.096  23.038  0.00  0.00    +0.000 A 
ATOM     31  C   UNL     1      -3.403  12.329  22.929  0.00  0.00    +0.000 A 
ATOM     32  C   UNL     1      -3.965  12.865  21.762  0.00  0.00    +0.000 A 
ATOM     33  C   UNL     1      -3.084  13.141  20.694  0.00  0.00    +0.000 A 
ATOM     34  C   UNL     1      -1.711  12.854  20.784  0.00  0.00    +0.000 A 
BRANCH  32  35
ATOM     35  C   UNL     1      -5.465  13.196  21.676  0.00  0.00    +0.000 C 
ATOM     36  C   UNL     1      -6.118  13.416  23.063  0.00  0.00    +0.000 C 
ATOM     37  C   UNL     1      -5.646  14.500  20.873  0.00  0.00    +0.000 C 
ATOM     38  C   UNL     1      -6.249  12.062  20.986  0.00  0.00    +0.000 C 
ENDBRANCH  32  35
ENDBRANCH  28  29
ENDBRANCH   7  28
TORSDOF 11
ENDMDL
MODEL 5
REMARK VINA RESULT:      -8.0      1.119      1.461
REMARK  Name = 
REMARK  15 active torsions:
REMARK  status: ('A' for Active; 'I' for Inactive)
REMARK    1  A    between atoms: C_1  and  O_2
REMARK    2  A    between atoms: O_2  and  C_3
REMARK    3  A    between atoms: C_9  and  C_10
REMARK    4  A    between atoms: C_10  and  N_11
REMARK    5  A    between atoms: N_11  and  C_12
REMARK    6  A    between atoms: C_12  and  C_13
REMARK    7  A    between atoms: C_13  and  C_14
REMARK    8  A    between atoms: C_14  and  N_15
REMARK    9  A    between atoms: N_15  and  C_16
REMARK   10  A    between atoms: C_22  and  O_23
REMARK   11  A    between atoms: O_23  and  C_24
REMARK   12  A    between atoms: C_27  and  C_28
REMARK   13  A    between atoms: C_28  and  C_29
REMARK   14  A    between atoms: C_28  and  C_30
REMARK   15  A    between atoms: C_28  and  C_31
REMARK                            x       y       z     vdW  Elec       q    Type
REMARK                         _______ _______ _______ _____ _____    ______ ____
ROOT
ATOM      1  C   UNL     1       2.326   7.070  19.574  0.00  0.00    +0.000 A 
ATOM      2  C   UNL     1       2.844   6.745  18.320  0.00  0.00    +0.000 A 
ATOM      3  C   UNL     1       2.822   7.692  17.314  0.00  0.00    +0.000 A 
ATOM      4  N   UNL     1       2.310   8.930  17.453  0.00  0.00    +0.000 NA
ATOM      5  C   UNL     1       1.751   9.250  18.625  0.00  0.00    +0.000 A 
ATOM      6  C   UNL     1       1.212  10.523  18.769  0.00  0.00    +0.000 A 
ATOM      7  C   UNL     1       0.593  10.931  19.951  0.00  0.00    +0.000 A 
ATOM      8  C   UNL     1       0.444  10.016  20.989  0.00  0.00    +0.000 A 
ATOM      9  C   UNL     1       1.031   8.758  20.896  0.00  0.00    +0.000 A 
ATOM     10  C   UNL     1       1.700   8.343  19.721  0.00  0.00    +0.000 A 
ENDROOT
BRANCH   1  11
ATOM     11  N   UNL     1       2.328   6.133  20.627  0.00  0.00    +0.000 N 
ATOM     12  H   UNL     1       3.257   5.781  20.838  0.00  0.00    +0.000 HD
BRANCH  11  13
ATOM     13  C   UNL     1       1.334   5.060  20.693  0.00  0.00    +0.000 C 
BRANCH  13  14
ATOM     14  C   UNL     1       1.324   4.195  19.431  0.00  0.00    +0.000 C 
BRANCH  14  15
ATOM     15  C   UNL     1       2.250   2.985  19.588  0.00  0.00    +0.000 C 
BRANCH  15  16
ATOM     16  N   UNL     1       3.638   3.433  19.514  0.00  0.00    +0.000 NA
ATOM     17  H   UNL     1       3.702   4.414  19.792  0.00  0.00    +0.000 HD
BRANCH  16  18
ATOM     18  C   UNL     1       4.190   3.307  18.161  0.00  0.00    +0.000 C 
BRANCH  18  25
ATOM     19  C   UNL     1       5.686   4.816  16.716  0.00  0.00    +0.000 A 
ATOM     20  C   UNL     1       6.720   5.760  16.628  0.00  0.00    +0.000 A 
ATOM     21  C   UNL     1       7.419   6.158  17.768  0.00  0.00    +0.000 A 
ATOM     22  C   UNL     1       7.086   5.614  18.998  0.00  0.00    +0.000 A 
ATOM     23  F   UNL     1       7.760   5.994  20.092  0.00  0.00    +0.000 F 
ATOM     24  C   UNL     1       6.058   4.690  19.110  0.00  0.00    +0.000 A 
ATOM     25  C   UNL     1       5.329   4.291  17.974  0.00  0.00    +0.000 A 
BRANCH  19  27
ATOM     26  C   UNL     1       5.656   4.322  14.394  0.00  0.00    +0.000 C 
ATOM     27  O   UNL     1       4.960   4.386  15.636  0.00  0.00    +0.000 OA
ENDBRANCH  19  27
ENDBRANCH  18  25
ENDBRANCH  16  18
ENDBRANCH  15  16
ENDBRANCH  14  15
ENDBRANCH  13  14
ENDBRANCH  11  13
ENDBRANCH   1  11
BRANCH   7  28
ATOM     28  O   UNL     1       0.141  12.234  20.030  0.00  0.00    +0.000 OA
BRANCH  28  29
ATOM     29  C   UNL     1      -0.810  12.532  20.987  0.00  0.00    +0.000 A 
ATOM     30  C   UNL     1      -2.161  12.227  20.838  0.00  0.00    +0.000 A 
ATOM     31  C   UNL     1      -3.094  12.648  21.782  0.00  0.00    +0.000 A 
ATOM     32  C   UNL     1      -2.703  13.302  22.960  0.00  0.00    +0.000 A 
ATOM     33  C   UNL     1      -1.321  13.530  23.137  0.00  0.00    +0.000 A 
ATOM     34  C   UNL     1      -0.385  13.154  22.159  0.00  0.00    +0.000 A 
BRANCH  32  35
ATOM     35  C   UNL     1      -3.730  13.692  24.037  0.00  0.00    +0.000 C 
ATOM     36  C   UNL     1      -3.135  14.600  25.141  0.00  0.00    +0.000 C 
ATOM     37  C   UNL     1      -4.881  14.473  23.373  0.00  0.00    +0.000 C 
ATOM     38  C   UNL     1      -4.302  12.445  24.741  0.00  0.00    +0.000 C 
ENDBRANCH  32  35
ENDBRANCH  28  29
ENDBRANCH   7  28
TORSDOF 11
ENDMDL
MODEL 6
REMARK VINA RESULT:      -7.9      0.877      1.253
REMARK  Name = 
REMARK  15 active torsions:
REMARK  status: ('A' for Active; 'I' for Inactive)
REMARK    1  A    between atoms: C_1  and  O_2
REMARK    2  A    between atoms: O_2  and  C_3
REMARK    3  A    between atoms: C_9  and  C_10
REMARK    4  A    between atoms: C_10  and  N_11
REMARK    5  A    between atoms: N_11  and  C_12
REMARK    6  A    between atoms: C_12  and  C_13
REMARK    7  A    between atoms: C_13  and  C_14
REMARK    8  A    between atoms: C_14  and  N_15
REMARK    9  A    between atoms: N_15  and  C_16
REMARK   10  A    between atoms: C_22  and  O_23
REMARK   11  A    between atoms: O_23  and  C_24
REMARK   12  A    between atoms: C_27  and  C_28
REMARK   13  A    between atoms: C_28  and  C_29
REMARK   14  A    between atoms: C_28  and  C_30
REMARK   15  A    between atoms: C_28  and  C_31
REMARK                            x       y       z     vdW  Elec       q    Type
REMARK                         _______ _______ _______ _____ _____    ______ ____
ROOT
ATOM      1  C   UNL     1       1.879   7.788  19.724  0.00  0.00    +0.000 A 
ATOM      2  C   UNL     1       2.167   7.948  18.368  0.00  0.00    +0.000 A 
ATOM      3  C   UNL     1       1.927   9.169  17.766  0.00  0.00    +0.000 A 
ATOM      4  N   UNL     1       1.407  10.236  18.404  0.00  0.00    +0.000 NA
ATOM      5  C   UNL     1       1.063  10.094  19.687  0.00  0.00    +0.000 A 
ATOM      6  C   UNL     1       0.516  11.189  20.346  0.00  0.00    +0.000 A 
ATOM      7  C   UNL     1       0.112  11.121  21.680  0.00  0.00    +0.000 A 
ATOM      8  C   UNL     1       0.189   9.903  22.349  0.00  0.00    +0.000 A 
ATOM      9  C   UNL     1       0.793   8.809  21.736  0.00  0.00    +0.000 A 
ATOM     10  C   UNL     1       1.248   8.874  20.398  0.00  0.00    +0.000 A 
ENDROOT
BRANCH   1  11
ATOM     11  N   UNL     1       2.109   6.560  20.375  0.00  0.00    +0.000 N 
ATOM     12  H   UNL     1       2.098   6.642  21.387  0.00  0.00    +0.000 HD
BRANCH  11  13
ATOM     13  C   UNL     1       3.170   5.652  19.935  0.00  0.00    +0.000 C 
BRANCH  13  14
ATOM     14  C   UNL     1       2.619   4.383  19.280  0.00  0.00    +0.000 C 
BRANCH  14  15
ATOM     15  C   UNL     1       3.028   4.305  17.806  0.00  0.00    +0.000 C 
BRANCH  15  16
ATOM     16  N   UNL     1       4.069   3.293  17.654  0.00  0.00    +0.000 NA
ATOM     17  H   UNL     1       4.572   3.174  18.535  0.00  0.00    +0.000 HD
BRANCH  16  18
ATOM     18  C   UNL     1       5.044   3.652  16.620  0.00  0.00    +0.000 C 
BRANCH  18  25
ATOM     19  C   UNL     1       6.510   5.745  16.340  0.00  0.00    +0.000 A 
ATOM     20  C   UNL     1       7.341   6.720  16.911  0.00  0.00    +0.000 A 
ATOM     21  C   UNL     1       7.686   6.659  18.261  0.00  0.00    +0.000 A 
ATOM     22  C   UNL     1       7.200   5.624  19.044  0.00  0.00    +0.000 A 
ATOM     23  F   UNL     1       7.533   5.563  20.340  0.00  0.00    +0.000 F 
ATOM     24  C   UNL     1       6.365   4.658  18.504  0.00  0.00    +0.000 A 
ATOM     25  C   UNL     1       5.991   4.713  17.147  0.00  0.00    +0.000 A 
BRANCH  19  27
ATOM     26  C   UNL     1       6.936   4.978  14.133  0.00  0.00    +0.000 C 
ATOM     27  O   UNL     1       6.131   5.750  15.022  0.00  0.00    +0.000 OA
ENDBRANCH  19  27
ENDBRANCH  18  25
ENDBRANCH  16  18
ENDBRANCH  15  16
ENDBRANCH  14  15
ENDBRANCH  13  14
ENDBRANCH  11  13
ENDBRANCH   1  11
BRANCH   7  28
ATOM     28  O   UNL     1      -0.363  12.274  22.273  0.00  0.00    +0.000 OA
BRANCH  28  29
ATOM     29  C   UNL     1      -1.729  12.479  22.287  0.00  0.00    +0.000 A 
ATOM     30  C   UNL     1      -2.495  12.422  23.449  0.00  0.00    +0.000 A 
ATOM     31  C   UNL     1      -3.883  12.525  23.393  0.00  0.00    +0.000 A 
ATOM     32  C   UNL     1      -4.551  12.788  22.187  0.00  0.00    +0.000 A 
ATOM     33  C   UNL     1      -3.754  12.926  21.031  0.00  0.00    +0.000 A 
ATOM     34  C   UNL     1      -2.359  12.767  21.078  0.00  0.00    +0.000 A 
BRANCH  32  35
ATOM     35  C   UNL     1      -6.077  12.982  22.145  0.00  0.00    +0.000 C 
ATOM     36  C   UNL     1      -6.494  14.443  21.847  0.00  0.00    +0.000 C 
ATOM     37  C   UNL     1      -6.663  12.101  21.023  0.00  0.00    +0.000 C 
ATOM     38  C   UNL     1      -6.727  12.594  23.488  0.00  0.00    +0.000 C 
ENDBRANCH  32  35
ENDBRANCH  28  29
ENDBRANCH   7  28
TORSDOF 11
ENDMDL
MODEL 7
REMARK VINA RESULT:      -7.9      2.710      3.921
REMARK  Name = 
REMARK  15 active torsions:
REMARK  status: ('A' for Active; 'I' for Inactive)
REMARK    1  A    between atoms: C_1  and  O_2
REMARK    2  A    between atoms: O_2  and  C_3
REMARK    3  A    between atoms: C_9  and  C_10
REMARK    4  A    between atoms: C_10  and  N_11
REMARK    5  A    between atoms: N_11  and  C_12
REMARK    6  A    between atoms: C_12  and  C_13
REMARK    7  A    between atoms: C_13  and  C_14
REMARK    8  A    between atoms: C_14  and  N_15
REMARK    9  A    between atoms: N_15  and  C_16
REMARK   10  A    between atoms: C_22  and  O_23
REMARK   11  A    between atoms: O_23  and  C_24
REMARK   12  A    between atoms: C_27  and  C_28
REMARK   13  A    between atoms: C_28  and  C_29
REMARK   14  A    between atoms: C_28  and  C_30
REMARK   15  A    between atoms: C_28  and  C_31
REMARK                            x       y       z     vdW  Elec       q    Type
REMARK                         _______ _______ _______ _____ _____    ______ ____
ROOT
ATOM      1  C   UNL     1       2.285   7.196  19.706  0.00  0.00    +0.000 A 
ATOM      2  C   UNL     1       2.879   7.052  18.451  0.00  0.00    +0.000 A 
ATOM      3  C   UNL     1       2.742   8.063  17.519  0.00  0.00    +0.000 A 
ATOM      4  N   UNL     1       2.046   9.197  17.732  0.00  0.00    +0.000 NA
ATOM      5  C   UNL     1       1.415   9.335  18.901  0.00  0.00    +0.000 A 
ATOM      6  C   UNL     1       0.687  10.499  19.121  0.00  0.00    +0.000 A 
ATOM      7  C   UNL     1      -0.017  10.716  20.305  0.00  0.00    +0.000 A 
ATOM      8  C   UNL     1      -0.054   9.708  21.265  0.00  0.00    +0.000 A 
ATOM      9  C   UNL     1       0.718   8.562  21.101  0.00  0.00    +0.000 A 
ATOM     10  C   UNL     1       1.472   8.346  19.923  0.00  0.00    +0.000 A 
ENDROOT
BRANCH   1  11
ATOM     11  N   UNL     1       2.401   6.188  20.684  0.00  0.00    +0.000 N 
ATOM     12  H   UNL     1       3.364   6.004  20.947  0.00  0.00    +0.000 HD
BRANCH  11  13
ATOM     13  C   UNL     1       1.637   4.943  20.589  0.00  0.00    +0.000 C 
BRANCH  13  14
ATOM     14  C   UNL     1       2.485   3.711  20.912  0.00  0.00    +0.000 C 
BRANCH  14  15
ATOM     15  C   UNL     1       2.745   2.878  19.653  0.00  0.00    +0.000 C 
BRANCH  15  16
ATOM     16  N   UNL     1       2.983   3.777  18.527  0.00  0.00    +0.000 NA
ATOM     17  H   UNL     1       2.127   3.884  17.980  0.00  0.00    +0.000 HD
BRANCH  16  18
ATOM     18  C   UNL     1       4.034   3.281  17.634  0.00  0.00    +0.000 C 
BRANCH  18  25
ATOM     19  C   UNL     1       5.724   4.815  16.451  0.00  0.00    +0.000 A 
ATOM     20  C   UNL     1       6.779   5.736  16.532  0.00  0.00    +0.000 A 
ATOM     21  C   UNL     1       7.342   6.066  17.765  0.00  0.00    +0.000 A 
ATOM     22  C   UNL     1       6.852   5.477  18.920  0.00  0.00    +0.000 A 
ATOM     23  F   UNL     1       7.395   5.791  20.104  0.00  0.00    +0.000 F 
ATOM     24  C   UNL     1       5.801   4.575  18.864  0.00  0.00    +0.000 A 
ATOM     25  C   UNL     1       5.207   4.243  17.631  0.00  0.00    +0.000 A 
BRANCH  19  27
ATOM     26  C   UNL     1       6.001   4.071  14.213  0.00  0.00    +0.000 C 
ATOM     27  O   UNL     1       5.126   4.451  15.273  0.00  0.00    +0.000 OA
ENDBRANCH  19  27
ENDBRANCH  18  25
ENDBRANCH  16  18
ENDBRANCH  15  16
ENDBRANCH  14  15
ENDBRANCH  13  14
ENDBRANCH  11  13
ENDBRANCH   1  11
BRANCH   7  28
ATOM     28  O   UNL     1      -0.662  11.927  20.465  0.00  0.00    +0.000 OA
BRANCH  28  29
ATOM     29  C   UNL     1       0.047  13.079  20.182  0.00  0.00    +0.000 A 
ATOM     30  C   UNL     1       1.180  13.468  20.895  0.00  0.00    +0.000 A 
ATOM     31  C   UNL     1       1.792  14.694  20.642  0.00  0.00    +0.000 A 
ATOM     32  C   UNL     1       1.358  15.531  19.604  0.00  0.00    +0.000 A 
ATOM     33  C   UNL     1       0.261  15.084  18.837  0.00  0.00    +0.000 A 
ATOM     34  C   UNL     1      -0.391  13.874  19.126  0.00  0.00    +0.000 A 
BRANCH  32  35
ATOM     35  C   UNL     1       2.089  16.845  19.278  0.00  0.00    +0.000 C 
ATOM     36  C   UNL     1       1.333  18.100  19.781  0.00  0.00    +0.000 C 
ATOM     37  C   UNL     1       3.469  16.836  19.966  0.00  0.00    +0.000 C 
ATOM     38  C   UNL     1       2.281  17.015  17.758  0.00  0.00    +0.000 C 
ENDBRANCH  32  35
ENDBRANCH  28  29
ENDBRANCH   7  28
TORSDOF 11
ENDMDL
MODEL 8
REMARK VINA RESULT:      -7.9      2.535      4.182
REMARK  Name = 
REMARK  15 active torsions:
REMARK  status: ('A' for Active; 'I' for Inactive)
REMARK    1  A    between atoms: C_1  and  O_2
REMARK    2  A    between atoms: O_2  and  C_3
REMARK    3  A    between atoms: C_9  and  C_10
REMARK    4  A    between atoms: C_10  and  N_11
REMARK    5  A    between atoms: N_11  and  C_12
REMARK    6  A    between atoms: C_12  and  C_13
REMARK    7  A    between atoms: C_13  and  C_14
REMARK    8  A    between atoms: C_14  and  N_15
REMARK    9  A    between atoms: N_15  and  C_16
REMARK   10  A    between atoms: C_22  and  O_23
REMARK   11  A    between atoms: O_23  and  C_24
REMARK   12  A    between atoms: C_27  and  C_28
REMARK   13  A    between atoms: C_28  and  C_29
REMARK   14  A    between atoms: C_28  and  C_30
REMARK   15  A    between atoms: C_28  and  C_31
REMARK                            x       y       z     vdW  Elec       q    Type
REMARK                         _______ _______ _______ _____ _____    ______ ____
ROOT
ATOM      1  C   UNL     1       2.593   7.030  18.696  0.00  0.00    +0.000 A 
ATOM      2  C   UNL     1       2.514   6.169  19.792  0.00  0.00    +0.000 A 
ATOM      3  C   UNL     1       1.798   6.560  20.908  0.00  0.00    +0.000 A 
ATOM      4  N   UNL     1       1.171   7.747  21.025  0.00  0.00    +0.000 NA
ATOM      5  C   UNL     1       1.280   8.616  20.016  0.00  0.00    +0.000 A 
ATOM      6  C   UNL     1       0.642   9.846  20.137  0.00  0.00    +0.000 A 
ATOM      7  C   UNL     1       0.722  10.819  19.140  0.00  0.00    +0.000 A 
ATOM      8  C   UNL     1       1.522  10.582  18.025  0.00  0.00    +0.000 A 
ATOM      9  C   UNL     1       2.116   9.337  17.848  0.00  0.00    +0.000 A 
ATOM     10  C   UNL     1       2.011   8.324  18.830  0.00  0.00    +0.000 A 
ENDROOT
BRANCH   1  11
ATOM     11  N   UNL     1       3.312   6.669  17.540  0.00  0.00    +0.000 N 
ATOM     12  H   UNL     1       2.996   5.793  17.136  0.00  0.00    +0.000 HD
BRANCH  11  13
ATOM     13  C   UNL     1       4.772   6.771  17.489  0.00  0.00    +0.000 C 
BRANCH  13  14
ATOM     14  C   UNL     1       5.463   5.676  18.305  0.00  0.00    +0.000 C 
BRANCH  14  15
ATOM     15  C   UNL     1       5.572   4.378  17.500  0.00  0.00    +0.000 C 
BRANCH  15  16
ATOM     16  N   UNL     1       4.230   3.922  17.148  0.00  0.00    +0.000 NA
ATOM     17  H   UNL     1       3.532   4.553  17.544  0.00  0.00    +0.000 HD
BRANCH  16  18
ATOM     18  C   UNL     1       3.955   2.570  17.646  0.00  0.00    +0.000 C 
BRANCH  18  25
ATOM     19  C   UNL     1       3.622   2.527  20.194  0.00  0.00    +0.000 A 
ATOM     20  C   UNL     1       2.770   2.655  21.301  0.00  0.00    +0.000 A 
ATOM     21  C   UNL     1       1.402   2.863  21.126  0.00  0.00    +0.000 A 
ATOM     22  C   UNL     1       0.882   2.945  19.844  0.00  0.00    +0.000 A 
ATOM     23  F   UNL     1      -0.432   3.143  19.676  0.00  0.00    +0.000 F 
ATOM     24  C   UNL     1       1.708   2.836  18.736  0.00  0.00    +0.000 A 
ATOM     25  C   UNL     1       3.094   2.644  18.893  0.00  0.00    +0.000 A 
BRANCH  19  27
ATOM     26  C   UNL     1       5.384   1.204  21.080  0.00  0.00    +0.000 C 
ATOM     27  O   UNL     1       4.974   2.324  20.298  0.00  0.00    +0.000 OA
ENDBRANCH  19  27
ENDBRANCH  18  25
ENDBRANCH  16  18
ENDBRANCH  15  16
ENDBRANCH  14  15
ENDBRANCH  13  14
ENDBRANCH  11  13
ENDBRANCH   1  11
BRANCH   7  28
ATOM     28  O   UNL     1       0.006  11.987  19.315  0.00  0.00    +0.000 OA
BRANCH  28  29
ATOM     29  C   UNL     1      -1.367  11.931  19.168  0.00  0.00    +0.000 A 
ATOM     30  C   UNL     1      -1.994  11.253  18.125  0.00  0.00    +0.000 A 
ATOM     31  C   UNL     1      -3.375  11.321  17.961  0.00  0.00    +0.000 A 
ATOM     32  C   UNL     1      -4.192  11.987  18.886  0.00  0.00    +0.000 A 
ATOM     33  C   UNL     1      -3.550  12.600  19.983  0.00  0.00    +0.000 A 
ATOM     34  C   UNL     1      -2.152  12.578  20.120  0.00  0.00    +0.000 A 
BRANCH  32  35
ATOM     35  C   UNL     1      -5.724  11.990  18.742  0.00  0.00    +0.000 C 
ATOM     36  C   UNL     1      -6.213  12.739  17.477  0.00  0.00    +0.000 C 
ATOM     37  C   UNL     1      -6.222  10.535  18.634  0.00  0.00    +0.000 C 
ATOM     38  C   UNL     1      -6.397  12.668  19.953  0.00  0.00    +0.000 C 
ENDBRANCH  32  35
ENDBRANCH  28  29
ENDBRANCH   7  28
TORSDOF 11
ENDMDL
MODEL 9
REMARK VINA RESULT:      -7.9      4.280     11.281
REMARK  Name = 
REMARK  15 active torsions:
REMARK  status: ('A' for Active; 'I' for Inactive)
REMARK    1  A    between atoms: C_1  and  O_2
REMARK    2  A    between atoms: O_2  and  C_3
REMARK    3  A    between atoms: C_9  and  C_10
REMARK    4  A    between atoms: C_10  and  N_11
REMARK    5  A    between atoms: N_11  and  C_12
REMARK    6  A    between atoms: C_12  and  C_13
REMARK    7  A    between atoms: C_13  and  C_14
REMARK    8  A    between atoms: C_14  and  N_15
REMARK    9  A    between atoms: N_15  and  C_16
REMARK   10  A    between atoms: C_22  and  O_23
REMARK   11  A    between atoms: O_23  and  C_24
REMARK   12  A    between atoms: C_27  and  C_28
REMARK   13  A    between atoms: C_28  and  C_29
REMARK   14  A    between atoms: C_28  and  C_30
REMARK   15  A    between atoms: C_28  and  C_31
REMARK                            x       y       z     vdW  Elec       q    Type
REMARK                         _______ _______ _______ _____ _____    ______ ____
ROOT
ATOM      1  C   UNL     1      -2.354  11.955  19.898  0.00  0.00    +0.000 A 
ATOM      2  C   UNL     1      -3.315  12.008  18.887  0.00  0.00    +0.000 A 
ATOM      3  C   UNL     1      -3.105  11.298  17.720  0.00  0.00    +0.000 A 
ATOM      4  N   UNL     1      -2.008  10.557  17.473  0.00  0.00    +0.000 NA
ATOM      5  C   UNL     1      -1.043  10.537  18.397  0.00  0.00    +0.000 A 
ATOM      6  C   UNL     1       0.095   9.781  18.142  0.00  0.00    +0.000 A 
ATOM      7  C   UNL     1       1.158   9.721  19.044  0.00  0.00    +0.000 A 
ATOM      8  C   UNL     1       1.111  10.498  20.198  0.00  0.00    +0.000 A 
ATOM      9  C   UNL     1      -0.043  11.212  20.510  0.00  0.00    +0.000 A 
ATOM     10  C   UNL     1      -1.147  11.248  19.626  0.00  0.00    +0.000 A 
ENDROOT
BRANCH   1  11
ATOM     11  N   UNL     1      -2.529  12.664  21.104  0.00  0.00    +0.000 N 
ATOM     12  H   UNL     1      -2.787  12.063  21.880  0.00  0.00    +0.000 HD
BRANCH  11  13
ATOM     13  C   UNL     1      -3.275  13.922  21.145  0.00  0.00    +0.000 C 
BRANCH  13  14
ATOM     14  C   UNL     1      -3.446  14.453  22.571  0.00  0.00    +0.000 C 
BRANCH  14  15
ATOM     15  C   UNL     1      -4.782  14.002  23.168  0.00  0.00    +0.000 C 
BRANCH  15  16
ATOM     16  N   UNL     1      -5.152  12.713  22.591  0.00  0.00    +0.000 NA
ATOM     17  H   UNL     1      -4.626  12.553  21.729  0.00  0.00    +0.000 HD
BRANCH  16  18
ATOM     18  C   UNL     1      -6.580  12.636  22.272  0.00  0.00    +0.000 C 
BRANCH  18  25
ATOM     19  C   UNL     1      -6.855  13.525  19.875  0.00  0.00    +0.000 A 
ATOM     20  C   UNL     1      -6.978  13.269  18.501  0.00  0.00    +0.000 A 
ATOM     21  C   UNL     1      -7.049  11.960  18.025  0.00  0.00    +0.000 A 
ATOM     22  C   UNL     1      -6.995  10.903  18.919  0.00  0.00    +0.000 A 
ATOM     23  F   UNL     1      -7.066   9.646  18.462  0.00  0.00    +0.000 F 
ATOM     24  C   UNL     1      -6.859  11.132  20.280  0.00  0.00    +0.000 A 
ATOM     25  C   UNL     1      -6.768  12.446  20.778  0.00  0.00    +0.000 A 
BRANCH  19  27
ATOM     26  C   UNL     1      -6.026  15.739  19.660  0.00  0.00    +0.000 C 
ATOM     27  O   UNL     1      -6.778  14.786  20.407  0.00  0.00    +0.000 OA
ENDBRANCH  19  27
ENDBRANCH  18  25
ENDBRANCH  16  18
ENDBRANCH  15  16
ENDBRANCH  14  15
ENDBRANCH  13  14
ENDBRANCH  11  13
ENDBRANCH   1  11
BRANCH   7  28
ATOM     28  O   UNL     1       2.222   8.896  18.739  0.00  0.00    +0.000 OA
BRANCH  28  29
ATOM     29  C   UNL     1       2.103   7.551  19.033  0.00  0.00    +0.000 A 
ATOM     30  C   UNL     1       1.810   7.075  20.309  0.00  0.00    +0.000 A 
ATOM     31  C   UNL     1       1.810   5.708  20.576  0.00  0.00    +0.000 A 
ATOM     32  C   UNL     1       2.005   4.762  19.560  0.00  0.00    +0.000 A 
ATOM     33  C   UNL     1       2.219   5.258  18.256  0.00  0.00    +0.000 A 
ATOM     34  C   UNL     1       2.273   6.638  17.995  0.00  0.00    +0.000 A 
BRANCH  32  35
ATOM     35  C   UNL     1       1.924   3.253  19.846  0.00  0.00    +0.000 C 
ATOM     36  C   UNL     1       3.294   2.539  19.728  0.00  0.00    +0.000 C 
ATOM     37  C   UNL     1       1.421   3.042  21.288  0.00  0.00    +0.000 C 
ATOM     38  C   UNL     1       0.965   2.549  18.866  0.00  0.00    +0.000 C 
ENDBRANCH  32  35
ENDBRANCH  28  29
ENDBRANCH   7  28
TORSDOF 11
ENDMDL
