MODEL 1
REMARK VINA RESULT:      -9.0      0.000      0.000
REMARK  Name = 
REMARK  9 active torsions:
REMARK  status: ('A' for Active; 'I' for Inactive)
REMARK    1  A    between atoms: C_1  and  C_2
REMARK    2  A    between atoms: N_5  and  C_6
REMARK    3  A    between atoms: C_6  and  C_7
REMARK    4  A    between atoms: C_10  and  C_11
REMARK    5  A    between atoms: C_14  and  C_15
REMARK    6  A    between atoms: C_19  and  N_20
REMARK    7  A    between atoms: N_20  and  C_21
REMARK    8  A    between atoms: C_22  and  C_24
REMARK    9  A    between atoms: C_28  and  C_29
REMARK                            x       y       z     vdW  Elec       q    Type
REMARK                         _______ _______ _______ _____ _____    ______ ____
ROOT
ATOM      1  C   UNL     1       0.782   8.628  20.526  0.00  0.00    +0.000 C 
ATOM      2  C   UNL     1       1.096   8.694  22.024  0.00  0.00    +0.000 C 
ATOM      3  C   UNL     1       0.103   9.591  22.764  0.00  0.00    +0.000 C 
ATOM      4  C   UNL     1       0.072  11.002  22.180  0.00  0.00    +0.000 C 
ATOM      5  C   UNL     1      -0.229  10.990  20.672  0.00  0.00    +0.000 C 
ATOM      6  C   UNL     1       0.702  10.036  19.914  0.00  0.00    +0.000 C 
ENDROOT
BRANCH   1  10
ATOM      7  C   UNL     1       3.098   6.127  19.293  0.00  0.00    +0.000 A 
ATOM      8  N   UNL     1       3.175   6.981  18.298  0.00  0.00    +0.000 NA
ATOM      9  N   UNL     1       2.334   8.042  18.582  0.00  0.00    +0.000 NA
ATOM     10  C   UNL     1       1.789   7.822  19.762  0.00  0.00    +0.000 A 
ATOM     11  N   UNL     1       2.260   6.631  20.237  0.00  0.00    +0.000 N 
ATOM     12  H   UNL     1       2.023   6.203  21.121  0.00  0.00    +0.000 HD
BRANCH   7  18
ATOM     13  C   UNL     1       6.277   5.523  19.052  0.00  0.00    +0.000 C 
ATOM     14  C   UNL     1       5.139   4.606  19.311  0.00  0.00    +0.000 A 
ATOM     15  N   UNL     1       5.367   3.262  19.481  0.00  0.00    +0.000 NA
ATOM     16  C   UNL     1       4.191   2.734  19.717  0.00  0.00    +0.000 A 
ATOM     17  N   UNL     1       3.201   3.677  19.703  0.00  0.00    +0.000 N 
ATOM     18  C   UNL     1       3.786   4.890  19.432  0.00  0.00    +0.000 A 
BRANCH  17  19
ATOM     19  C   UNL     1       1.795   3.386  19.898  0.00  0.00    +0.000 C 
BRANCH  19  20
ATOM     20  C   UNL     1       1.411   3.318  21.360  0.00  0.00    +0.000 C 
ATOM     21  F   UNL     1       1.436   2.027  21.785  0.00  0.00    +0.000 F 
ATOM     22  F   UNL     1       2.345   3.971  22.100  0.00  0.00    +0.000 F 
ENDBRANCH  19  20
ENDBRANCH  17  19
ENDBRANCH   7  18
ENDBRANCH   1  10
BRANCH   5  23
ATOM     23  N   UNL     1      -0.163  12.348  20.075  0.00  0.00    +0.000 N 
ATOM     24  C   UNL     1      -1.348  12.811  19.350  0.00  0.00    +0.000 C 
ATOM     25  C   UNL     1       0.974  13.142  20.333  0.00  0.00    +0.000 C 
ATOM     26  O   UNL     1       1.943  12.711  20.954  0.00  0.00    +0.000 OA
BRANCH  25  27
ATOM     27  C   UNL     1       1.066  14.558  19.840  0.00  0.00    +0.000 A 
ATOM     28  C   UNL     1       0.247  15.537  20.423  0.00  0.00    +0.000 A 
ATOM     29  C   UNL     1       0.324  16.867  20.003  0.00  0.00    +0.000 A 
ATOM     30  C   UNL     1       1.243  17.248  19.022  0.00  0.00    +0.000 A 
ATOM     31  C   UNL     1       2.052  16.285  18.413  0.00  0.00    +0.000 A 
ATOM     32  C   UNL     1       1.896  14.941  18.779  0.00  0.00    +0.000 A 
BRANCH  31  33
ATOM     33  C   UNL     1       3.109  16.638  17.393  0.00  0.00    +0.000 C 
ATOM     34  F   UNL     1       4.276  17.071  17.930  0.00  0.00    +0.000 F 
ATOM     35  F   UNL     1       3.429  15.566  16.609  0.00  0.00    +0.000 F 
ATOM     36  F   UNL     1       2.694  17.608  16.533  0.00  0.00    +0.000 F 
ENDBRANCH  31  33
ENDBRANCH  25  27
ENDBRANCH   5  23
TORSDOF 7
ENDMDL
MODEL 2
REMARK VINA RESULT:      -9.0      0.853      1.205
REMARK  Name = 
REMARK  9 active torsions:
REMARK  status: ('A' for Active; 'I' for Inactive)
REMARK    1  A    between atoms: C_1  and  C_2
REMARK    2  A    between atoms: N_5  and  C_6
REMARK    3  A    between atoms: C_6  and  C_7
REMARK    4  A    between atoms: C_10  and  C_11
REMARK    5  A    between atoms: C_14  and  C_15
REMARK    6  A    between atoms: C_19  and  N_20
REMARK    7  A    between atoms: N_20  and  C_21
REMARK    8  A    between atoms: C_22  and  C_24
REMARK    9  A    between atoms: C_28  and  C_29
REMARK                            x       y       z     vdW  Elec       q    Type
REMARK                         _______ _______ _______ _____ _____    ______ ____
ROOT
ATOM      1  C   UNL     1       0.754   8.809  20.223  0.00  0.00    +0.000 C 
ATOM      2  C   UNL     1       0.720   8.519  21.727  0.00  0.00    +0.000 C 
ATOM      3  C   UNL     1      -0.286   9.418  22.447  0.00  0.00    +0.000 C 
ATOM      4  C   UNL     1       0.010  10.898  22.213  0.00  0.00    +0.000 C 
ATOM      5  C   UNL     1       0.067  11.241  20.715  0.00  0.00    +0.000 C 
ATOM      6  C   UNL     1       1.009  10.301  19.953  0.00  0.00    +0.000 C 
ENDROOT
BRANCH   1  10
ATOM      7  C   UNL     1       3.125   6.307  19.102  0.00  0.00    +0.000 A 
ATOM      8  N   UNL     1       3.233   7.150  18.101  0.00  0.00    +0.000 NA
ATOM      9  N   UNL     1       2.378   8.210  18.343  0.00  0.00    +0.000 NA
ATOM     10  C   UNL     1       1.792   8.000  19.505  0.00  0.00    +0.000 A 
ATOM     11  N   UNL     1       2.251   6.817  20.010  0.00  0.00    +0.000 N 
ATOM     12  H   UNL     1       1.984   6.398  20.889  0.00  0.00    +0.000 HD
BRANCH   7  18
ATOM     13  C   UNL     1       6.314   5.720  18.998  0.00  0.00    +0.000 C 
ATOM     14  C   UNL     1       5.172   4.798  19.216  0.00  0.00    +0.000 A 
ATOM     15  N   UNL     1       5.399   3.456  19.406  0.00  0.00    +0.000 NA
ATOM     16  C   UNL     1       4.217   2.924  19.598  0.00  0.00    +0.000 A 
ATOM     17  N   UNL     1       3.224   3.861  19.535  0.00  0.00    +0.000 N 
ATOM     18  C   UNL     1       3.813   5.076  19.279  0.00  0.00    +0.000 A 
BRANCH  17  19
ATOM     19  C   UNL     1       1.812   3.563  19.674  0.00  0.00    +0.000 C 
BRANCH  19  20
ATOM     20  C   UNL     1       1.383   3.435  21.120  0.00  0.00    +0.000 C 
ATOM     21  F   UNL     1       1.444   2.133  21.506  0.00  0.00    +0.000 F 
ATOM     22  F   UNL     1       2.267   4.099  21.911  0.00  0.00    +0.000 F 
ENDBRANCH  19  20
ENDBRANCH  17  19
ENDBRANCH   7  18
ENDBRANCH   1  10
BRANCH   5  23
ATOM     23  N   UNL     1       0.452  12.654  20.476  0.00  0.00    +0.000 N 
ATOM     24  C   UNL     1       1.631  13.150  21.188  0.00  0.00    +0.000 C 
ATOM     25  C   UNL     1      -0.261  13.391  19.507  0.00  0.00    +0.000 C 
ATOM     26  O   UNL     1      -1.243  12.929  18.929  0.00  0.00    +0.000 OA
BRANCH  25  27
ATOM     27  C   UNL     1       0.133  14.794  19.146  0.00  0.00    +0.000 A 
ATOM     28  C   UNL     1      -0.680  15.859  19.562  0.00  0.00    +0.000 A 
ATOM     29  C   UNL     1      -0.330  17.178  19.262  0.00  0.00    +0.000 A 
ATOM     30  C   UNL     1       0.854  17.457  18.575  0.00  0.00    +0.000 A 
ATOM     31  C   UNL     1       1.667  16.411  18.132  0.00  0.00    +0.000 A 
ATOM     32  C   UNL     1       1.254  15.091  18.359  0.00  0.00    +0.000 A 
BRANCH  31  33
ATOM     33  C   UNL     1       2.989  16.644  17.441  0.00  0.00    +0.000 C 
ATOM     34  F   UNL     1       3.482  15.555  16.800  0.00  0.00    +0.000 F 
ATOM     35  F   UNL     1       2.898  17.628  16.498  0.00  0.00    +0.000 F 
ATOM     36  F   UNL     1       3.958  17.056  18.305  0.00  0.00    +0.000 F 
ENDBRANCH  31  33
ENDBRANCH  25  27
ENDBRANCH   5  23
TORSDOF 7
ENDMDL
MODEL 3
REMARK VINA RESULT:      -8.9      4.350     10.539
REMARK  Name = 
REMARK  9 active torsions:
REMARK  status: ('A' for Active; 'I' for Inactive)
REMARK    1  A    between atoms: C_1  and  C_2
REMARK    2  A    between atoms: N_5  and  C_6
REMARK    3  A    between atoms: C_6  and  C_7
REMARK    4  A    between atoms: C_10  and  C_11
REMARK    5  A    between atoms: C_14  and  C_15
REMARK    6  A    between atoms: C_19  and  N_20
REMARK    7  A    between atoms: N_20  and  C_21
REMARK    8  A    between atoms: C_22  and  C_24
REMARK    9  A    between atoms: C_28  and  C_29
REMARK                            x       y       z     vdW  Elec       q    Type
REMARK                         _______ _______ _______ _____ _____    ______ ____
ROOT
ATOM      1  C   UNL     1      -1.191  11.739  19.046  0.00  0.00    +0.000 C 
ATOM      2  C   UNL     1      -0.975  12.427  20.398  0.00  0.00    +0.000 C 
ATOM      3  C   UNL     1       0.511  12.513  20.750  0.00  0.00    +0.000 C 
ATOM      4  C   UNL     1       1.169  11.134  20.761  0.00  0.00    +0.000 C 
ATOM      5  C   UNL     1       0.970  10.394  19.428  0.00  0.00    +0.000 C 
ATOM      6  C   UNL     1      -0.504  10.364  19.009  0.00  0.00    +0.000 C 
ENDROOT
BRANCH   1  10
ATOM      7  C   UNL     1      -4.783  12.041  18.662  0.00  0.00    +0.000 A 
ATOM      8  N   UNL     1      -4.590  10.969  17.927  0.00  0.00    +0.000 NA
ATOM      9  N   UNL     1      -3.238  10.680  17.942  0.00  0.00    +0.000 NA
ATOM     10  C   UNL     1      -2.643  11.567  18.714  0.00  0.00    +0.000 A 
ATOM     11  N   UNL     1      -3.591  12.428  19.189  0.00  0.00    +0.000 N 
ATOM     12  H   UNL     1      -3.433  13.209  19.810  0.00  0.00    +0.000 HD
BRANCH   7  18
ATOM     13  C   UNL     1      -6.685  13.714  16.634  0.00  0.00    +0.000 C 
ATOM     14  C   UNL     1      -6.830  13.440  18.086  0.00  0.00    +0.000 A 
ATOM     15  N   UNL     1      -7.908  13.942  18.775  0.00  0.00    +0.000 NA
ATOM     16  C   UNL     1      -7.769  13.512  20.005  0.00  0.00    +0.000 A 
ATOM     17  N   UNL     1      -6.641  12.753  20.151  0.00  0.00    +0.000 N 
ATOM     18  C   UNL     1      -6.013  12.701  18.930  0.00  0.00    +0.000 A 
BRANCH  17  19
ATOM     19  C   UNL     1      -6.208  12.169  21.405  0.00  0.00    +0.000 C 
BRANCH  19  20
ATOM     20  C   UNL     1      -5.577  13.184  22.334  0.00  0.00    +0.000 C 
ATOM     21  F   UNL     1      -4.637  12.580  23.108  0.00  0.00    +0.000 F 
ATOM     22  F   UNL     1      -4.912  14.113  21.598  0.00  0.00    +0.000 F 
ENDBRANCH  19  20
ENDBRANCH  17  19
ENDBRANCH   7  18
ENDBRANCH   1  10
BRANCH   5  23
ATOM     23  N   UNL     1       1.520   9.016  19.462  0.00  0.00    +0.000 N 
ATOM     24  C   UNL     1       1.359   8.269  20.711  0.00  0.00    +0.000 C 
ATOM     25  C   UNL     1       2.055   8.475  18.274  0.00  0.00    +0.000 C 
ATOM     26  O   UNL     1       2.164   9.140  17.246  0.00  0.00    +0.000 OA
BRANCH  25  27
ATOM     27  C   UNL     1       2.542   7.056  18.212  0.00  0.00    +0.000 A 
ATOM     28  C   UNL     1       3.829   6.798  17.716  0.00  0.00    +0.000 A 
ATOM     29  C   UNL     1       4.321   5.491  17.666  0.00  0.00    +0.000 A 
ATOM     30  C   UNL     1       3.550   4.426  18.141  0.00  0.00    +0.000 A 
ATOM     31  C   UNL     1       2.258   4.658  18.618  0.00  0.00    +0.000 A 
ATOM     32  C   UNL     1       1.745   5.962  18.575  0.00  0.00    +0.000 A 
BRANCH  31  33
ATOM     33  C   UNL     1       1.399   3.564  19.204  0.00  0.00    +0.000 C 
ATOM     34  F   UNL     1       0.478   3.999  20.100  0.00  0.00    +0.000 F 
ATOM     35  F   UNL     1       0.700   2.900  18.237  0.00  0.00    +0.000 F 
ATOM     36  F   UNL     1       2.136   2.612  19.839  0.00  0.00    +0.000 F 
ENDBRANCH  31  33
ENDBRANCH  25  27
ENDBRANCH   5  23
TORSDOF 7
ENDMDL
MODEL 4
REMARK VINA RESULT:      -8.9      5.033      9.964
REMARK  Name = 
REMARK  9 active torsions:
REMARK  status: ('A' for Active; 'I' for Inactive)
REMARK    1  A    between atoms: C_1  and  C_2
REMARK    2  A    between atoms: N_5  and  C_6
REMARK    3  A    between atoms: C_6  and  C_7
REMARK    4  A    between atoms: C_10  and  C_11
REMARK    5  A    between atoms: C_14  and  C_15
REMARK    6  A    between atoms: C_19  and  N_20
REMARK    7  A    between atoms: N_20  and  C_21
REMARK    8  A    between atoms: C_22  and  C_24
REMARK    9  A    between atoms: C_28  and  C_29
REMARK                            x       y       z     vdW  Elec       q    Type
REMARK                         _______ _______ _______ _____ _____    ______ ____
ROOT
ATOM      1  C   UNL     1       2.086   6.790  20.552  0.00  0.00    +0.000 C 
ATOM      2  C   UNL     1       0.982   5.729  20.486  0.00  0.00    +0.000 C 
ATOM      3  C   UNL     1       1.550   4.353  20.137  0.00  0.00    +0.000 C 
ATOM      4  C   UNL     1       2.321   4.379  18.818  0.00  0.00    +0.000 C 
ATOM      5  C   UNL     1       3.436   5.438  18.827  0.00  0.00    +0.000 C 
ATOM      6  C   UNL     1       2.909   6.813  19.253  0.00  0.00    +0.000 C 
ENDROOT
BRANCH   1  10
ATOM      7  C   UNL     1       0.717  10.140  20.347  0.00  0.00    +0.000 A 
ATOM      8  N   UNL     1       0.746  10.013  21.654  0.00  0.00    +0.000 NA
ATOM      9  N   UNL     1       1.250   8.760  21.949  0.00  0.00    +0.000 NA
ATOM     10  C   UNL     1       1.547   8.165  20.811  0.00  0.00    +0.000 A 
ATOM     11  N   UNL     1       1.234   9.014  19.788  0.00  0.00    +0.000 N 
ATOM     12  H   UNL     1       1.356   8.834  18.802  0.00  0.00    +0.000 HD
BRANCH   7  18
ATOM     13  C   UNL     1       1.904  13.160  20.288  0.00  0.00    +0.000 C 
ATOM     14  C   UNL     1       0.750  12.564  19.569  0.00  0.00    +0.000 A 
ATOM     15  N   UNL     1      -0.006  13.339  18.724  0.00  0.00    +0.000 NA
ATOM     16  C   UNL     1      -0.913  12.534  18.227  0.00  0.00    +0.000 A 
ATOM     17  N   UNL     1      -0.786  11.264  18.717  0.00  0.00    +0.000 N 
ATOM     18  C   UNL     1       0.273  11.261  19.593  0.00  0.00    +0.000 A 
BRANCH  17  19
ATOM     19  C   UNL     1      -1.667  10.166  18.375  0.00  0.00    +0.000 C 
BRANCH  19  20
ATOM     20  C   UNL     1      -2.529  10.464  17.167  0.00  0.00    +0.000 C 
ATOM     21  F   UNL     1      -2.285   9.552  16.189  0.00  0.00    +0.000 F 
ATOM     22  F   UNL     1      -3.838  10.310  17.501  0.00  0.00    +0.000 F 
ENDBRANCH  19  20
ENDBRANCH  17  19
ENDBRANCH   7  18
ENDBRANCH   1  10
BRANCH   5  23
ATOM     23  N   UNL     1       4.126   5.539  17.516  0.00  0.00    +0.000 N 
ATOM     24  C   UNL     1       4.271   6.880  16.946  0.00  0.00    +0.000 C 
ATOM     25  C   UNL     1       4.690   4.372  16.961  0.00  0.00    +0.000 C 
ATOM     26  O   UNL     1       4.546   3.267  17.481  0.00  0.00    +0.000 OA
BRANCH  25  27
ATOM     27  C   UNL     1       5.483   4.417  15.686  0.00  0.00    +0.000 A 
ATOM     28  C   UNL     1       6.773   4.968  15.706  0.00  0.00    +0.000 A 
ATOM     29  C   UNL     1       7.546   5.005  14.542  0.00  0.00    +0.000 A 
ATOM     30  C   UNL     1       7.057   4.462  13.351  0.00  0.00    +0.000 A 
ATOM     31  C   UNL     1       5.767   3.930  13.304  0.00  0.00    +0.000 A 
ATOM     32  C   UNL     1       4.971   3.985  14.456  0.00  0.00    +0.000 A 
BRANCH  31  33
ATOM     33  C   UNL     1       5.203   3.271  12.068  0.00  0.00    +0.000 C 
ATOM     34  F   UNL     1       5.731   2.052  11.797  0.00  0.00    +0.000 F 
ATOM     35  F   UNL     1       3.854   3.083  12.169  0.00  0.00    +0.000 F 
ATOM     36  F   UNL     1       5.382   4.028  10.951  0.00  0.00    +0.000 F 
ENDBRANCH  31  33
ENDBRANCH  25  27
ENDBRANCH   5  23
TORSDOF 7
ENDMDL
MODEL 5
REMARK VINA RESULT:      -8.6      4.214     10.348
REMARK  Name = 
REMARK  9 active torsions:
REMARK  status: ('A' for Active; 'I' for Inactive)
REMARK    1  A    between atoms: C_1  and  C_2
REMARK    2  A    between atoms: N_5  and  C_6
REMARK    3  A    between atoms: C_6  and  C_7
REMARK    4  A    between atoms: C_10  and  C_11
REMARK    5  A    between atoms: C_14  and  C_15
REMARK    6  A    between atoms: C_19  and  N_20
REMARK    7  A    between atoms: N_20  and  C_21
REMARK    8  A    between atoms: C_22  and  C_24
REMARK    9  A    between atoms: C_28  and  C_29
REMARK                            x       y       z     vdW  Elec       q    Type
REMARK                         _______ _______ _______ _____ _____    ______ ____
ROOT
ATOM      1  C   UNL     1      -1.161  11.898  18.600  0.00  0.00    +0.000 C 
ATOM      2  C   UNL     1      -0.818  12.769  19.814  0.00  0.00    +0.000 C 
ATOM      3  C   UNL     1       0.693  12.855  20.030  0.00  0.00    +0.000 C 
ATOM      4  C   UNL     1       1.320  11.471  20.193  0.00  0.00    +0.000 C 
ATOM      5  C   UNL     1       0.995  10.552  19.005  0.00  0.00    +0.000 C 
ATOM      6  C   UNL     1      -0.509  10.510  18.714  0.00  0.00    +0.000 C 
ENDROOT
BRANCH   1  10
ATOM      7  C   UNL     1      -4.763  11.704  18.955  0.00  0.00    +0.000 A 
ATOM      8  N   UNL     1      -4.674  11.468  17.666  0.00  0.00    +0.000 NA
ATOM      9  N   UNL     1      -3.336  11.503  17.318  0.00  0.00    +0.000 NA
ATOM     10  C   UNL     1      -2.639  11.729  18.414  0.00  0.00    +0.000 A 
ATOM     11  N   UNL     1      -3.509  11.847  19.459  0.00  0.00    +0.000 N 
ATOM     12  H   UNL     1      -3.266  12.018  20.425  0.00  0.00    +0.000 HD
BRANCH   7  18
ATOM     13  C   UNL     1      -6.996   9.408  19.474  0.00  0.00    +0.000 C 
ATOM     14  C   UNL     1      -6.920  10.806  19.965  0.00  0.00    +0.000 A 
ATOM     15  N   UNL     1      -7.916  11.306  20.769  0.00  0.00    +0.000 NA
ATOM     16  C   UNL     1      -7.554  12.533  21.054  0.00  0.00    +0.000 A 
ATOM     17  N   UNL     1      -6.365  12.859  20.464  0.00  0.00    +0.000 N 
ATOM     18  C   UNL     1      -5.942  11.766  19.747  0.00  0.00    +0.000 A 
BRANCH  17  19
ATOM     19  C   UNL     1      -5.731  14.159  20.572  0.00  0.00    +0.000 C 
BRANCH  19  20
ATOM     20  C   UNL     1      -4.821  14.266  21.775  0.00  0.00    +0.000 C 
ATOM     21  F   UNL     1      -4.870  13.114  22.496  0.00  0.00    +0.000 F 
ATOM     22  F   UNL     1      -3.534  14.386  21.355  0.00  0.00    +0.000 F 
ENDBRANCH  19  20
ENDBRANCH  17  19
ENDBRANCH   7  18
ENDBRANCH   1  10
BRANCH   5  23
ATOM     23  N   UNL     1       1.516   9.176  19.200  0.00  0.00    +0.000 N 
ATOM     24  C   UNL     1       1.232   8.535  20.485  0.00  0.00    +0.000 C 
ATOM     25  C   UNL     1       2.146   8.534  18.112  0.00  0.00    +0.000 C 
ATOM     26  O   UNL     1       2.358   9.113  17.048  0.00  0.00    +0.000 OA
BRANCH  25  27
ATOM     27  C   UNL     1       2.612   7.110  18.209  0.00  0.00    +0.000 A 
ATOM     28  C   UNL     1       3.900   6.783  17.758  0.00  0.00    +0.000 A 
ATOM     29  C   UNL     1       4.373   5.472  17.854  0.00  0.00    +0.000 A 
ATOM     30  C   UNL     1       3.582   4.475  18.434  0.00  0.00    +0.000 A 
ATOM     31  C   UNL     1       2.289   4.775  18.868  0.00  0.00    +0.000 A 
ATOM     32  C   UNL     1       1.796   6.073  18.679  0.00  0.00    +0.000 A 
BRANCH  31  33
ATOM     33  C   UNL     1       1.408   3.762  19.560  0.00  0.00    +0.000 C 
ATOM     34  F   UNL     1       0.391   4.305  20.273  0.00  0.00    +0.000 F 
ATOM     35  F   UNL     1       0.828   2.907  18.667  0.00  0.00    +0.000 F 
ATOM     36  F   UNL     1       2.106   2.972  20.421  0.00  0.00    +0.000 F 
ENDBRANCH  31  33
ENDBRANCH  25  27
ENDBRANCH   5  23
TORSDOF 7
ENDMDL
MODEL 6
REMARK VINA RESULT:      -8.6      4.645     10.213
REMARK  Name = 
REMARK  9 active torsions:
REMARK  status: ('A' for Active; 'I' for Inactive)
REMARK    1  A    between atoms: C_1  and  C_2
REMARK    2  A    between atoms: N_5  and  C_6
REMARK    3  A    between atoms: C_6  and  C_7
REMARK    4  A    between atoms: C_10  and  C_11
REMARK    5  A    between atoms: C_14  and  C_15
REMARK    6  A    between atoms: C_19  and  N_20
REMARK    7  A    between atoms: N_20  and  C_21
REMARK    8  A    between atoms: C_22  and  C_24
REMARK    9  A    between atoms: C_28  and  C_29
REMARK                            x       y       z     vdW  Elec       q    Type
REMARK                         _______ _______ _______ _____ _____    ______ ____
ROOT
ATOM      1  C   UNL     1       2.073   6.724  20.510  0.00  0.00    +0.000 C 
ATOM      2  C   UNL     1       1.005   5.627  20.448  0.00  0.00    +0.000 C 
ATOM      3  C   UNL     1       1.620   4.267  20.118  0.00  0.00    +0.000 C 
ATOM      4  C   UNL     1       2.400   4.303  18.804  0.00  0.00    +0.000 C 
ATOM      5  C   UNL     1       3.479   5.398  18.810  0.00  0.00    +0.000 C 
ATOM      6  C   UNL     1       2.905   6.760  19.218  0.00  0.00    +0.000 C 
ENDROOT
BRANCH   1  10
ATOM      7  C   UNL     1       0.610  10.031  20.259  0.00  0.00    +0.000 A 
ATOM      8  N   UNL     1       0.614   9.911  21.567  0.00  0.00    +0.000 NA
ATOM      9  N   UNL     1       1.150   8.674  21.879  0.00  0.00    +0.000 NA
ATOM     10  C   UNL     1       1.488   8.083  20.751  0.00  0.00    +0.000 A 
ATOM     11  N   UNL     1       1.172   8.918  19.717  0.00  0.00    +0.000 N 
ATOM     12  H   UNL     1       1.320   8.737  18.734  0.00  0.00    +0.000 HD
BRANCH   7  18
ATOM     13  C   UNL     1      -1.918  10.189  18.231  0.00  0.00    +0.000 C 
ATOM     14  C   UNL     1      -0.913  11.217  18.600  0.00  0.00    +0.000 A 
ATOM     15  N   UNL     1      -0.974  12.469  18.037  0.00  0.00    +0.000 NA
ATOM     16  C   UNL     1       0.012  13.144  18.575  0.00  0.00    +0.000 A 
ATOM     17  N   UNL     1       0.720  12.383  19.464  0.00  0.00    +0.000 N 
ATOM     18  C   UNL     1       0.149  11.134  19.489  0.00  0.00    +0.000 A 
BRANCH  17  19
ATOM     19  C   UNL     1       1.886  12.849  20.189  0.00  0.00    +0.000 C 
BRANCH  19  20
ATOM     20  C   UNL     1       2.416  14.163  19.657  0.00  0.00    +0.000 C 
ATOM     21  F   UNL     1       3.081  14.825  20.641  0.00  0.00    +0.000 F 
ATOM     22  F   UNL     1       3.336  13.916  18.688  0.00  0.00    +0.000 F 
ENDBRANCH  19  20
ENDBRANCH  17  19
ENDBRANCH   7  18
ENDBRANCH   1  10
BRANCH   5  23
ATOM     23  N   UNL     1       4.176   5.508  17.504  0.00  0.00    +0.000 N 
ATOM     24  C   UNL     1       4.312   6.851  16.936  0.00  0.00    +0.000 C 
ATOM     25  C   UNL     1       4.754   4.346  16.950  0.00  0.00    +0.000 C 
ATOM     26  O   UNL     1       4.618   3.240  17.467  0.00  0.00    +0.000 OA
BRANCH  25  27
ATOM     27  C   UNL     1       5.554   4.402  15.680  0.00  0.00    +0.000 A 
ATOM     28  C   UNL     1       6.839   4.963  15.708  0.00  0.00    +0.000 A 
ATOM     29  C   UNL     1       7.618   5.009  14.549  0.00  0.00    +0.000 A 
ATOM     30  C   UNL     1       7.141   4.465  13.353  0.00  0.00    +0.000 A 
ATOM     31  C   UNL     1       5.855   3.922  13.298  0.00  0.00    +0.000 A 
ATOM     32  C   UNL     1       5.052   3.968  14.446  0.00  0.00    +0.000 A 
BRANCH  31  33
ATOM     33  C   UNL     1       5.304   3.261  12.057  0.00  0.00    +0.000 C 
ATOM     34  F   UNL     1       5.666   1.963  11.910  0.00  0.00    +0.000 F 
ATOM     35  F   UNL     1       3.938   3.275  12.045  0.00  0.00    +0.000 F 
ATOM     36  F   UNL     1       5.685   3.901  10.918  0.00  0.00    +0.000 F 
ENDBRANCH  31  33
ENDBRANCH  25  27
ENDBRANCH   5  23
TORSDOF 7
ENDMDL
MODEL 7
REMARK VINA RESULT:      -8.5      5.200     10.335
REMARK  Name = 
REMARK  9 active torsions:
REMARK  status: ('A' for Active; 'I' for Inactive)
REMARK    1  A    between atoms: C_1  and  C_2
REMARK    2  A    between atoms: N_5  and  C_6
REMARK    3  A    between atoms: C_6  and  C_7
REMARK    4  A    between atoms: C_10  and  C_11
REMARK    5  A    between atoms: C_14  and  C_15
REMARK    6  A    between atoms: C_19  and  N_20
REMARK    7  A    between atoms: N_20  and  C_21
REMARK    8  A    between atoms: C_22  and  C_24
REMARK    9  A    between atoms: C_28  and  C_29
REMARK                            x       y       z     vdW  Elec       q    Type
REMARK                         _______ _______ _______ _____ _____    ______ ____
ROOT
ATOM      1  C   UNL     1       2.905   7.270  19.056  0.00  0.00    +0.000 C 
ATOM      2  C   UNL     1       2.011   6.279  19.808  0.00  0.00    +0.000 C 
ATOM      3  C   UNL     1       2.780   5.017  20.199  0.00  0.00    +0.000 C 
ATOM      4  C   UNL     1       3.398   4.333  18.980  0.00  0.00    +0.000 C 
ATOM      5  C   UNL     1       4.298   5.290  18.182  0.00  0.00    +0.000 C 
ATOM      6  C   UNL     1       3.577   6.601  17.846  0.00  0.00    +0.000 C 
ENDROOT
BRANCH   1  10
ATOM      7  C   UNL     1       0.634  10.059  18.608  0.00  0.00    +0.000 A 
ATOM      8  N   UNL     1       1.446  10.297  17.603  0.00  0.00    +0.000 NA
ATOM      9  N   UNL     1       2.419   9.314  17.601  0.00  0.00    +0.000 NA
ATOM     10  C   UNL     1       2.156   8.481  18.588  0.00  0.00    +0.000 A 
ATOM     11  N   UNL     1       1.033   8.919  19.230  0.00  0.00    +0.000 N 
ATOM     12  H   UNL     1       0.588   8.480  20.024  0.00  0.00    +0.000 HD
BRANCH   7  18
ATOM     13  C   UNL     1       0.261  12.041  21.150  0.00  0.00    +0.000 C 
ATOM     14  C   UNL     1      -0.698  11.643  20.090  0.00  0.00    +0.000 A 
ATOM     15  N   UNL     1      -1.982  12.134  20.106  0.00  0.00    +0.000 NA
ATOM     16  C   UNL     1      -2.563  11.632  19.045  0.00  0.00    +0.000 A 
ATOM     17  N   UNL     1      -1.715  10.826  18.337  0.00  0.00    +0.000 N 
ATOM     18  C   UNL     1      -0.510  10.809  18.997  0.00  0.00    +0.000 A 
BRANCH  17  19
ATOM     19  C   UNL     1      -2.088  10.106  17.136  0.00  0.00    +0.000 C 
BRANCH  19  20
ATOM     20  C   UNL     1      -2.690  11.006  16.079  0.00  0.00    +0.000 C 
ATOM     21  F   UNL     1      -2.427  10.508  14.842  0.00  0.00    +0.000 F 
ATOM     22  F   UNL     1      -4.044  10.999  16.202  0.00  0.00    +0.000 F 
ENDBRANCH  19  20
ENDBRANCH  17  19
ENDBRANCH   7  18
ENDBRANCH   1  10
BRANCH   5  23
ATOM     23  N   UNL     1       4.824   4.665  16.943  0.00  0.00    +0.000 N 
ATOM     24  C   UNL     1       4.598   3.228  16.778  0.00  0.00    +0.000 C 
ATOM     25  C   UNL     1       5.403   5.498  15.962  0.00  0.00    +0.000 C 
ATOM     26  O   UNL     1       5.567   6.703  16.144  0.00  0.00    +0.000 OA
BRANCH  25  27
ATOM     27  C   UNL     1       5.870   4.947  14.645  0.00  0.00    +0.000 A 
ATOM     28  C   UNL     1       7.241   4.958  14.350  0.00  0.00    +0.000 A 
ATOM     29  C   UNL     1       7.712   4.432  13.144  0.00  0.00    +0.000 A 
ATOM     30  C   UNL     1       6.825   3.856  12.230  0.00  0.00    +0.000 A 
ATOM     31  C   UNL     1       5.454   3.855  12.494  0.00  0.00    +0.000 A 
ATOM     32  C   UNL     1       4.990   4.469  13.665  0.00  0.00    +0.000 A 
BRANCH  31  33
ATOM     33  C   UNL     1       4.450   3.192  11.581  0.00  0.00    +0.000 C 
ATOM     34  F   UNL     1       3.261   2.912  12.170  0.00  0.00    +0.000 F 
ATOM     35  F   UNL     1       4.160   3.975  10.500  0.00  0.00    +0.000 F 
ATOM     36  F   UNL     1       4.913   2.020  11.068  0.00  0.00    +0.000 F 
ENDBRANCH  31  33
ENDBRANCH  25  27
ENDBRANCH   5  23
TORSDOF 7
ENDMDL
MODEL 8
REMARK VINA RESULT:      -8.5      4.722     10.228
REMARK  Name = 
REMARK  9 active torsions:
REMARK  status: ('A' for Active; 'I' for Inactive)
REMARK    1  A    between atoms: C_1  and  C_2
REMARK    2  A    between atoms: N_5  and  C_6
REMARK    3  A    between atoms: C_6  and  C_7
REMARK    4  A    between atoms: C_10  and  C_11
REMARK    5  A    between atoms: C_14  and  C_15
REMARK    6  A    between atoms: C_19  and  N_20
REMARK    7  A    between atoms: N_20  and  C_21
REMARK    8  A    between atoms: C_22  and  C_24
REMARK    9  A    between atoms: C_28  and  C_29
REMARK                            x       y       z     vdW  Elec       q    Type
REMARK                         _______ _______ _______ _____ _____    ______ ____
ROOT
ATOM      1  C   UNL     1      -1.186  11.651  19.191  0.00  0.00    +0.000 C 
ATOM      2  C   UNL     1      -1.018  12.208  20.609  0.00  0.00    +0.000 C 
ATOM      3  C   UNL     1       0.454  12.265  21.016  0.00  0.00    +0.000 C 
ATOM      4  C   UNL     1       1.121  10.894  20.918  0.00  0.00    +0.000 C 
ATOM      5  C   UNL     1       0.971  10.284  19.514  0.00  0.00    +0.000 C 
ATOM      6  C   UNL     1      -0.489  10.289  19.046  0.00  0.00    +0.000 C 
ENDROOT
BRANCH   1  10
ATOM      7  C   UNL     1      -4.757  12.005  18.678  0.00  0.00    +0.000 A 
ATOM      8  N   UNL     1      -4.546  10.957  17.914  0.00  0.00    +0.000 NA
ATOM      9  N   UNL     1      -3.198  10.653  17.971  0.00  0.00    +0.000 NA
ATOM     10  C   UNL     1      -2.625  11.507  18.797  0.00  0.00    +0.000 A 
ATOM     11  N   UNL     1      -3.583  12.360  19.265  0.00  0.00    +0.000 N 
ATOM     12  H   UNL     1      -3.443  13.117  19.919  0.00  0.00    +0.000 HD
BRANCH   7  18
ATOM     13  C   UNL     1      -6.634  13.649  16.604  0.00  0.00    +0.000 C 
ATOM     14  C   UNL     1      -6.797  13.395  18.057  0.00  0.00    +0.000 A 
ATOM     15  N   UNL     1      -7.884  13.906  18.725  0.00  0.00    +0.000 NA
ATOM     16  C   UNL     1      -7.761  13.492  19.962  0.00  0.00    +0.000 A 
ATOM     17  N   UNL     1      -6.635  12.736  20.134  0.00  0.00    +0.000 N 
ATOM     18  C   UNL     1      -5.991  12.668  18.922  0.00  0.00    +0.000 A 
BRANCH  17  19
ATOM     19  C   UNL     1      -6.218  12.169  21.401  0.00  0.00    +0.000 C 
BRANCH  19  20
ATOM     20  C   UNL     1      -5.679  13.212  22.356  0.00  0.00    +0.000 C 
ATOM     21  F   UNL     1      -4.840  12.627  23.252  0.00  0.00    +0.000 F 
ATOM     22  F   UNL     1      -4.921  14.104  21.666  0.00  0.00    +0.000 F 
ENDBRANCH  19  20
ENDBRANCH  17  19
ENDBRANCH   7  18
ENDBRANCH   1  10
BRANCH   5  23
ATOM     23  N   UNL     1       1.528   8.911  19.435  0.00  0.00    +0.000 N 
ATOM     24  C   UNL     1       1.385   8.068  20.624  0.00  0.00    +0.000 C 
ATOM     25  C   UNL     1       2.054   8.468  18.203  0.00  0.00    +0.000 C 
ATOM     26  O   UNL     1       2.148   9.212  17.229  0.00  0.00    +0.000 OA
BRANCH  25  27
ATOM     27  C   UNL     1       2.548   7.061  18.025  0.00  0.00    +0.000 A 
ATOM     28  C   UNL     1       1.627   6.004  18.078  0.00  0.00    +0.000 A 
ATOM     29  C   UNL     1       2.050   4.685  17.895  0.00  0.00    +0.000 A 
ATOM     30  C   UNL     1       3.391   4.404  17.620  0.00  0.00    +0.000 A 
ATOM     31  C   UNL     1       4.328   5.439  17.585  0.00  0.00    +0.000 A 
ATOM     32  C   UNL     1       3.903   6.745  17.864  0.00  0.00    +0.000 A 
BRANCH  31  33
ATOM     33  C   UNL     1       5.778   5.212  17.231  0.00  0.00    +0.000 C 
ATOM     34  F   UNL     1       6.542   4.781  18.266  0.00  0.00    +0.000 F 
ATOM     35  F   UNL     1       5.915   4.277  16.246  0.00  0.00    +0.000 F 
ATOM     36  F   UNL     1       6.375   6.337  16.752  0.00  0.00    +0.000 F 
ENDBRANCH  31  33
ENDBRANCH  25  27
ENDBRANCH   5  23
TORSDOF 7
ENDMDL
MODEL 9
REMARK VINA RESULT:      -8.5      4.495     10.569
REMARK  Name = 
REMARK  9 active torsions:
REMARK  status: ('A' for Active; 'I' for Inactive)
REMARK    1  A    between atoms: C_1  and  C_2
REMARK    2  A    between atoms: N_5  and  C_6
REMARK    3  A    between atoms: C_6  and  C_7
REMARK    4  A    between atoms: C_10  and  C_11
REMARK    5  A    between atoms: C_14  and  C_15
REMARK    6  A    between atoms: C_19  and  N_20
REMARK    7  A    between atoms: N_20  and  C_21
REMARK    8  A    between atoms: C_22  and  C_24
REMARK    9  A    between atoms: C_28  and  C_29
REMARK                            x       y       z     vdW  Elec       q    Type
REMARK                         _______ _______ _______ _____ _____    ______ ____
ROOT
ATOM      1  C   UNL     1      -1.366  11.757  17.771  0.00  0.00    +0.000 C 
ATOM      2  C   UNL     1      -0.937  13.006  18.549  0.00  0.00    +0.000 C 
ATOM      3  C   UNL     1       0.584  13.088  18.681  0.00  0.00    +0.000 C 
ATOM      4  C   UNL     1       1.161  11.840  19.348  0.00  0.00    +0.000 C 
ATOM      5  C   UNL     1       0.749  10.555  18.611  0.00  0.00    +0.000 C 
ATOM      6  C   UNL     1      -0.767  10.485  18.394  0.00  0.00    +0.000 C 
ENDROOT
BRANCH   1  10
ATOM      7  C   UNL     1      -4.938  11.677  18.381  0.00  0.00    +0.000 A 
ATOM      8  N   UNL     1      -4.942  11.336  17.112  0.00  0.00    +0.000 NA
ATOM      9  N   UNL     1      -3.631  11.312  16.674  0.00  0.00    +0.000 NA
ATOM     10  C   UNL     1      -2.856  11.608  17.699  0.00  0.00    +0.000 A 
ATOM     11  N   UNL     1      -3.650  11.830  18.787  0.00  0.00    +0.000 N 
ATOM     12  H   UNL     1      -3.338  12.071  19.717  0.00  0.00    +0.000 HD
BRANCH   7  18
ATOM     13  C   UNL     1      -6.956   9.408  19.526  0.00  0.00    +0.000 C 
ATOM     14  C   UNL     1      -6.947  10.879  19.726  0.00  0.00    +0.000 A 
ATOM     15  N   UNL     1      -7.916  11.472  20.499  0.00  0.00    +0.000 NA
ATOM     16  C   UNL     1      -7.624  12.750  20.507  0.00  0.00    +0.000 A 
ATOM     17  N   UNL     1      -6.507  13.019  19.766  0.00  0.00    +0.000 N 
ATOM     18  C   UNL     1      -6.058  11.829  19.243  0.00  0.00    +0.000 A 
BRANCH  17  19
ATOM     19  C   UNL     1      -5.963  14.347  19.563  0.00  0.00    +0.000 C 
BRANCH  19  20
ATOM     20  C   UNL     1      -6.702  15.123  18.495  0.00  0.00    +0.000 C 
ATOM     21  F   UNL     1      -6.186  16.376  18.394  0.00  0.00    +0.000 F 
ATOM     22  F   UNL     1      -6.491  14.536  17.287  0.00  0.00    +0.000 F 
ENDBRANCH  19  20
ENDBRANCH  17  19
ENDBRANCH   7  18
ENDBRANCH   1  10
BRANCH   5  23
ATOM     23  N   UNL     1       1.222   9.332  19.308  0.00  0.00    +0.000 N 
ATOM     24  C   UNL     1       0.800   9.156  20.698  0.00  0.00    +0.000 C 
ATOM     25  C   UNL     1       1.944   8.373  18.567  0.00  0.00    +0.000 C 
ATOM     26  O   UNL     1       2.271   8.563  17.397  0.00  0.00    +0.000 OA
BRANCH  25  27
ATOM     27  C   UNL     1       2.371   7.071  19.181  0.00  0.00    +0.000 A 
ATOM     28  C   UNL     1       1.553   6.475  20.153  0.00  0.00    +0.000 A 
ATOM     29  C   UNL     1       1.909   5.253  20.728  0.00  0.00    +0.000 A 
ATOM     30  C   UNL     1       3.069   4.590  20.318  0.00  0.00    +0.000 A 
ATOM     31  C   UNL     1       3.910   5.176  19.369  0.00  0.00    +0.000 A 
ATOM     32  C   UNL     1       3.585   6.445  18.871  0.00  0.00    +0.000 A 
BRANCH  31  33
ATOM     33  C   UNL     1       5.142   4.485  18.836  0.00  0.00    +0.000 C 
ATOM     34  F   UNL     1       5.240   4.487  17.483  0.00  0.00    +0.000 F 
ATOM     35  F   UNL     1       6.286   5.069  19.298  0.00  0.00    +0.000 F 
ATOM     36  F   UNL     1       5.214   3.183  19.227  0.00  0.00    +0.000 F 
ENDBRANCH  31  33
ENDBRANCH  25  27
ENDBRANCH   5  23
TORSDOF 7
ENDMDL
