MODEL 1
REMARK VINA RESULT:      -6.0      0.000      0.000
REMARK  Name = 
REMARK  9 active torsions:
REMARK  status: ('A' for Active; 'I' for Inactive)
REMARK    1  A    between atoms: N_1  and  C_2
REMARK    2  A    between atoms: N_10  and  C_11
REMARK    3  A    between atoms: C_11  and  C_12
REMARK    4  A    between atoms: C_12  and  O_13
REMARK    5  A    between atoms: C_12  and  C_14
REMARK    6  A    between atoms: C_14  and  S_15
REMARK    7  A    between atoms: S_15  and  C_16
REMARK    8  A    between atoms: C_16  and  C_17
REMARK    9  A    between atoms: C_17  and  O_18
REMARK                            x       y       z     vdW  Elec       q    Type
REMARK                         _______ _______ _______ _____ _____    ______ ____
ROOT
ATOM      1  C   UNL     1       7.242   6.938  17.772  0.00  0.00    +0.000 A 
ATOM      2  N   UNL     1       8.148   6.777  18.765  0.00  0.00    +0.000 NA
ATOM      3  C   UNL     1       7.950   5.782  19.658  0.00  0.00    +0.000 A 
ATOM      4  N   UNL     1       6.946   4.880  19.702  0.00  0.00    +0.000 NA
ATOM      5  C   UNL     1       6.090   5.073  18.688  0.00  0.00    +0.000 A 
ATOM      6  C   UNL     1       6.163   6.042  17.697  0.00  0.00    +0.000 A 
ATOM      7  N   UNL     1       5.123   5.909  16.797  0.00  0.00    +0.000 NA
ATOM      8  C   UNL     1       4.415   4.897  17.252  0.00  0.00    +0.000 A 
ATOM      9  N   UNL     1       4.953   4.373  18.396  0.00  0.00    +0.000 N 
ENDROOT
BRANCH   1  10
ATOM     10  N   UNL     1       7.431   7.972  16.864  0.00  0.00    +0.000 N 
ATOM     11  H   UNL     1       8.408   8.147  16.676  0.00  0.00    +0.000 HD
ATOM     12  H   UNL     1       6.791   7.937  16.078  0.00  0.00    +0.000 HD
ENDBRANCH   1  10
BRANCH   9  13
ATOM     13  C   UNL     1       4.423   3.251  19.146  0.00  0.00    +0.000 C 
BRANCH  13  14
ATOM     14  C   UNL     1       3.563   2.320  18.275  0.00  0.00    +0.000 C 
BRANCH  14  15
ATOM     15  O   UNL     1       4.238   1.066  18.087  0.00  0.00    +0.000 OA
ATOM     16  H   UNL     1       4.198   0.814  17.148  0.00  0.00    +0.000 HD
ENDBRANCH  14  15
BRANCH  14  17
ATOM     17  C   UNL     1       2.181   2.034  18.890  0.00  0.00    +0.000 C 
BRANCH  17  18
ATOM     18  S   UNL     1       1.070   3.467  18.751  0.00  0.00    +0.000 S 
BRANCH  18  19
ATOM     19  C   UNL     1       1.072   4.033  20.486  0.00  0.00    +0.000 C 
BRANCH  19  20
ATOM     20  C   UNL     1       1.309   2.825  21.391  0.00  0.00    +0.000 C 
BRANCH  20  21
ATOM     21  O   UNL     1       2.480   3.002  22.183  0.00  0.00    +0.000 OA
ATOM     22  H   UNL     1       3.237   2.866  21.579  0.00  0.00    +0.000 HD
ENDBRANCH  20  21
ENDBRANCH  19  20
ENDBRANCH  18  19
ENDBRANCH  17  18
ENDBRANCH  14  17
ENDBRANCH  13  14
ENDBRANCH   9  13
TORSDOF 9
ENDMDL
MODEL 2
REMARK VINA RESULT:      -6.0      1.289      1.434
REMARK  Name = 
REMARK  9 active torsions:
REMARK  status: ('A' for Active; 'I' for Inactive)
REMARK    1  A    between atoms: N_1  and  C_2
REMARK    2  A    between atoms: N_10  and  C_11
REMARK    3  A    between atoms: C_11  and  C_12
REMARK    4  A    between atoms: C_12  and  O_13
REMARK    5  A    between atoms: C_12  and  C_14
REMARK    6  A    between atoms: C_14  and  S_15
REMARK    7  A    between atoms: S_15  and  C_16
REMARK    8  A    between atoms: C_16  and  C_17
REMARK    9  A    between atoms: C_17  and  O_18
REMARK                            x       y       z     vdW  Elec       q    Type
REMARK                         _______ _______ _______ _____ _____    ______ ____
ROOT
ATOM      1  C   UNL     1       7.498   7.278  17.751  0.00  0.00    +0.000 A 
ATOM      2  N   UNL     1       8.162   6.778  18.820  0.00  0.00    +0.000 NA
ATOM      3  C   UNL     1       7.795   5.566  19.293  0.00  0.00    +0.000 A 
ATOM      4  N   UNL     1       6.830   4.742  18.832  0.00  0.00    +0.000 NA
ATOM      5  C   UNL     1       6.219   5.276  17.764  0.00  0.00    +0.000 A 
ATOM      6  C   UNL     1       6.488   6.499  17.165  0.00  0.00    +0.000 A 
ATOM      7  N   UNL     1       5.681   6.698  16.061  0.00  0.00    +0.000 NA
ATOM      8  C   UNL     1       4.915   5.628  16.011  0.00  0.00    +0.000 A 
ATOM      9  N   UNL     1       5.195   4.753  17.025  0.00  0.00    +0.000 N 
ENDROOT
BRANCH   1  10
ATOM     10  N   UNL     1       7.860   8.531  17.275  0.00  0.00    +0.000 N 
ATOM     11  H   UNL     1       8.338   9.086  17.971  0.00  0.00    +0.000 HD
ATOM     12  H   UNL     1       8.243   8.508  16.336  0.00  0.00    +0.000 HD
ENDBRANCH   1  10
BRANCH   9  13
ATOM     13  C   UNL     1       4.539   3.480  17.254  0.00  0.00    +0.000 C 
BRANCH  13  14
ATOM     14  C   UNL     1       3.629   3.507  18.493  0.00  0.00    +0.000 C 
BRANCH  14  15
ATOM     15  O   UNL     1       4.401   3.225  19.673  0.00  0.00    +0.000 OA
ATOM     16  H   UNL     1       5.263   2.858  19.415  0.00  0.00    +0.000 HD
ENDBRANCH  14  15
BRANCH  14  17
ATOM     17  C   UNL     1       2.927   4.863  18.691  0.00  0.00    +0.000 C 
BRANCH  17  18
ATOM     18  S   UNL     1       2.307   5.061  20.388  0.00  0.00    +0.000 S 
BRANCH  18  19
ATOM     19  C   UNL     1       0.983   3.806  20.386  0.00  0.00    +0.000 C 
BRANCH  19  20
ATOM     20  C   UNL     1       1.356   2.705  21.377  0.00  0.00    +0.000 C 
BRANCH  20  21
ATOM     21  O   UNL     1       2.543   3.041  22.092  0.00  0.00    +0.000 OA
ATOM     22  H   UNL     1       2.291   3.067  23.036  0.00  0.00    +0.000 HD
ENDBRANCH  20  21
ENDBRANCH  19  20
ENDBRANCH  18  19
ENDBRANCH  17  18
ENDBRANCH  14  17
ENDBRANCH  13  14
ENDBRANCH   9  13
TORSDOF 9
ENDMDL
MODEL 3
REMARK VINA RESULT:      -6.0      1.896      2.264
REMARK  Name = 
REMARK  9 active torsions:
REMARK  status: ('A' for Active; 'I' for Inactive)
REMARK    1  A    between atoms: N_1  and  C_2
REMARK    2  A    between atoms: N_10  and  C_11
REMARK    3  A    between atoms: C_11  and  C_12
REMARK    4  A    between atoms: C_12  and  O_13
REMARK    5  A    between atoms: C_12  and  C_14
REMARK    6  A    between atoms: C_14  and  S_15
REMARK    7  A    between atoms: S_15  and  C_16
REMARK    8  A    between atoms: C_16  and  C_17
REMARK    9  A    between atoms: C_17  and  O_18
REMARK                            x       y       z     vdW  Elec       q    Type
REMARK                         _______ _______ _______ _____ _____    ______ ____
ROOT
ATOM      1  C   UNL     1       6.638   6.465  16.764  0.00  0.00    +0.000 A 
ATOM      2  N   UNL     1       7.400   5.606  16.048  0.00  0.00    +0.000 NA
ATOM      3  C   UNL     1       6.900   4.379  15.778  0.00  0.00    +0.000 A 
ATOM      4  N   UNL     1       5.700   3.866  16.124  0.00  0.00    +0.000 NA
ATOM      5  C   UNL     1       4.981   4.764  16.814  0.00  0.00    +0.000 A 
ATOM      6  C   UNL     1       5.355   6.054  17.160  0.00  0.00    +0.000 A 
ATOM      7  N   UNL     1       4.339   6.699  17.840  0.00  0.00    +0.000 NA
ATOM      8  C   UNL     1       3.378   5.804  17.931  0.00  0.00    +0.000 A 
ATOM      9  N   UNL     1       3.728   4.620  17.339  0.00  0.00    +0.000 N 
ENDROOT
BRANCH   1  10
ATOM     10  N   UNL     1       7.156   7.720  17.060  0.00  0.00    +0.000 N 
ATOM     11  H   UNL     1       6.653   8.464  16.598  0.00  0.00    +0.000 HD
ATOM     12  H   UNL     1       7.387   7.837  18.041  0.00  0.00    +0.000 HD
ENDBRANCH   1  10
BRANCH   9  13
ATOM     13  C   UNL     1       2.897   3.434  17.259  0.00  0.00    +0.000 C 
BRANCH  13  14
ATOM     14  C   UNL     1       3.301   2.368  18.291  0.00  0.00    +0.000 C 
BRANCH  14  15
ATOM     15  O   UNL     1       4.252   1.460  17.709  0.00  0.00    +0.000 OA
ATOM     16  H   UNL     1       4.679   1.884  16.945  0.00  0.00    +0.000 HD
ENDBRANCH  14  15
BRANCH  14  17
ATOM     17  C   UNL     1       3.928   2.972  19.560  0.00  0.00    +0.000 C 
BRANCH  17  18
ATOM     18  S   UNL     1       2.955   2.580  21.046  0.00  0.00    +0.000 S 
BRANCH  18  19
ATOM     19  C   UNL     1       2.168   4.199  21.340  0.00  0.00    +0.000 C 
BRANCH  19  20
ATOM     20  C   UNL     1       1.011   4.363  20.357  0.00  0.00    +0.000 C 
BRANCH  20  21
ATOM     21  O   UNL     1       0.320   3.130  20.171  0.00  0.00    +0.000 OA
ATOM     22  H   UNL     1       1.001   2.431  20.211  0.00  0.00    +0.000 HD
ENDBRANCH  20  21
ENDBRANCH  19  20
ENDBRANCH  18  19
ENDBRANCH  17  18
ENDBRANCH  14  17
ENDBRANCH  13  14
ENDBRANCH   9  13
TORSDOF 9
ENDMDL
MODEL 4
REMARK VINA RESULT:      -5.8      1.465      2.219
REMARK  Name = 
REMARK  9 active torsions:
REMARK  status: ('A' for Active; 'I' for Inactive)
REMARK    1  A    between atoms: N_1  and  C_2
REMARK    2  A    between atoms: N_10  and  C_11
REMARK    3  A    between atoms: C_11  and  C_12
REMARK    4  A    between atoms: C_12  and  O_13
REMARK    5  A    between atoms: C_12  and  C_14
REMARK    6  A    between atoms: C_14  and  S_15
REMARK    7  A    between atoms: S_15  and  C_16
REMARK    8  A    between atoms: C_16  and  C_17
REMARK    9  A    between atoms: C_17  and  O_18
REMARK                            x       y       z     vdW  Elec       q    Type
REMARK                         _______ _______ _______ _____ _____    ______ ____
ROOT
ATOM      1  C   UNL     1       6.927   5.907  16.832  0.00  0.00    +0.000 A 
ATOM      2  N   UNL     1       7.267   5.465  15.599  0.00  0.00    +0.000 NA
ATOM      3  C   UNL     1       6.432   4.603  14.975  0.00  0.00    +0.000 A 
ATOM      4  N   UNL     1       5.257   4.105  15.415  0.00  0.00    +0.000 NA
ATOM      5  C   UNL     1       4.961   4.589  16.630  0.00  0.00    +0.000 A 
ATOM      6  C   UNL     1       5.710   5.479  17.387  0.00  0.00    +0.000 A 
ATOM      7  N   UNL     1       5.070   5.782  18.574  0.00  0.00    +0.000 NA
ATOM      8  C   UNL     1       3.967   5.064  18.550  0.00  0.00    +0.000 A 
ATOM      9  N   UNL     1       3.868   4.321  17.405  0.00  0.00    +0.000 N 
ENDROOT
BRANCH   1  10
ATOM     10  N   UNL     1       7.791   6.777  17.485  0.00  0.00    +0.000 N 
ATOM     11  H   UNL     1       8.411   7.256  16.847  0.00  0.00    +0.000 HD
ATOM     12  H   UNL     1       7.339   7.321  18.211  0.00  0.00    +0.000 HD
ENDBRANCH   1  10
BRANCH   9  13
ATOM     13  C   UNL     1       2.776   3.429  17.064  0.00  0.00    +0.000 C 
BRANCH  13  14
ATOM     14  C   UNL     1       2.913   2.054  17.739  0.00  0.00    +0.000 C 
BRANCH  14  15
ATOM     15  O   UNL     1       4.302   1.742  17.935  0.00  0.00    +0.000 OA
ATOM     16  H   UNL     1       4.385   1.045  18.608  0.00  0.00    +0.000 HD
ENDBRANCH  14  15
BRANCH  14  17
ATOM     17  C   UNL     1       2.207   1.986  19.105  0.00  0.00    +0.000 C 
BRANCH  17  18
ATOM     18  S   UNL     1       0.706   3.010  19.142  0.00  0.00    +0.000 S 
BRANCH  18  19
ATOM     19  C   UNL     1       1.054   4.024  20.618  0.00  0.00    +0.000 C 
BRANCH  19  20
ATOM     20  C   UNL     1       2.147   3.335  21.434  0.00  0.00    +0.000 C 
BRANCH  20  21
ATOM     21  O   UNL     1       1.583   2.461  22.408  0.00  0.00    +0.000 OA
ATOM     22  H   UNL     1       0.691   2.231  22.080  0.00  0.00    +0.000 HD
ENDBRANCH  20  21
ENDBRANCH  19  20
ENDBRANCH  18  19
ENDBRANCH  17  18
ENDBRANCH  14  17
ENDBRANCH  13  14
ENDBRANCH   9  13
TORSDOF 9
ENDMDL
MODEL 5
REMARK VINA RESULT:      -5.8      1.688      1.841
REMARK  Name = 
REMARK  9 active torsions:
REMARK  status: ('A' for Active; 'I' for Inactive)
REMARK    1  A    between atoms: N_1  and  C_2
REMARK    2  A    between atoms: N_10  and  C_11
REMARK    3  A    between atoms: C_11  and  C_12
REMARK    4  A    between atoms: C_12  and  O_13
REMARK    5  A    between atoms: C_12  and  C_14
REMARK    6  A    between atoms: C_14  and  S_15
REMARK    7  A    between atoms: S_15  and  C_16
REMARK    8  A    between atoms: C_16  and  C_17
REMARK    9  A    between atoms: C_17  and  O_18
REMARK                            x       y       z     vdW  Elec       q    Type
REMARK                         _______ _______ _______ _____ _____    ______ ____
ROOT
ATOM      1  C   UNL     1       7.498   7.105  17.746  0.00  0.00    +0.000 A 
ATOM      2  N   UNL     1       7.976   6.612  18.912  0.00  0.00    +0.000 NA
ATOM      3  C   UNL     1       7.472   5.443  19.368  0.00  0.00    +0.000 A 
ATOM      4  N   UNL     1       6.530   4.657  18.804  0.00  0.00    +0.000 NA
ATOM      5  C   UNL     1       6.106   5.182  17.644  0.00  0.00    +0.000 A 
ATOM      6  C   UNL     1       6.531   6.362  17.049  0.00  0.00    +0.000 A 
ATOM      7  N   UNL     1       5.897   6.562  15.838  0.00  0.00    +0.000 NA
ATOM      8  C   UNL     1       5.079   5.537  15.716  0.00  0.00    +0.000 A 
ATOM      9  N   UNL     1       5.162   4.690  16.787  0.00  0.00    +0.000 N 
ENDROOT
BRANCH   1  10
ATOM     10  N   UNL     1       7.999   8.315  17.284  0.00  0.00    +0.000 N 
ATOM     11  H   UNL     1       7.290   8.885  16.844  0.00  0.00    +0.000 HD
ATOM     12  H   UNL     1       8.634   8.761  17.937  0.00  0.00    +0.000 HD
ENDBRANCH   1  10
BRANCH   9  13
ATOM     13  C   UNL     1       4.403   3.467  16.963  0.00  0.00    +0.000 C 
BRANCH  13  14
ATOM     14  C   UNL     1       2.886   3.718  16.969  0.00  0.00    +0.000 C 
BRANCH  14  15
ATOM     15  O   UNL     1       2.190   2.498  17.278  0.00  0.00    +0.000 OA
ATOM     16  H   UNL     1       1.367   2.456  16.762  0.00  0.00    +0.000 HD
ENDBRANCH  14  15
BRANCH  14  17
ATOM     17  C   UNL     1       2.460   4.785  17.993  0.00  0.00    +0.000 C 
BRANCH  17  18
ATOM     18  S   UNL     1       1.741   4.040  19.487  0.00  0.00    +0.000 S 
BRANCH  18  19
ATOM     19  C   UNL     1       3.250   3.843  20.495  0.00  0.00    +0.000 C 
BRANCH  19  20
ATOM     20  C   UNL     1       3.706   2.388  20.408  0.00  0.00    +0.000 C 
BRANCH  20  21
ATOM     21  O   UNL     1       5.080   2.304  20.040  0.00  0.00    +0.000 OA
ATOM     22  H   UNL     1       5.091   2.145  19.075  0.00  0.00    +0.000 HD
ENDBRANCH  20  21
ENDBRANCH  19  20
ENDBRANCH  18  19
ENDBRANCH  17  18
ENDBRANCH  14  17
ENDBRANCH  13  14
ENDBRANCH   9  13
TORSDOF 9
ENDMDL
MODEL 6
REMARK VINA RESULT:      -5.6      2.358      3.479
REMARK  Name = 
REMARK  9 active torsions:
REMARK  status: ('A' for Active; 'I' for Inactive)
REMARK    1  A    between atoms: N_1  and  C_2
REMARK    2  A    between atoms: N_10  and  C_11
REMARK    3  A    between atoms: C_11  and  C_12
REMARK    4  A    between atoms: C_12  and  O_13
REMARK    5  A    between atoms: C_12  and  C_14
REMARK    6  A    between atoms: C_14  and  S_15
REMARK    7  A    between atoms: S_15  and  C_16
REMARK    8  A    between atoms: C_16  and  C_17
REMARK    9  A    between atoms: C_17  and  O_18
REMARK                            x       y       z     vdW  Elec       q    Type
REMARK                         _______ _______ _______ _____ _____    ______ ____
ROOT
ATOM      1  C   UNL     1       7.157   5.013  14.664  0.00  0.00    +0.000 A 
ATOM      2  N   UNL     1       6.432   3.958  14.224  0.00  0.00    +0.000 NA
ATOM      3  C   UNL     1       5.533   3.401  15.066  0.00  0.00    +0.000 A 
ATOM      4  N   UNL     1       5.233   3.762  16.332  0.00  0.00    +0.000 NA
ATOM      5  C   UNL     1       5.965   4.821  16.710  0.00  0.00    +0.000 A 
ATOM      6  C   UNL     1       6.915   5.499  15.959  0.00  0.00    +0.000 A 
ATOM      7  N   UNL     1       7.438   6.564  16.667  0.00  0.00    +0.000 NA
ATOM      8  C   UNL     1       6.838   6.514  17.837  0.00  0.00    +0.000 A 
ATOM      9  N   UNL     1       5.954   5.472  17.912  0.00  0.00    +0.000 N 
ENDROOT
BRANCH   1  10
ATOM     10  N   UNL     1       8.095   5.575  13.808  0.00  0.00    +0.000 N 
ATOM     11  H   UNL     1       8.732   6.196  14.287  0.00  0.00    +0.000 HD
ATOM     12  H   UNL     1       8.481   4.912  13.145  0.00  0.00    +0.000 HD
ENDBRANCH   1  10
BRANCH   9  13
ATOM     13  C   UNL     1       5.128   5.140  19.057  0.00  0.00    +0.000 C 
BRANCH  13  14
ATOM     14  C   UNL     1       3.734   5.786  18.979  0.00  0.00    +0.000 C 
BRANCH  14  15
ATOM     15  O   UNL     1       3.043   5.315  17.809  0.00  0.00    +0.000 OA
ATOM     16  H   UNL     1       2.451   4.584  18.056  0.00  0.00    +0.000 HD
ENDBRANCH  14  15
BRANCH  14  17
ATOM     17  C   UNL     1       2.862   5.477  20.209  0.00  0.00    +0.000 C 
BRANCH  17  18
ATOM     18  S   UNL     1       1.552   4.277  19.823  0.00  0.00    +0.000 S 
BRANCH  18  19
ATOM     19  C   UNL     1       2.455   2.720  20.125  0.00  0.00    +0.000 C 
BRANCH  19  20
ATOM     20  C   UNL     1       2.376   1.862  18.864  0.00  0.00    +0.000 C 
BRANCH  20  21
ATOM     21  O   UNL     1       3.195   2.399  17.828  0.00  0.00    +0.000 OA
ATOM     22  H   UNL     1       3.166   3.370  17.938  0.00  0.00    +0.000 HD
ENDBRANCH  20  21
ENDBRANCH  19  20
ENDBRANCH  18  19
ENDBRANCH  17  18
ENDBRANCH  14  17
ENDBRANCH  13  14
ENDBRANCH   9  13
TORSDOF 9
ENDMDL
MODEL 7
REMARK VINA RESULT:      -5.6      1.976      2.554
REMARK  Name = 
REMARK  9 active torsions:
REMARK  status: ('A' for Active; 'I' for Inactive)
REMARK    1  A    between atoms: N_1  and  C_2
REMARK    2  A    between atoms: N_10  and  C_11
REMARK    3  A    between atoms: C_11  and  C_12
REMARK    4  A    between atoms: C_12  and  O_13
REMARK    5  A    between atoms: C_12  and  C_14
REMARK    6  A    between atoms: C_14  and  S_15
REMARK    7  A    between atoms: S_15  and  C_16
REMARK    8  A    between atoms: C_16  and  C_17
REMARK    9  A    between atoms: C_17  and  O_18
REMARK                            x       y       z     vdW  Elec       q    Type
REMARK                         _______ _______ _______ _____ _____    ______ ____
ROOT
ATOM      1  C   UNL     1       7.089   6.077  16.630  0.00  0.00    +0.000 A 
ATOM      2  N   UNL     1       7.330   5.619  15.380  0.00  0.00    +0.000 NA
ATOM      3  C   UNL     1       6.726   4.474  14.990  0.00  0.00    +0.000 A 
ATOM      4  N   UNL     1       5.877   3.692  15.689  0.00  0.00    +0.000 NA
ATOM      5  C   UNL     1       5.660   4.201  16.911  0.00  0.00    +0.000 A 
ATOM      6  C   UNL     1       6.199   5.362  17.447  0.00  0.00    +0.000 A 
ATOM      7  N   UNL     1       5.717   5.589  18.722  0.00  0.00    +0.000 NA
ATOM      8  C   UNL     1       4.924   4.567  18.966  0.00  0.00    +0.000 A 
ATOM      9  N   UNL     1       4.871   3.700  17.909  0.00  0.00    +0.000 N 
ENDROOT
BRANCH   1  10
ATOM     10  N   UNL     1       7.723   7.243  17.042  0.00  0.00    +0.000 N 
ATOM     11  H   UNL     1       8.730   7.178  16.980  0.00  0.00    +0.000 HD
ATOM     12  H   UNL     1       7.276   8.085  16.696  0.00  0.00    +0.000 HD
ENDBRANCH   1  10
BRANCH   9  13
ATOM     13  C   UNL     1       4.088   2.481  17.849  0.00  0.00    +0.000 C 
BRANCH  13  14
ATOM     14  C   UNL     1       2.659   2.677  18.383  0.00  0.00    +0.000 C 
BRANCH  14  15
ATOM     15  O   UNL     1       1.724   1.984  17.540  0.00  0.00    +0.000 OA
ATOM     16  H   UNL     1       0.832   2.052  17.922  0.00  0.00    +0.000 HD
ENDBRANCH  14  15
BRANCH  14  17
ATOM     17  C   UNL     1       2.483   2.162  19.822  0.00  0.00    +0.000 C 
BRANCH  17  18
ATOM     18  S   UNL     1       1.205   3.093  20.720  0.00  0.00    +0.000 S 
BRANCH  18  19
ATOM     19  C   UNL     1       2.188   4.532  21.261  0.00  0.00    +0.000 C 
BRANCH  19  20
ATOM     20  C   UNL     1       1.709   5.763  20.495  0.00  0.00    +0.000 C 
BRANCH  20  21
ATOM     21  O   UNL     1       2.799   6.628  20.184  0.00  0.00    +0.000 OA
ATOM     22  H   UNL     1       3.445   6.519  20.910  0.00  0.00    +0.000 HD
ENDBRANCH  20  21
ENDBRANCH  19  20
ENDBRANCH  18  19
ENDBRANCH  17  18
ENDBRANCH  14  17
ENDBRANCH  13  14
ENDBRANCH   9  13
TORSDOF 9
ENDMDL
MODEL 8
REMARK VINA RESULT:      -5.6      2.145      3.216
REMARK  Name = 
REMARK  9 active torsions:
REMARK  status: ('A' for Active; 'I' for Inactive)
REMARK    1  A    between atoms: N_1  and  C_2
REMARK    2  A    between atoms: N_10  and  C_11
REMARK    3  A    between atoms: C_11  and  C_12
REMARK    4  A    between atoms: C_12  and  O_13
REMARK    5  A    between atoms: C_12  and  C_14
REMARK    6  A    between atoms: C_14  and  S_15
REMARK    7  A    between atoms: S_15  and  C_16
REMARK    8  A    between atoms: C_16  and  C_17
REMARK    9  A    between atoms: C_17  and  O_18
REMARK                            x       y       z     vdW  Elec       q    Type
REMARK                         _______ _______ _______ _____ _____    ______ ____
ROOT
ATOM      1  C   UNL     1       7.102   5.003  14.638  0.00  0.00    +0.000 A 
ATOM      2  N   UNL     1       6.345   3.919  14.349  0.00  0.00    +0.000 NA
ATOM      3  C   UNL     1       5.614   3.365  15.342  0.00  0.00    +0.000 A 
ATOM      4  N   UNL     1       5.517   3.755  16.631  0.00  0.00    +0.000 NA
ATOM      5  C   UNL     1       6.270   4.842  16.857  0.00  0.00    +0.000 A 
ATOM      6  C   UNL     1       7.063   5.521  15.942  0.00  0.00    +0.000 A 
ATOM      7  N   UNL     1       7.665   6.618  16.527  0.00  0.00    +0.000 NA
ATOM      8  C   UNL     1       7.268   6.587  17.782  0.00  0.00    +0.000 A 
ATOM      9  N   UNL     1       6.439   5.527  18.027  0.00  0.00    +0.000 N 
ENDROOT
BRANCH   1  10
ATOM     10  N   UNL     1       7.869   5.564  13.624  0.00  0.00    +0.000 N 
ATOM     11  H   UNL     1       7.897   4.985  12.796  0.00  0.00    +0.000 HD
ATOM     12  H   UNL     1       7.714   6.559  13.507  0.00  0.00    +0.000 HD
ENDBRANCH   1  10
BRANCH   9  13
ATOM     13  C   UNL     1       5.824   5.207  19.301  0.00  0.00    +0.000 C 
BRANCH  13  14
ATOM     14  C   UNL     1       4.605   4.282  19.145  0.00  0.00    +0.000 C 
BRANCH  14  15
ATOM     15  O   UNL     1       4.962   2.938  19.512  0.00  0.00    +0.000 OA
ATOM     16  H   UNL     1       5.841   2.939  19.928  0.00  0.00    +0.000 HD
ENDBRANCH  14  15
BRANCH  14  17
ATOM     17  C   UNL     1       3.410   4.715  20.013  0.00  0.00    +0.000 C 
BRANCH  17  18
ATOM     18  S   UNL     1       1.862   4.752  19.060  0.00  0.00    +0.000 S 
BRANCH  18  19
ATOM     19  C   UNL     1       1.022   3.297  19.772  0.00  0.00    +0.000 C 
BRANCH  19  20
ATOM     20  C   UNL     1       1.052   2.168  18.743  0.00  0.00    +0.000 C 
BRANCH  20  21
ATOM     21  O   UNL     1       2.349   1.582  18.665  0.00  0.00    +0.000 OA
ATOM     22  H   UNL     1       2.817   2.057  17.950  0.00  0.00    +0.000 HD
ENDBRANCH  20  21
ENDBRANCH  19  20
ENDBRANCH  18  19
ENDBRANCH  17  18
ENDBRANCH  14  17
ENDBRANCH  13  14
ENDBRANCH   9  13
TORSDOF 9
ENDMDL
MODEL 9
REMARK VINA RESULT:      -5.6      1.814      3.351
REMARK  Name = 
REMARK  9 active torsions:
REMARK  status: ('A' for Active; 'I' for Inactive)
REMARK    1  A    between atoms: N_1  and  C_2
REMARK    2  A    between atoms: N_10  and  C_11
REMARK    3  A    between atoms: C_11  and  C_12
REMARK    4  A    between atoms: C_12  and  O_13
REMARK    5  A    between atoms: C_12  and  C_14
REMARK    6  A    between atoms: C_14  and  S_15
REMARK    7  A    between atoms: S_15  and  C_16
REMARK    8  A    between atoms: C_16  and  C_17
REMARK    9  A    between atoms: C_17  and  O_18
REMARK                            x       y       z     vdW  Elec       q    Type
REMARK                         _______ _______ _______ _____ _____    ______ ____
ROOT
ATOM      1  C   UNL     1       6.579   5.227  16.440  0.00  0.00    +0.000 A 
ATOM      2  N   UNL     1       6.088   6.185  15.620  0.00  0.00    +0.000 NA
ATOM      3  C   UNL     1       4.926   6.786  15.961  0.00  0.00    +0.000 A 
ATOM      4  N   UNL     1       4.156   6.570  17.049  0.00  0.00    +0.000 NA
ATOM      5  C   UNL     1       4.698   5.626  17.834  0.00  0.00    +0.000 A 
ATOM      6  C   UNL     1       5.879   4.930  17.620  0.00  0.00    +0.000 A 
ATOM      7  N   UNL     1       6.138   4.062  18.663  0.00  0.00    +0.000 NA
ATOM      8  C   UNL     1       5.116   4.208  19.480  0.00  0.00    +0.000 A 
ATOM      9  N   UNL     1       4.219   5.129  19.013  0.00  0.00    +0.000 N 
ENDROOT
BRANCH   1  10
ATOM     10  N   UNL     1       7.763   4.593  16.082  0.00  0.00    +0.000 N 
ATOM     11  H   UNL     1       7.606   3.679  15.681  0.00  0.00    +0.000 HD
ATOM     12  H   UNL     1       8.425   5.209  15.624  0.00  0.00    +0.000 HD
ENDBRANCH   1  10
BRANCH   9  13
ATOM     13  C   UNL     1       2.990   5.527  19.672  0.00  0.00    +0.000 C 
BRANCH  13  14
ATOM     14  C   UNL     1       2.401   4.402  20.539  0.00  0.00    +0.000 C 
BRANCH  14  15
ATOM     15  O   UNL     1       2.568   4.720  21.931  0.00  0.00    +0.000 OA
ATOM     16  H   UNL     1       2.459   3.912  22.463  0.00  0.00    +0.000 HD
ENDBRANCH  14  15
BRANCH  14  17
ATOM     17  C   UNL     1       0.903   4.166  20.277  0.00  0.00    +0.000 C 
BRANCH  17  18
ATOM     18  S   UNL     1       0.633   2.894  19.005  0.00  0.00    +0.000 S 
BRANCH  18  19
ATOM     19  C   UNL     1       2.216   1.995  19.121  0.00  0.00    +0.000 C 
BRANCH  19  20
ATOM     20  C   UNL     1       2.904   2.044  17.758  0.00  0.00    +0.000 C 
BRANCH  20  21
ATOM     21  O   UNL     1       2.334   3.058  16.935  0.00  0.00    +0.000 OA
ATOM     22  H   UNL     1       2.128   3.805  17.531  0.00  0.00    +0.000 HD
ENDBRANCH  20  21
ENDBRANCH  19  20
ENDBRANCH  18  19
ENDBRANCH  17  18
ENDBRANCH  14  17
ENDBRANCH  13  14
ENDBRANCH   9  13
TORSDOF 9
ENDMDL
