MODEL 1
REMARK VINA RESULT:      -8.8      0.000      0.000
REMARK  Name = 
REMARK  8 active torsions:
REMARK  status: ('A' for Active; 'I' for Inactive)
REMARK    1  A    between atoms: C_1  and  C_2
REMARK    2  A    between atoms: C_5  and  C_6
REMARK    3  A    between atoms: N_10  and  C_11
REMARK    4  A    between atoms: C_11  and  C_12
REMARK    5  A    between atoms: C_12  and  C_13
REMARK    6  A    between atoms: C_19  and  C_21
REMARK    7  A    between atoms: C_21  and  O_22
REMARK    8  A    between atoms: O_22  and  C_23
REMARK                            x       y       z     vdW  Elec       q    Type
REMARK                         _______ _______ _______ _____ _____    ______ ____
ROOT
ATOM      1  C   UNL     1       7.965   8.122  18.169  0.00  0.00    +0.000 A 
ATOM      2  C   UNL     1       8.335   7.106  19.032  0.00  0.00    +0.000 A 
ATOM      3  S   UNL     1       7.562   5.639  18.603  0.00  0.00    +0.000 S 
ATOM      4  C   UNL     1       6.811   6.442  17.294  0.00  0.00    +0.000 A 
ATOM      5  N   UNL     1       6.024   5.634  16.469  0.00  0.00    +0.000 N 
ATOM      6  C   UNL     1       6.641   5.334  15.251  0.00  0.00    +0.000 C 
ATOM      7  O   UNL     1       7.834   5.561  15.023  0.00  0.00    +0.000 OA
ATOM      8  N   UNL     1       7.026   7.739  17.204  0.00  0.00    +0.000 NA
ENDROOT
BRANCH   1  13
ATOM      9  C   UNL     1       9.979  13.555  18.729  0.00  0.00    +0.000 C 
ATOM     10  C   UNL     1       9.476  12.148  18.580  0.00  0.00    +0.000 A 
ATOM     11  C   UNL     1       9.931  11.129  19.418  0.00  0.00    +0.000 A 
ATOM     12  C   UNL     1       9.452   9.819  19.273  0.00  0.00    +0.000 A 
ATOM     13  C   UNL     1       8.500   9.490  18.290  0.00  0.00    +0.000 A 
ATOM     14  C   UNL     1       8.062  10.513  17.443  0.00  0.00    +0.000 A 
ATOM     15  C   UNL     1       8.538  11.827  17.588  0.00  0.00    +0.000 A 
ENDBRANCH   1  13
BRANCH   5  16
ATOM     16  C   UNL     1       4.582   5.506  16.756  0.00  0.00    +0.000 C 
BRANCH  16  17
ATOM     17  C   UNL     1       4.072   5.979  18.139  0.00  0.00    +0.000 C 
BRANCH  17  18
ATOM     18  C   UNL     1       3.011   5.136  18.797  0.00  0.00    +0.000 A 
ATOM     19  C   UNL     1       2.808   5.219  20.179  0.00  0.00    +0.000 A 
ATOM     20  C   UNL     1       1.796   4.481  20.795  0.00  0.00    +0.000 A 
ATOM     21  C   UNL     1       0.972   3.654  20.035  0.00  0.00    +0.000 A 
ATOM     22  C   UNL     1       1.158   3.566  18.657  0.00  0.00    +0.000 A 
ATOM     23  C   UNL     1       2.173   4.302  18.040  0.00  0.00    +0.000 A 
ENDBRANCH  17  18
ENDBRANCH  16  17
ENDBRANCH   5  16
BRANCH   6  24
ATOM     24  C   UNL     1       5.844   4.617  14.160  0.00  0.00    +0.000 C 
BRANCH  24  25
ATOM     25  O   UNL     1       6.524   4.625  12.916  0.00  0.00    +0.000 OA
BRANCH  25  26
ATOM     26  C   UNL     1       6.475   3.466  12.187  0.00  0.00    +0.000 A 
ATOM     27  C   UNL     1       5.186   2.997  11.926  0.00  0.00    +0.000 A 
ATOM     28  C   UNL     1       4.989   1.808  11.221  0.00  0.00    +0.000 A 
ATOM     29  C   UNL     1       6.085   1.086  10.755  0.00  0.00    +0.000 A 
ATOM     30  C   UNL     1       7.375   1.562  10.987  0.00  0.00    +0.000 A 
ATOM     31  C   UNL     1       7.572   2.751  11.699  0.00  0.00    +0.000 A 
ENDBRANCH  25  26
ENDBRANCH  24  25
ENDBRANCH   6  24
TORSDOF 7
ENDMDL
MODEL 2
REMARK VINA RESULT:      -8.6      0.132      1.225
REMARK  Name = 
REMARK  8 active torsions:
REMARK  status: ('A' for Active; 'I' for Inactive)
REMARK    1  A    between atoms: C_1  and  C_2
REMARK    2  A    between atoms: C_5  and  C_6
REMARK    3  A    between atoms: N_10  and  C_11
REMARK    4  A    between atoms: C_11  and  C_12
REMARK    5  A    between atoms: C_12  and  C_13
REMARK    6  A    between atoms: C_19  and  C_21
REMARK    7  A    between atoms: C_21  and  O_22
REMARK    8  A    between atoms: O_22  and  C_23
REMARK                            x       y       z     vdW  Elec       q    Type
REMARK                         _______ _______ _______ _____ _____    ______ ____
ROOT
ATOM      1  C   UNL     1       7.955   8.120  18.168  0.00  0.00    +0.000 A 
ATOM      2  C   UNL     1       8.343   7.093  19.011  0.00  0.00    +0.000 A 
ATOM      3  S   UNL     1       7.565   5.630  18.577  0.00  0.00    +0.000 S 
ATOM      4  C   UNL     1       6.789   6.448  17.292  0.00  0.00    +0.000 A 
ATOM      5  N   UNL     1       5.989   5.649  16.470  0.00  0.00    +0.000 N 
ATOM      6  C   UNL     1       6.586   5.366  15.238  0.00  0.00    +0.000 C 
ATOM      7  O   UNL     1       7.774   5.599  14.992  0.00  0.00    +0.000 OA
ATOM      8  N   UNL     1       7.000   7.747  17.215  0.00  0.00    +0.000 NA
ENDROOT
BRANCH   1  13
ATOM      9  C   UNL     1      10.160  13.490  18.595  0.00  0.00    +0.000 C 
ATOM     10  C   UNL     1       9.575  12.111  18.489  0.00  0.00    +0.000 A 
ATOM     11  C   UNL     1       8.574  11.823  17.561  0.00  0.00    +0.000 A 
ATOM     12  C   UNL     1       8.037  10.530  17.468  0.00  0.00    +0.000 A 
ATOM     13  C   UNL     1       8.489   9.487  18.298  0.00  0.00    +0.000 A 
ATOM     14  C   UNL     1       9.480   9.788  19.238  0.00  0.00    +0.000 A 
ATOM     15  C   UNL     1      10.021  11.081  19.330  0.00  0.00    +0.000 A 
ENDBRANCH   1  13
BRANCH   5  16
ATOM     16  C   UNL     1       4.553   5.513  16.782  0.00  0.00    +0.000 C 
BRANCH  16  17
ATOM     17  C   UNL     1       4.072   5.939  18.190  0.00  0.00    +0.000 C 
BRANCH  17  18
ATOM     18  C   UNL     1       2.990   5.101  18.821  0.00  0.00    +0.000 A 
ATOM     19  C   UNL     1       2.663   5.280  20.169  0.00  0.00    +0.000 A 
ATOM     20  C   UNL     1       1.630   4.545  20.753  0.00  0.00    +0.000 A 
ATOM     21  C   UNL     1       0.910   3.625  19.995  0.00  0.00    +0.000 A 
ATOM     22  C   UNL     1       1.221   3.440  18.650  0.00  0.00    +0.000 A 
ATOM     23  C   UNL     1       2.257   4.173  18.065  0.00  0.00    +0.000 A 
ENDBRANCH  17  18
ENDBRANCH  16  17
ENDBRANCH   5  16
BRANCH   6  24
ATOM     24  C   UNL     1       5.771   4.662  14.152  0.00  0.00    +0.000 C 
BRANCH  24  25
ATOM     25  O   UNL     1       6.476   4.591  12.924  0.00  0.00    +0.000 OA
BRANCH  25  26
ATOM     26  C   UNL     1       6.342   3.429  12.210  0.00  0.00    +0.000 A 
ATOM     27  C   UNL     1       7.544   2.884  11.757  0.00  0.00    +0.000 A 
ATOM     28  C   UNL     1       7.553   1.718  10.988  0.00  0.00    +0.000 A 
ATOM     29  C   UNL     1       6.355   1.077  10.682  0.00  0.00    +0.000 A 
ATOM     30  C   UNL     1       5.152   1.601  11.154  0.00  0.00    +0.000 A 
ATOM     31  C   UNL     1       5.143   2.772  11.920  0.00  0.00    +0.000 A 
ENDBRANCH  25  26
ENDBRANCH  24  25
ENDBRANCH   6  24
TORSDOF 7
ENDMDL
MODEL 3
REMARK VINA RESULT:      -8.4      0.503      1.191
REMARK  Name = 
REMARK  8 active torsions:
REMARK  status: ('A' for Active; 'I' for Inactive)
REMARK    1  A    between atoms: C_1  and  C_2
REMARK    2  A    between atoms: C_5  and  C_6
REMARK    3  A    between atoms: N_10  and  C_11
REMARK    4  A    between atoms: C_11  and  C_12
REMARK    5  A    between atoms: C_12  and  C_13
REMARK    6  A    between atoms: C_19  and  C_21
REMARK    7  A    between atoms: C_21  and  O_22
REMARK    8  A    between atoms: O_22  and  C_23
REMARK                            x       y       z     vdW  Elec       q    Type
REMARK                         _______ _______ _______ _____ _____    ______ ____
ROOT
ATOM      1  C   UNL     1       7.994   8.174  18.187  0.00  0.00    +0.000 A 
ATOM      2  C   UNL     1       8.409   7.169  19.044  0.00  0.00    +0.000 A 
ATOM      3  S   UNL     1       7.644   5.687  18.652  0.00  0.00    +0.000 S 
ATOM      4  C   UNL     1       6.836   6.469  17.365  0.00  0.00    +0.000 A 
ATOM      5  N   UNL     1       6.033   5.643  16.572  0.00  0.00    +0.000 N 
ATOM      6  C   UNL     1       6.613   5.344  15.336  0.00  0.00    +0.000 C 
ATOM      7  O   UNL     1       7.794   5.588  15.065  0.00  0.00    +0.000 OA
ATOM      8  N   UNL     1       7.028   7.769  17.258  0.00  0.00    +0.000 NA
ENDROOT
BRANCH   1  13
ATOM      9  C   UNL     1       9.940  13.641  18.641  0.00  0.00    +0.000 C 
ATOM     10  C   UNL     1       9.454  12.225  18.520  0.00  0.00    +0.000 A 
ATOM     11  C   UNL     1       9.954  11.219  19.347  0.00  0.00    +0.000 A 
ATOM     12  C   UNL     1       9.491   9.900  19.228  0.00  0.00    +0.000 A 
ATOM     13  C   UNL     1       8.511   9.550  18.281  0.00  0.00    +0.000 A 
ATOM     14  C   UNL     1       8.027  10.560  17.443  0.00  0.00    +0.000 A 
ATOM     15  C   UNL     1       8.488  11.882  17.563  0.00  0.00    +0.000 A 
ENDBRANCH   1  13
BRANCH   5  16
ATOM     16  C   UNL     1       4.605   5.495  16.911  0.00  0.00    +0.000 C 
BRANCH  16  17
ATOM     17  C   UNL     1       4.177   5.734  18.379  0.00  0.00    +0.000 C 
BRANCH  17  18
ATOM     18  C   UNL     1       3.157   4.785  18.953  0.00  0.00    +0.000 A 
ATOM     19  C   UNL     1       3.256   3.413  18.697  0.00  0.00    +0.000 A 
ATOM     20  C   UNL     1       2.346   2.518  19.262  0.00  0.00    +0.000 A 
ATOM     21  C   UNL     1       1.330   2.983  20.093  0.00  0.00    +0.000 A 
ATOM     22  C   UNL     1       1.223   4.346  20.362  0.00  0.00    +0.000 A 
ATOM     23  C   UNL     1       2.131   5.244  19.794  0.00  0.00    +0.000 A 
ENDBRANCH  17  18
ENDBRANCH  16  17
ENDBRANCH   5  16
BRANCH   6  24
ATOM     24  C   UNL     1       5.790   4.608  14.278  0.00  0.00    +0.000 C 
BRANCH  24  25
ATOM     25  O   UNL     1       6.432   4.606  13.014  0.00  0.00    +0.000 OA
BRANCH  25  26
ATOM     26  C   UNL     1       6.317   3.459  12.273  0.00  0.00    +0.000 A 
ATOM     27  C   UNL     1       7.527   2.951  11.796  0.00  0.00    +0.000 A 
ATOM     28  C   UNL     1       7.553   1.805  10.999  0.00  0.00    +0.000 A 
ATOM     29  C   UNL     1       6.366   1.146  10.688  0.00  0.00    +0.000 A 
ATOM     30  C   UNL     1       5.157   1.631  11.183  0.00  0.00    +0.000 A 
ATOM     31  C   UNL     1       5.130   2.783  11.978  0.00  0.00    +0.000 A 
ENDBRANCH  25  26
ENDBRANCH  24  25
ENDBRANCH   6  24
TORSDOF 7
ENDMDL
MODEL 4
REMARK VINA RESULT:      -8.2      3.973      5.183
REMARK  Name = 
REMARK  8 active torsions:
REMARK  status: ('A' for Active; 'I' for Inactive)
REMARK    1  A    between atoms: C_1  and  C_2
REMARK    2  A    between atoms: C_5  and  C_6
REMARK    3  A    between atoms: N_10  and  C_11
REMARK    4  A    between atoms: C_11  and  C_12
REMARK    5  A    between atoms: C_12  and  C_13
REMARK    6  A    between atoms: C_19  and  C_21
REMARK    7  A    between atoms: C_21  and  O_22
REMARK    8  A    between atoms: O_22  and  C_23
REMARK                            x       y       z     vdW  Elec       q    Type
REMARK                         _______ _______ _______ _____ _____    ______ ____
ROOT
ATOM      1  C   UNL     1       1.789   8.415  19.039  0.00  0.00    +0.000 A 
ATOM      2  C   UNL     1       1.762   7.763  20.260  0.00  0.00    +0.000 A 
ATOM      3  S   UNL     1       2.369   6.169  20.104  0.00  0.00    +0.000 S 
ATOM      4  C   UNL     1       2.646   6.458  18.442  0.00  0.00    +0.000 A 
ATOM      5  N   UNL     1       3.254   5.410  17.746  0.00  0.00    +0.000 N 
ATOM      6  C   UNL     1       4.605   5.646  17.477  0.00  0.00    +0.000 C 
ATOM      7  O   UNL     1       5.248   6.567  17.994  0.00  0.00    +0.000 OA
ATOM      8  N   UNL     1       2.241   7.624  17.978  0.00  0.00    +0.000 NA
ENDROOT
BRANCH   1  13
ATOM      9  C   UNL     1       0.081  13.959  18.552  0.00  0.00    +0.000 C 
ATOM     10  C   UNL     1       0.522  12.528  18.660  0.00  0.00    +0.000 A 
ATOM     11  C   UNL     1       1.782  12.127  18.210  0.00  0.00    +0.000 A 
ATOM     12  C   UNL     1       2.186  10.788  18.319  0.00  0.00    +0.000 A 
ATOM     13  C   UNL     1       1.345   9.812  18.885  0.00  0.00    +0.000 A 
ATOM     14  C   UNL     1       0.078  10.217  19.317  0.00  0.00    +0.000 A 
ATOM     15  C   UNL     1      -0.328  11.559  19.211  0.00  0.00    +0.000 A 
ENDBRANCH   1  13
BRANCH   5  16
ATOM     16  C   UNL     1       2.404   4.413  17.067  0.00  0.00    +0.000 C 
BRANCH  16  17
ATOM     17  C   UNL     1       2.415   2.962  17.606  0.00  0.00    +0.000 C 
BRANCH  17  18
ATOM     18  C   UNL     1       2.269   2.790  19.096  0.00  0.00    +0.000 A 
ATOM     19  C   UNL     1       3.400   2.565  19.889  0.00  0.00    +0.000 A 
ATOM     20  C   UNL     1       3.284   2.453  21.276  0.00  0.00    +0.000 A 
ATOM     21  C   UNL     1       2.038   2.568  21.886  0.00  0.00    +0.000 A 
ATOM     22  C   UNL     1       0.904   2.798  21.110  0.00  0.00    +0.000 A 
ATOM     23  C   UNL     1       1.018   2.907  19.721  0.00  0.00    +0.000 A 
ENDBRANCH  17  18
ENDBRANCH  16  17
ENDBRANCH   5  16
BRANCH   6  24
ATOM     24  C   UNL     1       5.369   4.687  16.563  0.00  0.00    +0.000 C 
BRANCH  24  25
ATOM     25  O   UNL     1       6.260   5.374  15.701  0.00  0.00    +0.000 OA
BRANCH  25  26
ATOM     26  C   UNL     1       6.432   4.840  14.450  0.00  0.00    +0.000 A 
ATOM     27  C   UNL     1       7.515   5.359  13.740  0.00  0.00    +0.000 A 
ATOM     28  C   UNL     1       7.787   4.929  12.439  0.00  0.00    +0.000 A 
ATOM     29  C   UNL     1       6.984   3.958  11.846  0.00  0.00    +0.000 A 
ATOM     30  C   UNL     1       5.916   3.415  12.558  0.00  0.00    +0.000 A 
ATOM     31  C   UNL     1       5.641   3.850  13.860  0.00  0.00    +0.000 A 
ENDBRANCH  25  26
ENDBRANCH  24  25
ENDBRANCH   6  24
TORSDOF 7
ENDMDL
MODEL 5
REMARK VINA RESULT:      -8.1      3.957      5.152
REMARK  Name = 
REMARK  8 active torsions:
REMARK  status: ('A' for Active; 'I' for Inactive)
REMARK    1  A    between atoms: C_1  and  C_2
REMARK    2  A    between atoms: C_5  and  C_6
REMARK    3  A    between atoms: N_10  and  C_11
REMARK    4  A    between atoms: C_11  and  C_12
REMARK    5  A    between atoms: C_12  and  C_13
REMARK    6  A    between atoms: C_19  and  C_21
REMARK    7  A    between atoms: C_21  and  O_22
REMARK    8  A    between atoms: O_22  and  C_23
REMARK                            x       y       z     vdW  Elec       q    Type
REMARK                         _______ _______ _______ _____ _____    ______ ____
ROOT
ATOM      1  C   UNL     1       1.816   8.380  19.070  0.00  0.00    +0.000 A 
ATOM      2  C   UNL     1       1.842   7.711  20.282  0.00  0.00    +0.000 A 
ATOM      3  S   UNL     1       2.492   6.138  20.089  0.00  0.00    +0.000 S 
ATOM      4  C   UNL     1       2.715   6.457  18.424  0.00  0.00    +0.000 A 
ATOM      5  N   UNL     1       3.336   5.438  17.698  0.00  0.00    +0.000 N 
ATOM      6  C   UNL     1       4.672   5.718  17.397  0.00  0.00    +0.000 C 
ATOM      7  O   UNL     1       5.300   6.652  17.909  0.00  0.00    +0.000 OA
ATOM      8  N   UNL     1       2.264   7.616  17.986  0.00  0.00    +0.000 NA
ENDROOT
BRANCH   1  13
ATOM      9  C   UNL     1      -0.168  13.819  18.465  0.00  0.00    +0.000 C 
ATOM     10  C   UNL     1       0.343  12.418  18.639  0.00  0.00    +0.000 A 
ATOM     11  C   UNL     1      -0.422  11.447  19.288  0.00  0.00    +0.000 A 
ATOM     12  C   UNL     1       0.064  10.141  19.442  0.00  0.00    +0.000 A 
ATOM     13  C   UNL     1       1.327   9.764  18.947  0.00  0.00    +0.000 A 
ATOM     14  C   UNL     1       2.095  10.746  18.314  0.00  0.00    +0.000 A 
ATOM     15  C   UNL     1       1.609  12.056  18.156  0.00  0.00    +0.000 A 
ENDBRANCH   1  13
BRANCH   5  16
ATOM     16  C   UNL     1       2.499   4.424  17.028  0.00  0.00    +0.000 C 
BRANCH  16  17
ATOM     17  C   UNL     1       2.551   2.972  17.560  0.00  0.00    +0.000 C 
BRANCH  17  18
ATOM     18  C   UNL     1       2.353   2.784  19.042  0.00  0.00    +0.000 A 
ATOM     19  C   UNL     1       3.455   2.537  19.870  0.00  0.00    +0.000 A 
ATOM     20  C   UNL     1       3.292   2.411  21.250  0.00  0.00    +0.000 A 
ATOM     21  C   UNL     1       2.027   2.533  21.820  0.00  0.00    +0.000 A 
ATOM     22  C   UNL     1       0.922   2.785  21.010  0.00  0.00    +0.000 A 
ATOM     23  C   UNL     1       1.083   2.909  19.627  0.00  0.00    +0.000 A 
ENDBRANCH  17  18
ENDBRANCH  16  17
ENDBRANCH   5  16
BRANCH   6  24
ATOM     24  C   UNL     1       5.440   4.794  16.451  0.00  0.00    +0.000 C 
BRANCH  24  25
ATOM     25  O   UNL     1       6.354   5.511  15.637  0.00  0.00    +0.000 OA
BRANCH  25  26
ATOM     26  C   UNL     1       6.578   5.008  14.383  0.00  0.00    +0.000 A 
ATOM     27  C   UNL     1       5.670   4.028  13.979  0.00  0.00    +0.000 A 
ATOM     28  C   UNL     1       5.799   3.405  12.735  0.00  0.00    +0.000 A 
ATOM     29  C   UNL     1       6.832   3.774  11.877  0.00  0.00    +0.000 A 
ATOM     30  C   UNL     1       7.727   4.771  12.261  0.00  0.00    +0.000 A 
ATOM     31  C   UNL     1       7.600   5.391  13.510  0.00  0.00    +0.000 A 
ENDBRANCH  25  26
ENDBRANCH  24  25
ENDBRANCH   6  24
TORSDOF 7
ENDMDL
MODEL 6
REMARK VINA RESULT:      -8.0      8.052     11.207
REMARK  Name = 
REMARK  8 active torsions:
REMARK  status: ('A' for Active; 'I' for Inactive)
REMARK    1  A    between atoms: C_1  and  C_2
REMARK    2  A    between atoms: C_5  and  C_6
REMARK    3  A    between atoms: N_10  and  C_11
REMARK    4  A    between atoms: C_11  and  C_12
REMARK    5  A    between atoms: C_12  and  C_13
REMARK    6  A    between atoms: C_19  and  C_21
REMARK    7  A    between atoms: C_21  and  O_22
REMARK    8  A    between atoms: O_22  and  C_23
REMARK                            x       y       z     vdW  Elec       q    Type
REMARK                         _______ _______ _______ _____ _____    ______ ____
ROOT
ATOM      1  C   UNL     1       1.869   8.008  19.308  0.00  0.00    +0.000 A 
ATOM      2  C   UNL     1       1.494   7.749  20.615  0.00  0.00    +0.000 A 
ATOM      3  S   UNL     1       0.498   9.006  21.216  0.00  0.00    +0.000 S 
ATOM      4  C   UNL     1       0.613   9.793  19.703  0.00  0.00    +0.000 A 
ATOM      5  N   UNL     1      -0.134  10.968  19.582  0.00  0.00    +0.000 N 
ATOM      6  C   UNL     1      -1.294  10.801  18.820  0.00  0.00    +0.000 C 
ATOM      7  O   UNL     1      -1.730   9.694  18.485  0.00  0.00    +0.000 OA
ATOM      8  N   UNL     1       1.406   9.232  18.812  0.00  0.00    +0.000 NA
ENDROOT
BRANCH   1  13
ATOM      9  C   UNL     1       5.098   4.336  16.150  0.00  0.00    +0.000 C 
ATOM     10  C   UNL     1       4.280   5.289  16.973  0.00  0.00    +0.000 A 
ATOM     11  C   UNL     1       4.475   6.668  16.884  0.00  0.00    +0.000 A 
ATOM     12  C   UNL     1       3.703   7.549  17.654  0.00  0.00    +0.000 A 
ATOM     13  C   UNL     1       2.709   7.078  18.533  0.00  0.00    +0.000 A 
ATOM     14  C   UNL     1       2.532   5.694  18.630  0.00  0.00    +0.000 A 
ATOM     15  C   UNL     1       3.303   4.810  17.857  0.00  0.00    +0.000 A 
ENDBRANCH   1  13
BRANCH   5  16
ATOM     16  C   UNL     1       0.505  12.259  19.902  0.00  0.00    +0.000 C 
BRANCH  16  17
ATOM     17  C   UNL     1       0.553  12.697  21.386  0.00  0.00    +0.000 C 
BRANCH  17  18
ATOM     18  C   UNL     1      -0.770  12.920  22.072  0.00  0.00    +0.000 A 
ATOM     19  C   UNL     1      -1.404  14.165  21.981  0.00  0.00    +0.000 A 
ATOM     20  C   UNL     1      -2.653  14.370  22.570  0.00  0.00    +0.000 A 
ATOM     21  C   UNL     1      -3.284  13.333  23.252  0.00  0.00    +0.000 A 
ATOM     22  C   UNL     1      -2.668  12.087  23.345  0.00  0.00    +0.000 A 
ATOM     23  C   UNL     1      -1.416  11.881  22.759  0.00  0.00    +0.000 A 
ENDBRANCH  17  18
ENDBRANCH  16  17
ENDBRANCH   5  16
BRANCH   6  24
ATOM     24  C   UNL     1      -2.124  12.026  18.435  0.00  0.00    +0.000 C 
BRANCH  24  25
ATOM     25  O   UNL     1      -3.033  12.393  19.459  0.00  0.00    +0.000 OA
BRANCH  25  26
ATOM     26  C   UNL     1      -4.350  12.080  19.247  0.00  0.00    +0.000 A 
ATOM     27  C   UNL     1      -5.191  12.343  20.330  0.00  0.00    +0.000 A 
ATOM     28  C   UNL     1      -6.554  12.041  20.263  0.00  0.00    +0.000 A 
ATOM     29  C   UNL     1      -7.088  11.489  19.102  0.00  0.00    +0.000 A 
ATOM     30  C   UNL     1      -6.259  11.248  18.007  0.00  0.00    +0.000 A 
ATOM     31  C   UNL     1      -4.893  11.546  18.075  0.00  0.00    +0.000 A 
ENDBRANCH  25  26
ENDBRANCH  24  25
ENDBRANCH   6  24
TORSDOF 7
ENDMDL
MODEL 7
REMARK VINA RESULT:      -8.0      8.133     11.229
REMARK  Name = 
REMARK  8 active torsions:
REMARK  status: ('A' for Active; 'I' for Inactive)
REMARK    1  A    between atoms: C_1  and  C_2
REMARK    2  A    between atoms: C_5  and  C_6
REMARK    3  A    between atoms: N_10  and  C_11
REMARK    4  A    between atoms: C_11  and  C_12
REMARK    5  A    between atoms: C_12  and  C_13
REMARK    6  A    between atoms: C_19  and  C_21
REMARK    7  A    between atoms: C_21  and  O_22
REMARK    8  A    between atoms: O_22  and  C_23
REMARK                            x       y       z     vdW  Elec       q    Type
REMARK                         _______ _______ _______ _____ _____    ______ ____
ROOT
ATOM      1  C   UNL     1       1.732   8.155  19.651  0.00  0.00    +0.000 A 
ATOM      2  C   UNL     1       1.224   7.869  20.906  0.00  0.00    +0.000 A 
ATOM      3  S   UNL     1       0.136   9.093  21.409  0.00  0.00    +0.000 S 
ATOM      4  C   UNL     1       0.393   9.903  19.926  0.00  0.00    +0.000 A 
ATOM      5  N   UNL     1      -0.367  11.060  19.737  0.00  0.00    +0.000 N 
ATOM      6  C   UNL     1      -1.432  10.874  18.851  0.00  0.00    +0.000 C 
ATOM      7  O   UNL     1      -1.800   9.761  18.459  0.00  0.00    +0.000 OA
ATOM      8  N   UNL     1       1.293   9.374  19.121  0.00  0.00    +0.000 NA
ENDROOT
BRANCH   1  13
ATOM      9  C   UNL     1       5.560   4.668  16.992  0.00  0.00    +0.000 C 
ATOM     10  C   UNL     1       4.560   5.555  17.676  0.00  0.00    +0.000 A 
ATOM     11  C   UNL     1       3.960   5.172  18.876  0.00  0.00    +0.000 A 
ATOM     12  C   UNL     1       3.030   6.010  19.508  0.00  0.00    +0.000 A 
ATOM     13  C   UNL     1       2.676   7.257  18.962  0.00  0.00    +0.000 A 
ATOM     14  C   UNL     1       3.268   7.627  17.750  0.00  0.00    +0.000 A 
ATOM     15  C   UNL     1       4.202   6.790  17.117  0.00  0.00    +0.000 A 
ENDBRANCH   1  13
BRANCH   5  16
ATOM     16  C   UNL     1       0.200  12.362  20.138  0.00  0.00    +0.000 C 
BRANCH  16  17
ATOM     17  C   UNL     1       0.160  12.740  21.639  0.00  0.00    +0.000 C 
BRANCH  17  18
ATOM     18  C   UNL     1      -1.200  12.979  22.243  0.00  0.00    +0.000 A 
ATOM     19  C   UNL     1      -1.854  14.199  22.035  0.00  0.00    +0.000 A 
ATOM     20  C   UNL     1      -3.134  14.415  22.547  0.00  0.00    +0.000 A 
ATOM     21  C   UNL     1      -3.777  13.414  23.270  0.00  0.00    +0.000 A 
ATOM     22  C   UNL     1      -3.142  12.192  23.480  0.00  0.00    +0.000 A 
ATOM     23  C   UNL     1      -1.858  11.975  22.970  0.00  0.00    +0.000 A 
ENDBRANCH  17  18
ENDBRANCH  16  17
ENDBRANCH   5  16
BRANCH   6  24
ATOM     24  C   UNL     1      -2.248  12.083  18.391  0.00  0.00    +0.000 C 
BRANCH  24  25
ATOM     25  O   UNL     1      -3.467  11.697  17.779  0.00  0.00    +0.000 OA
BRANCH  25  26
ATOM     26  C   UNL     1      -4.576  11.685  18.584  0.00  0.00    +0.000 A 
ATOM     27  C   UNL     1      -5.613  10.866  18.134  0.00  0.00    +0.000 A 
ATOM     28  C   UNL     1      -6.815  10.785  18.841  0.00  0.00    +0.000 A 
ATOM     29  C   UNL     1      -6.981  11.512  20.017  0.00  0.00    +0.000 A 
ATOM     30  C   UNL     1      -5.941  12.311  20.487  0.00  0.00    +0.000 A 
ATOM     31  C   UNL     1      -4.738  12.396  19.776  0.00  0.00    +0.000 A 
ENDBRANCH  25  26
ENDBRANCH  24  25
ENDBRANCH   6  24
TORSDOF 7
ENDMDL
MODEL 8
REMARK VINA RESULT:      -7.9      7.285     11.069
REMARK  Name = 
REMARK  8 active torsions:
REMARK  status: ('A' for Active; 'I' for Inactive)
REMARK    1  A    between atoms: C_1  and  C_2
REMARK    2  A    between atoms: C_5  and  C_6
REMARK    3  A    between atoms: N_10  and  C_11
REMARK    4  A    between atoms: C_11  and  C_12
REMARK    5  A    between atoms: C_12  and  C_13
REMARK    6  A    between atoms: C_19  and  C_21
REMARK    7  A    between atoms: C_21  and  O_22
REMARK    8  A    between atoms: O_22  and  C_23
REMARK                            x       y       z     vdW  Elec       q    Type
REMARK                         _______ _______ _______ _____ _____    ______ ____
ROOT
ATOM      1  C   UNL     1       2.251   7.803  18.943  0.00  0.00    +0.000 A 
ATOM      2  C   UNL     1       1.852   7.543  20.243  0.00  0.00    +0.000 A 
ATOM      3  S   UNL     1       0.884   8.822  20.844  0.00  0.00    +0.000 S 
ATOM      4  C   UNL     1       1.041   9.620  19.341  0.00  0.00    +0.000 A 
ATOM      5  N   UNL     1       0.330  10.817  19.222  0.00  0.00    +0.000 N 
ATOM      6  C   UNL     1      -0.824  10.690  18.443  0.00  0.00    +0.000 C 
ATOM      7  O   UNL     1      -1.288   9.599  18.092  0.00  0.00    +0.000 OA
ATOM      8  N   UNL     1       1.829   9.045  18.454  0.00  0.00    +0.000 NA
ENDROOT
BRANCH   1  13
ATOM      9  C   UNL     1       5.416   4.073  15.789  0.00  0.00    +0.000 C 
ATOM     10  C   UNL     1       4.614   5.040  16.612  0.00  0.00    +0.000 A 
ATOM     11  C   UNL     1       4.864   6.412  16.557  0.00  0.00    +0.000 A 
ATOM     12  C   UNL     1       4.107   7.307  17.326  0.00  0.00    +0.000 A 
ATOM     13  C   UNL     1       3.074   6.858  18.170  0.00  0.00    +0.000 A 
ATOM     14  C   UNL     1       2.841   5.480  18.234  0.00  0.00    +0.000 A 
ATOM     15  C   UNL     1       3.597   4.582  17.461  0.00  0.00    +0.000 A 
ENDBRANCH   1  13
BRANCH   5  16
ATOM     16  C   UNL     1       1.001  12.086  19.563  0.00  0.00    +0.000 C 
BRANCH  16  17
ATOM     17  C   UNL     1       2.078  12.622  18.589  0.00  0.00    +0.000 C 
BRANCH  17  18
ATOM     18  C   UNL     1       2.158  14.118  18.421  0.00  0.00    +0.000 A 
ATOM     19  C   UNL     1       3.258  14.692  17.775  0.00  0.00    +0.000 A 
ATOM     20  C   UNL     1       3.321  16.071  17.568  0.00  0.00    +0.000 A 
ATOM     21  C   UNL     1       2.283  16.892  18.001  0.00  0.00    +0.000 A 
ATOM     22  C   UNL     1       1.178  16.334  18.641  0.00  0.00    +0.000 A 
ATOM     23  C   UNL     1       1.115  14.954  18.852  0.00  0.00    +0.000 A 
ENDBRANCH  17  18
ENDBRANCH  16  17
ENDBRANCH   5  16
BRANCH   6  24
ATOM     24  C   UNL     1      -1.615  11.942  18.060  0.00  0.00    +0.000 C 
BRANCH  24  25
ATOM     25  O   UNL     1      -2.816  11.622  17.377  0.00  0.00    +0.000 OA
BRANCH  25  26
ATOM     26  C   UNL     1      -3.975  11.734  18.099  0.00  0.00    +0.000 A 
ATOM     27  C   UNL     1      -5.119  11.293  17.432  0.00  0.00    +0.000 A 
ATOM     28  C   UNL     1      -6.375  11.379  18.038  0.00  0.00    +0.000 A 
ATOM     29  C   UNL     1      -6.492  11.894  19.326  0.00  0.00    +0.000 A 
ATOM     30  C   UNL     1      -5.351  12.312  20.009  0.00  0.00    +0.000 A 
ATOM     31  C   UNL     1      -4.093  12.230  19.400  0.00  0.00    +0.000 A 
ENDBRANCH  25  26
ENDBRANCH  24  25
ENDBRANCH   6  24
TORSDOF 7
ENDMDL
MODEL 9
REMARK VINA RESULT:      -7.9      7.811     11.006
REMARK  Name = 
REMARK  8 active torsions:
REMARK  status: ('A' for Active; 'I' for Inactive)
REMARK    1  A    between atoms: C_1  and  C_2
REMARK    2  A    between atoms: C_5  and  C_6
REMARK    3  A    between atoms: N_10  and  C_11
REMARK    4  A    between atoms: C_11  and  C_12
REMARK    5  A    between atoms: C_12  and  C_13
REMARK    6  A    between atoms: C_19  and  C_21
REMARK    7  A    between atoms: C_21  and  O_22
REMARK    8  A    between atoms: O_22  and  C_23
REMARK                            x       y       z     vdW  Elec       q    Type
REMARK                         _______ _______ _______ _____ _____    ______ ____
ROOT
ATOM      1  C   UNL     1       2.122   7.876  18.970  0.00  0.00    +0.000 A 
ATOM      2  C   UNL     1       1.803   7.647  20.297  0.00  0.00    +0.000 A 
ATOM      3  S   UNL     1       0.847   8.926  20.917  0.00  0.00    +0.000 S 
ATOM      4  C   UNL     1       0.901   9.682  19.385  0.00  0.00    +0.000 A 
ATOM      5  N   UNL     1       0.161  10.862  19.273  0.00  0.00    +0.000 N 
ATOM      6  C   UNL     1      -1.033  10.692  18.566  0.00  0.00    +0.000 C 
ATOM      7  O   UNL     1      -1.494   9.583  18.274  0.00  0.00    +0.000 OA
ATOM      8  N   UNL     1       1.649   9.095  18.471  0.00  0.00    +0.000 NA
ENDROOT
BRANCH   1  13
ATOM      9  C   UNL     1       5.351   4.097  15.940  0.00  0.00    +0.000 C 
ATOM     10  C   UNL     1       4.504   5.068  16.712  0.00  0.00    +0.000 A 
ATOM     11  C   UNL     1       3.424   4.629  17.479  0.00  0.00    +0.000 A 
ATOM     12  C   UNL     1       2.641   5.543  18.200  0.00  0.00    +0.000 A 
ATOM     13  C   UNL     1       2.918   6.923  18.177  0.00  0.00    +0.000 A 
ATOM     14  C   UNL     1       3.990   7.357  17.392  0.00  0.00    +0.000 A 
ATOM     15  C   UNL     1       4.778   6.442  16.672  0.00  0.00    +0.000 A 
ENDBRANCH   1  13
BRANCH   5  16
ATOM     16  C   UNL     1       0.827  12.152  19.538  0.00  0.00    +0.000 C 
BRANCH  16  17
ATOM     17  C   UNL     1       1.022  12.579  21.013  0.00  0.00    +0.000 C 
BRANCH  17  18
ATOM     18  C   UNL     1      -0.225  12.875  21.806  0.00  0.00    +0.000 A 
ATOM     19  C   UNL     1      -1.036  11.825  22.252  0.00  0.00    +0.000 A 
ATOM     20  C   UNL     1      -2.167  12.081  23.029  0.00  0.00    +0.000 A 
ATOM     21  C   UNL     1      -2.498  13.390  23.372  0.00  0.00    +0.000 A 
ATOM     22  C   UNL     1      -1.697  14.444  22.941  0.00  0.00    +0.000 A 
ATOM     23  C   UNL     1      -0.566  14.189  22.160  0.00  0.00    +0.000 A 
ENDBRANCH  17  18
ENDBRANCH  16  17
ENDBRANCH   5  16
BRANCH   6  24
ATOM     24  C   UNL     1      -1.868  11.917  18.194  0.00  0.00    +0.000 C 
BRANCH  24  25
ATOM     25  O   UNL     1      -2.668  12.362  19.277  0.00  0.00    +0.000 OA
BRANCH  25  26
ATOM     26  C   UNL     1      -4.001  12.053  19.217  0.00  0.00    +0.000 A 
ATOM     27  C   UNL     1      -4.741  12.454  20.332  0.00  0.00    +0.000 A 
ATOM     28  C   UNL     1      -6.106  12.174  20.419  0.00  0.00    +0.000 A 
ATOM     29  C   UNL     1      -6.747  11.504  19.379  0.00  0.00    +0.000 A 
ATOM     30  C   UNL     1      -6.021  11.125  18.251  0.00  0.00    +0.000 A 
ATOM     31  C   UNL     1      -4.651  11.402  18.166  0.00  0.00    +0.000 A 
ENDBRANCH  25  26
ENDBRANCH  24  25
ENDBRANCH   6  24
TORSDOF 7
ENDMDL
