MODEL 1
REMARK VINA RESULT:      -7.6      0.000      0.000
REMARK  Name = 
REMARK  10 active torsions:
REMARK  status: ('A' for Active; 'I' for Inactive)
REMARK    1  A    between atoms: C_1  and  C_2
REMARK    2  A    between atoms: C_5  and  N_6
REMARK    3  A    between atoms: N_9  and  C_10
REMARK    4  A    between atoms: C_10  and  C_11
REMARK    5  A    between atoms: C_11  and  N_12
REMARK    6  A    between atoms: C_14  and  C_15
REMARK    7  A    between atoms: C_15  and  N_16
REMARK    8  A    between atoms: N_20  and  N_21
REMARK    9  A    between atoms: N_21  and  C_22
REMARK   10  A    between atoms: C_22  and  N_23
REMARK                            x       y       z     vdW  Elec       q    Type
REMARK                         _______ _______ _______ _____ _____    ______ ____
ROOT
ATOM      1  N   UNL     1       2.799   5.626  18.412  0.00  0.00    +0.000 N 
ATOM      2  C   UNL     1       4.160   5.568  18.166  0.00  0.00    +0.000 C 
ATOM      3  O   UNL     1       4.845   6.180  17.369  0.00  0.00    +0.000 OA
ATOM      4  C   UNL     1       4.713   4.507  19.116  0.00  0.00    +0.000 C 
ATOM      5  N   UNL     1       5.945   4.135  19.280  0.00  0.00    +0.000 NA
ATOM      6  C   UNL     1       3.560   3.969  19.824  0.00  0.00    +0.000 A 
ATOM      7  C   UNL     1       3.496   2.952  20.760  0.00  0.00    +0.000 A 
ATOM      8  C   UNL     1       2.237   2.635  21.265  0.00  0.00    +0.000 A 
ATOM      9  C   UNL     1       1.093   3.331  20.831  0.00  0.00    +0.000 A 
ATOM     10  C   UNL     1       1.186   4.359  19.880  0.00  0.00    +0.000 A 
ATOM     11  C   UNL     1       2.437   4.668  19.377  0.00  0.00    +0.000 A 
ENDROOT
BRANCH   5  12
ATOM     12  N   UNL     1       6.873   4.789  18.513  0.00  0.00    +0.000 N 
ATOM     13  H   UNL     1       6.956   4.577  17.516  0.00  0.00    +0.000 HD
BRANCH  12  14
ATOM     14  C   UNL     1       7.706   5.733  19.043  0.00  0.00    +0.000 C 
ATOM     15  S   UNL     1       7.989   7.189  18.300  0.00  0.00    +0.000 S 
BRANCH  14  16
ATOM     16  N   UNL     1       8.288   5.406  20.219  0.00  0.00    +0.000 N 
ATOM     17  H   UNL     1       8.716   4.491  20.284  0.00  0.00    +0.000 HD
ATOM     18  H   UNL     1       8.330   6.058  20.987  0.00  0.00    +0.000 HD
ENDBRANCH  14  16
ENDBRANCH  12  14
ENDBRANCH   5  12
BRANCH   1  19
ATOM     19  C   UNL     1       1.885   6.455  17.656  0.00  0.00    +0.000 C 
BRANCH  19  22
ATOM     20  N   UNL     1       1.501   9.547  19.509  0.00  0.00    +0.000 N 
ATOM     21  C   UNL     1       1.563   8.188  19.560  0.00  0.00    +0.000 A 
ATOM     22  C   UNL     1       1.807   7.814  18.254  0.00  0.00    +0.000 A 
ATOM     23  N   UNL     1       1.951   8.942  17.489  0.00  0.00    +0.000 NA
ATOM     24  N   UNL     1       1.766   9.996  18.270  0.00  0.00    +0.000 NA
BRANCH  20  25
ATOM     25  C   UNL     1       1.127  10.447  20.582  0.00  0.00    +0.000 C 
BRANCH  25  26
ATOM     26  C   UNL     1       0.596  11.792  20.091  0.00  0.00    +0.000 C 
BRANCH  26  32
ATOM     27  C   UNL     1      -1.571  11.954  17.890  0.00  0.00    +0.000 C 
ATOM     28  C   UNL     1      -1.806  12.105  19.350  0.00  0.00    +0.000 A 
ATOM     29  N   UNL     1      -2.970  12.406  19.894  0.00  0.00    +0.000 NA
ATOM     30  C   UNL     1      -2.752  12.524  21.242  0.00  0.00    +0.000 A 
ATOM     31  C   UNL     1      -1.442  12.250  21.518  0.00  0.00    +0.000 A 
ATOM     32  N   UNL     1      -0.825  11.983  20.323  0.00  0.00    +0.000 N 
BRANCH  31  33
ATOM     33  N   UNL     1      -0.785  12.264  22.769  0.00  0.00    +0.000 N 
ATOM     34  O   UNL     1      -0.721  11.190  23.374  0.00  0.00    +0.000 OA
ATOM     35  O   UNL     1      -0.344  13.354  23.148  0.00  0.00    +0.000 OA
ENDBRANCH  31  33
ENDBRANCH  26  32
ENDBRANCH  25  26
ENDBRANCH  20  25
ENDBRANCH  19  22
ENDBRANCH   1  19
TORSDOF 9
ENDMDL
MODEL 2
REMARK VINA RESULT:      -7.5      6.102      7.863
REMARK  Name = 
REMARK  10 active torsions:
REMARK  status: ('A' for Active; 'I' for Inactive)
REMARK    1  A    between atoms: C_1  and  C_2
REMARK    2  A    between atoms: C_5  and  N_6
REMARK    3  A    between atoms: N_9  and  C_10
REMARK    4  A    between atoms: C_10  and  C_11
REMARK    5  A    between atoms: C_11  and  N_12
REMARK    6  A    between atoms: C_14  and  C_15
REMARK    7  A    between atoms: C_15  and  N_16
REMARK    8  A    between atoms: N_20  and  N_21
REMARK    9  A    between atoms: N_21  and  C_22
REMARK   10  A    between atoms: C_22  and  N_23
REMARK                            x       y       z     vdW  Elec       q    Type
REMARK                         _______ _______ _______ _____ _____    ______ ____
ROOT
ATOM      1  N   UNL     1       6.666   4.850  17.592  0.00  0.00    +0.000 N 
ATOM      2  C   UNL     1       6.830   4.569  16.247  0.00  0.00    +0.000 C 
ATOM      3  O   UNL     1       7.803   4.691  15.528  0.00  0.00    +0.000 OA
ATOM      4  C   UNL     1       5.475   4.063  15.755  0.00  0.00    +0.000 C 
ATOM      5  N   UNL     1       5.154   3.636  14.574  0.00  0.00    +0.000 NA
ATOM      6  C   UNL     1       4.579   4.155  16.900  0.00  0.00    +0.000 A 
ATOM      7  C   UNL     1       3.228   3.870  16.986  0.00  0.00    +0.000 A 
ATOM      8  C   UNL     1       2.617   4.070  18.222  0.00  0.00    +0.000 A 
ATOM      9  C   UNL     1       3.359   4.539  19.323  0.00  0.00    +0.000 A 
ATOM     10  C   UNL     1       4.728   4.821  19.208  0.00  0.00    +0.000 A 
ATOM     11  C   UNL     1       5.331   4.626  17.978  0.00  0.00    +0.000 A 
ENDROOT
BRANCH   5  12
ATOM     12  N   UNL     1       6.165   3.623  13.649  0.00  0.00    +0.000 N 
ATOM     13  H   UNL     1       7.095   3.968  13.901  0.00  0.00    +0.000 HD
BRANCH  12  14
ATOM     14  C   UNL     1       5.972   3.156  12.380  0.00  0.00    +0.000 C 
ATOM     15  S   UNL     1       4.533   3.336  11.575  0.00  0.00    +0.000 S 
BRANCH  14  16
ATOM     16  N   UNL     1       7.033   2.537  11.817  0.00  0.00    +0.000 N 
ATOM     17  H   UNL     1       7.767   3.126  11.442  0.00  0.00    +0.000 HD
ATOM     18  H   UNL     1       7.114   1.532  11.804  0.00  0.00    +0.000 HD
ENDBRANCH  14  16
ENDBRANCH  12  14
ENDBRANCH   5  12
BRANCH   1  19
ATOM     19  C   UNL     1       7.699   5.438  18.418  0.00  0.00    +0.000 C 
BRANCH  19  22
ATOM     20  N   UNL     1       8.204   9.020  18.169  0.00  0.00    +0.000 N 
ATOM     21  C   UNL     1       8.545   7.862  18.799  0.00  0.00    +0.000 A 
ATOM     22  C   UNL     1       7.822   6.893  18.133  0.00  0.00    +0.000 A 
ATOM     23  N   UNL     1       7.139   7.479  17.100  0.00  0.00    +0.000 NA
ATOM     24  N   UNL     1       7.385   8.781  17.131  0.00  0.00    +0.000 NA
BRANCH  20  25
ATOM     25  C   UNL     1       8.569  10.368  18.558  0.00  0.00    +0.000 C 
BRANCH  25  26
ATOM     26  C   UNL     1       9.506  10.421  19.763  0.00  0.00    +0.000 C 
BRANCH  26  32
ATOM     27  C   UNL     1      12.050  11.621  18.476  0.00  0.00    +0.000 C 
ATOM     28  C   UNL     1      11.203  12.284  19.503  0.00  0.00    +0.000 A 
ATOM     29  N   UNL     1      11.475  13.450  20.058  0.00  0.00    +0.000 NA
ATOM     30  C   UNL     1      10.501  13.670  20.997  0.00  0.00    +0.000 A 
ATOM     31  C   UNL     1       9.606  12.638  20.978  0.00  0.00    +0.000 A 
ATOM     32  N   UNL     1      10.040  11.745  20.033  0.00  0.00    +0.000 N 
BRANCH  31  33
ATOM     33  N   UNL     1       8.459  12.453  21.782  0.00  0.00    +0.000 N 
ATOM     34  O   UNL     1       7.566  13.298  21.678  0.00  0.00    +0.000 OA
ATOM     35  O   UNL     1       8.460  11.466  22.525  0.00  0.00    +0.000 OA
ENDBRANCH  31  33
ENDBRANCH  26  32
ENDBRANCH  25  26
ENDBRANCH  20  25
ENDBRANCH  19  22
ENDBRANCH   1  19
TORSDOF 9
ENDMDL
MODEL 3
REMARK VINA RESULT:      -7.5      6.592      7.993
REMARK  Name = 
REMARK  10 active torsions:
REMARK  status: ('A' for Active; 'I' for Inactive)
REMARK    1  A    between atoms: C_1  and  C_2
REMARK    2  A    between atoms: C_5  and  N_6
REMARK    3  A    between atoms: N_9  and  C_10
REMARK    4  A    between atoms: C_10  and  C_11
REMARK    5  A    between atoms: C_11  and  N_12
REMARK    6  A    between atoms: C_14  and  C_15
REMARK    7  A    between atoms: C_15  and  N_16
REMARK    8  A    between atoms: N_20  and  N_21
REMARK    9  A    between atoms: N_21  and  C_22
REMARK   10  A    between atoms: C_22  and  N_23
REMARK                            x       y       z     vdW  Elec       q    Type
REMARK                         _______ _______ _______ _____ _____    ______ ____
ROOT
ATOM      1  N   UNL     1       6.620   4.828  17.498  0.00  0.00    +0.000 N 
ATOM      2  C   UNL     1       6.727   4.645  16.130  0.00  0.00    +0.000 C 
ATOM      3  O   UNL     1       7.684   4.766  15.390  0.00  0.00    +0.000 OA
ATOM      4  C   UNL     1       5.330   4.260  15.648  0.00  0.00    +0.000 C 
ATOM      5  N   UNL     1       4.947   3.947  14.449  0.00  0.00    +0.000 NA
ATOM      6  C   UNL     1       4.475   4.313  16.827  0.00  0.00    +0.000 A 
ATOM      7  C   UNL     1       3.112   4.102  16.937  0.00  0.00    +0.000 A 
ATOM      8  C   UNL     1       2.552   4.238  18.206  0.00  0.00    +0.000 A 
ATOM      9  C   UNL     1       3.354   4.573  19.313  0.00  0.00    +0.000 A 
ATOM     10  C   UNL     1       4.734   4.783  19.173  0.00  0.00    +0.000 A 
ATOM     11  C   UNL     1       5.286   4.652  17.911  0.00  0.00    +0.000 A 
ENDROOT
BRANCH   5  12
ATOM     12  N   UNL     1       5.928   3.949  13.491  0.00  0.00    +0.000 N 
ATOM     13  H   UNL     1       6.780   4.499  13.631  0.00  0.00    +0.000 HD
BRANCH  12  14
ATOM     14  C   UNL     1       5.805   3.229  12.337  0.00  0.00    +0.000 C 
ATOM     15  S   UNL     1       4.428   3.256  11.412  0.00  0.00    +0.000 S 
BRANCH  14  16
ATOM     16  N   UNL     1       6.884   2.490  11.992  0.00  0.00    +0.000 N 
ATOM     17  H   UNL     1       7.054   1.645  12.523  0.00  0.00    +0.000 HD
ATOM     18  H   UNL     1       7.473   2.745  11.214  0.00  0.00    +0.000 HD
ENDBRANCH  14  16
ENDBRANCH  12  14
ENDBRANCH   5  12
BRANCH   1  19
ATOM     19  C   UNL     1       7.712   5.286  18.331  0.00  0.00    +0.000 C 
BRANCH  19  22
ATOM     20  N   UNL     1       8.353   8.854  18.402  0.00  0.00    +0.000 N 
ATOM     21  C   UNL     1       8.620   7.637  18.951  0.00  0.00    +0.000 A 
ATOM     22  C   UNL     1       7.900   6.753  18.172  0.00  0.00    +0.000 A 
ATOM     23  N   UNL     1       7.293   7.447  17.159  0.00  0.00    +0.000 NA
ATOM     24  N   UNL     1       7.581   8.731  17.308  0.00  0.00    +0.000 NA
BRANCH  20  25
ATOM     25  C   UNL     1       8.744  10.151  18.918  0.00  0.00    +0.000 C 
BRANCH  25  26
ATOM     26  C   UNL     1       8.885  11.219  17.835  0.00  0.00    +0.000 C 
BRANCH  26  32
ATOM     27  C   UNL     1       7.157  13.769  17.553  0.00  0.00    +0.000 C 
ATOM     28  C   UNL     1       8.498  13.697  18.192  0.00  0.00    +0.000 A 
ATOM     29  N   UNL     1       9.162  14.738  18.658  0.00  0.00    +0.000 NA
ATOM     30  C   UNL     1      10.372  14.265  19.093  0.00  0.00    +0.000 A 
ATOM     31  C   UNL     1      10.421  12.910  18.923  0.00  0.00    +0.000 A 
ATOM     32  N   UNL     1       9.235  12.533  18.347  0.00  0.00    +0.000 N 
BRANCH  31  33
ATOM     33  N   UNL     1      11.479  12.023  19.225  0.00  0.00    +0.000 N 
ATOM     34  O   UNL     1      11.607  11.695  20.407  0.00  0.00    +0.000 OA
ATOM     35  O   UNL     1      12.185  11.664  18.276  0.00  0.00    +0.000 OA
ENDBRANCH  31  33
ENDBRANCH  26  32
ENDBRANCH  25  26
ENDBRANCH  20  25
ENDBRANCH  19  22
ENDBRANCH   1  19
TORSDOF 9
ENDMDL
MODEL 4
REMARK VINA RESULT:      -7.4      3.279      9.461
REMARK  Name = 
REMARK  10 active torsions:
REMARK  status: ('A' for Active; 'I' for Inactive)
REMARK    1  A    between atoms: C_1  and  C_2
REMARK    2  A    between atoms: C_5  and  N_6
REMARK    3  A    between atoms: N_9  and  C_10
REMARK    4  A    between atoms: C_10  and  C_11
REMARK    5  A    between atoms: C_11  and  N_12
REMARK    6  A    between atoms: C_14  and  C_15
REMARK    7  A    between atoms: C_15  and  N_16
REMARK    8  A    between atoms: N_20  and  N_21
REMARK    9  A    between atoms: N_21  and  C_22
REMARK   10  A    between atoms: C_22  and  N_23
REMARK                            x       y       z     vdW  Elec       q    Type
REMARK                         _______ _______ _______ _____ _____    ______ ____
ROOT
ATOM      1  N   UNL     1      -0.520  11.548  20.444  0.00  0.00    +0.000 N 
ATOM      2  C   UNL     1      -1.116  11.622  19.197  0.00  0.00    +0.000 C 
ATOM      3  O   UNL     1      -0.648  11.448  18.088  0.00  0.00    +0.000 OA
ATOM      4  C   UNL     1      -2.570  12.014  19.448  0.00  0.00    +0.000 C 
ATOM      5  N   UNL     1      -3.527  12.160  18.585  0.00  0.00    +0.000 NA
ATOM      6  C   UNL     1      -2.687  12.204  20.888  0.00  0.00    +0.000 A 
ATOM      7  C   UNL     1      -3.776  12.610  21.638  0.00  0.00    +0.000 A 
ATOM      8  C   UNL     1      -3.590  12.721  23.015  0.00  0.00    +0.000 A 
ATOM      9  C   UNL     1      -2.343  12.425  23.597  0.00  0.00    +0.000 A 
ATOM     10  C   UNL     1      -1.254  12.015  22.813  0.00  0.00    +0.000 A 
ATOM     11  C   UNL     1      -1.441  11.911  21.446  0.00  0.00    +0.000 A 
ENDROOT
BRANCH   5  12
ATOM     12  N   UNL     1      -3.194  11.916  17.278  0.00  0.00    +0.000 N 
ATOM     13  H   UNL     1      -2.299  12.247  16.907  0.00  0.00    +0.000 HD
BRANCH  12  14
ATOM     14  C   UNL     1      -4.028  11.233  16.439  0.00  0.00    +0.000 C 
ATOM     15  S   UNL     1      -3.469  10.362  15.143  0.00  0.00    +0.000 S 
BRANCH  14  16
ATOM     16  N   UNL     1      -5.345  11.311  16.734  0.00  0.00    +0.000 N 
ATOM     17  H   UNL     1      -5.998  11.026  16.014  0.00  0.00    +0.000 HD
ATOM     18  H   UNL     1      -5.667  11.601  17.644  0.00  0.00    +0.000 HD
ENDBRANCH  14  16
ENDBRANCH  12  14
ENDBRANCH   5  12
BRANCH   1  19
ATOM     19  C   UNL     1       0.889  11.285  20.644  0.00  0.00    +0.000 C 
BRANCH  19  22
ATOM     20  N   UNL     1       1.621   7.750  20.311  0.00  0.00    +0.000 N 
ATOM     21  C   UNL     1       1.112   8.739  21.095  0.00  0.00    +0.000 A 
ATOM     22  C   UNL     1       1.201   9.870  20.308  0.00  0.00    +0.000 A 
ATOM     23  N   UNL     1       1.687   9.517  19.077  0.00  0.00    +0.000 NA
ATOM     24  N   UNL     1       1.936   8.216  19.090  0.00  0.00    +0.000 NA
BRANCH  20  25
ATOM     25  C   UNL     1       1.894   6.380  20.697  0.00  0.00    +0.000 C 
BRANCH  25  26
ATOM     26  C   UNL     1       2.061   5.434  19.509  0.00  0.00    +0.000 C 
BRANCH  26  32
ATOM     27  C   UNL     1       4.859   5.846  18.256  0.00  0.00    +0.000 C 
ATOM     28  C   UNL     1       4.430   4.663  19.048  0.00  0.00    +0.000 A 
ATOM     29  N   UNL     1       5.172   3.592  19.255  0.00  0.00    +0.000 NA
ATOM     30  C   UNL     1       4.395   2.710  19.960  0.00  0.00    +0.000 A 
ATOM     31  C   UNL     1       3.179   3.277  20.216  0.00  0.00    +0.000 A 
ATOM     32  N   UNL     1       3.183   4.521  19.639  0.00  0.00    +0.000 N 
BRANCH  31  33
ATOM     33  N   UNL     1       2.075   2.721  20.902  0.00  0.00    +0.000 N 
ATOM     34  O   UNL     1       1.262   2.088  20.223  0.00  0.00    +0.000 OA
ATOM     35  O   UNL     1       2.022   2.927  22.119  0.00  0.00    +0.000 OA
ENDBRANCH  31  33
ENDBRANCH  26  32
ENDBRANCH  25  26
ENDBRANCH  20  25
ENDBRANCH  19  22
ENDBRANCH   1  19
TORSDOF 9
ENDMDL
MODEL 5
REMARK VINA RESULT:      -7.4      2.084      2.339
REMARK  Name = 
REMARK  10 active torsions:
REMARK  status: ('A' for Active; 'I' for Inactive)
REMARK    1  A    between atoms: C_1  and  C_2
REMARK    2  A    between atoms: C_5  and  N_6
REMARK    3  A    between atoms: N_9  and  C_10
REMARK    4  A    between atoms: C_10  and  C_11
REMARK    5  A    between atoms: C_11  and  N_12
REMARK    6  A    between atoms: C_14  and  C_15
REMARK    7  A    between atoms: C_15  and  N_16
REMARK    8  A    between atoms: N_20  and  N_21
REMARK    9  A    between atoms: N_21  and  C_22
REMARK   10  A    between atoms: C_22  and  N_23
REMARK                            x       y       z     vdW  Elec       q    Type
REMARK                         _______ _______ _______ _____ _____    ______ ____
ROOT
ATOM      1  N   UNL     1       3.282   5.486  19.269  0.00  0.00    +0.000 N 
ATOM      2  C   UNL     1       4.331   5.341  18.376  0.00  0.00    +0.000 C 
ATOM      3  O   UNL     1       5.255   6.087  18.117  0.00  0.00    +0.000 OA
ATOM      4  C   UNL     1       4.114   3.994  17.690  0.00  0.00    +0.000 C 
ATOM      5  N   UNL     1       4.864   3.408  16.809  0.00  0.00    +0.000 NA
ATOM      6  C   UNL     1       2.863   3.473  18.224  0.00  0.00    +0.000 A 
ATOM      7  C   UNL     1       2.183   2.312  17.904  0.00  0.00    +0.000 A 
ATOM      8  C   UNL     1       0.984   2.074  18.573  0.00  0.00    +0.000 A 
ATOM      9  C   UNL     1       0.505   2.987  19.532  0.00  0.00    +0.000 A 
ATOM     10  C   UNL     1       1.214   4.158  19.838  0.00  0.00    +0.000 A 
ATOM     11  C   UNL     1       2.401   4.393  19.167  0.00  0.00    +0.000 A 
ENDROOT
BRANCH   5  12
ATOM     12  N   UNL     1       6.007   4.077  16.459  0.00  0.00    +0.000 N 
ATOM     13  H   UNL     1       6.798   4.115  17.107  0.00  0.00    +0.000 HD
BRANCH  12  14
ATOM     14  C   UNL     1       6.131   4.704  15.252  0.00  0.00    +0.000 C 
ATOM     15  S   UNL     1       6.158   3.875  13.816  0.00  0.00    +0.000 S 
BRANCH  14  16
ATOM     16  N   UNL     1       6.230   6.052  15.301  0.00  0.00    +0.000 N 
ATOM     17  H   UNL     1       5.731   6.526  16.044  0.00  0.00    +0.000 HD
ATOM     18  H   UNL     1       6.806   6.564  14.651  0.00  0.00    +0.000 HD
ENDBRANCH  14  16
ENDBRANCH  12  14
ENDBRANCH   5  12
BRANCH   1  19
ATOM     19  C   UNL     1       3.068   6.676  20.065  0.00  0.00    +0.000 C 
BRANCH  19  22
ATOM     20  N   UNL     1       1.095   9.279  18.491  0.00  0.00    +0.000 N 
ATOM     21  C   UNL     1       1.469   8.678  19.653  0.00  0.00    +0.000 A 
ATOM     22  C   UNL     1       2.379   7.718  19.258  0.00  0.00    +0.000 A 
ATOM     23  N   UNL     1       2.571   7.820  17.905  0.00  0.00    +0.000 NA
ATOM     24  N   UNL     1       1.783   8.782  17.448  0.00  0.00    +0.000 NA
BRANCH  20  25
ATOM     25  C   UNL     1       0.050  10.267  18.312  0.00  0.00    +0.000 C 
BRANCH  25  26
ATOM     26  C   UNL     1      -1.098  10.126  19.310  0.00  0.00    +0.000 C 
BRANCH  26  32
ATOM     27  C   UNL     1      -3.548  11.835  18.506  0.00  0.00    +0.000 C 
ATOM     28  C   UNL     1      -2.557  12.182  19.559  0.00  0.00    +0.000 A 
ATOM     29  N   UNL     1      -2.554  13.312  20.241  0.00  0.00    +0.000 NA
ATOM     30  C   UNL     1      -1.450  13.275  21.051  0.00  0.00    +0.000 A 
ATOM     31  C   UNL     1      -0.800  12.085  20.884  0.00  0.00    +0.000 A 
ATOM     32  N   UNL     1      -1.491  11.378  19.934  0.00  0.00    +0.000 N 
BRANCH  31  33
ATOM     33  N   UNL     1       0.384  11.633  21.510  0.00  0.00    +0.000 N 
ATOM     34  O   UNL     1       0.251  10.805  22.416  0.00  0.00    +0.000 OA
ATOM     35  O   UNL     1       1.444  12.116  21.099  0.00  0.00    +0.000 OA
ENDBRANCH  31  33
ENDBRANCH  26  32
ENDBRANCH  25  26
ENDBRANCH  20  25
ENDBRANCH  19  22
ENDBRANCH   1  19
TORSDOF 9
ENDMDL
MODEL 6
REMARK VINA RESULT:      -7.3      3.417      9.511
REMARK  Name = 
REMARK  10 active torsions:
REMARK  status: ('A' for Active; 'I' for Inactive)
REMARK    1  A    between atoms: C_1  and  C_2
REMARK    2  A    between atoms: C_5  and  N_6
REMARK    3  A    between atoms: N_9  and  C_10
REMARK    4  A    between atoms: C_10  and  C_11
REMARK    5  A    between atoms: C_11  and  N_12
REMARK    6  A    between atoms: C_14  and  C_15
REMARK    7  A    between atoms: C_15  and  N_16
REMARK    8  A    between atoms: N_20  and  N_21
REMARK    9  A    between atoms: N_21  and  C_22
REMARK   10  A    between atoms: C_22  and  N_23
REMARK                            x       y       z     vdW  Elec       q    Type
REMARK                         _______ _______ _______ _____ _____    ______ ____
ROOT
ATOM      1  N   UNL     1      -0.347  11.345  19.138  0.00  0.00    +0.000 N 
ATOM      2  C   UNL     1      -0.727  12.233  20.130  0.00  0.00    +0.000 C 
ATOM      3  O   UNL     1      -0.082  12.733  21.031  0.00  0.00    +0.000 OA
ATOM      4  C   UNL     1      -2.217  12.489  19.916  0.00  0.00    +0.000 C 
ATOM      5  N   UNL     1      -3.002  13.286  20.573  0.00  0.00    +0.000 NA
ATOM      6  C   UNL     1      -2.609  11.639  18.799  0.00  0.00    +0.000 A 
ATOM      7  C   UNL     1      -3.856  11.451  18.230  0.00  0.00    +0.000 A 
ATOM      8  C   UNL     1      -3.938  10.552  17.168  0.00  0.00    +0.000 A 
ATOM      9  C   UNL     1      -2.791   9.878  16.709  0.00  0.00    +0.000 A 
ATOM     10  C   UNL     1      -1.538  10.087  17.304  0.00  0.00    +0.000 A 
ATOM     11  C   UNL     1      -1.461  10.976  18.361  0.00  0.00    +0.000 A 
ENDROOT
BRANCH   5  12
ATOM     12  N   UNL     1      -2.414  14.003  21.582  0.00  0.00    +0.000 N 
ATOM     13  H   UNL     1      -1.582  14.569  21.392  0.00  0.00    +0.000 HD
BRANCH  12  14
ATOM     14  C   UNL     1      -2.909  13.990  22.855  0.00  0.00    +0.000 C 
ATOM     15  S   UNL     1      -3.397  12.594  23.606  0.00  0.00    +0.000 S 
BRANCH  14  16
ATOM     16  N   UNL     1      -2.975  15.193  23.469  0.00  0.00    +0.000 N 
ATOM     17  H   UNL     1      -2.184  15.464  24.041  0.00  0.00    +0.000 HD
ATOM     18  H   UNL     1      -3.758  15.813  23.334  0.00  0.00    +0.000 HD
ENDBRANCH  14  16
ENDBRANCH  12  14
ENDBRANCH   5  12
BRANCH   1  19
ATOM     19  C   UNL     1       0.981  10.777  19.039  0.00  0.00    +0.000 C 
BRANCH  19  22
ATOM     20  N   UNL     1       1.438   7.550  20.627  0.00  0.00    +0.000 N 
ATOM     21  C   UNL     1       1.834   8.401  19.642  0.00  0.00    +0.000 A 
ATOM     22  C   UNL     1       1.070   9.533  19.849  0.00  0.00    +0.000 A 
ATOM     23  N   UNL     1       0.306   9.353  20.971  0.00  0.00    +0.000 NA
ATOM     24  N   UNL     1       0.544   8.137  21.441  0.00  0.00    +0.000 NA
BRANCH  20  25
ATOM     25  C   UNL     1       1.821   6.161  20.790  0.00  0.00    +0.000 C 
BRANCH  25  26
ATOM     26  C   UNL     1       2.269   5.497  19.490  0.00  0.00    +0.000 C 
BRANCH  26  32
ATOM     27  C   UNL     1       5.182   5.659  18.464  0.00  0.00    +0.000 C 
ATOM     28  C   UNL     1       4.579   4.504  19.182  0.00  0.00    +0.000 A 
ATOM     29  N   UNL     1       5.195   3.359  19.408  0.00  0.00    +0.000 NA
ATOM     30  C   UNL     1       4.283   2.542  20.023  0.00  0.00    +0.000 A 
ATOM     31  C   UNL     1       3.111   3.221  20.206  0.00  0.00    +0.000 A 
ATOM     32  N   UNL     1       3.282   4.472  19.673  0.00  0.00    +0.000 N 
BRANCH  31  33
ATOM     33  N   UNL     1       1.908   2.760  20.788  0.00  0.00    +0.000 N 
ATOM     34  O   UNL     1       1.840   2.793  22.020  0.00  0.00    +0.000 OA
ATOM     35  O   UNL     1       1.038   2.356  20.009  0.00  0.00    +0.000 OA
ENDBRANCH  31  33
ENDBRANCH  26  32
ENDBRANCH  25  26
ENDBRANCH  20  25
ENDBRANCH  19  22
ENDBRANCH   1  19
TORSDOF 9
ENDMDL
MODEL 7
REMARK VINA RESULT:      -7.2      3.382      9.636
REMARK  Name = 
REMARK  10 active torsions:
REMARK  status: ('A' for Active; 'I' for Inactive)
REMARK    1  A    between atoms: C_1  and  C_2
REMARK    2  A    between atoms: C_5  and  N_6
REMARK    3  A    between atoms: N_9  and  C_10
REMARK    4  A    between atoms: C_10  and  C_11
REMARK    5  A    between atoms: C_11  and  N_12
REMARK    6  A    between atoms: C_14  and  C_15
REMARK    7  A    between atoms: C_15  and  N_16
REMARK    8  A    between atoms: N_20  and  N_21
REMARK    9  A    between atoms: N_21  and  C_22
REMARK   10  A    between atoms: C_22  and  N_23
REMARK                            x       y       z     vdW  Elec       q    Type
REMARK                         _______ _______ _______ _____ _____    ______ ____
ROOT
ATOM      1  N   UNL     1       0.096  11.062  19.034  0.00  0.00    +0.000 N 
ATOM      2  C   UNL     1      -1.083  10.721  18.394  0.00  0.00    +0.000 C 
ATOM      3  O   UNL     1      -1.298   9.912  17.513  0.00  0.00    +0.000 OA
ATOM      4  C   UNL     1      -2.162  11.615  19.001  0.00  0.00    +0.000 C 
ATOM      5  N   UNL     1      -3.435  11.628  18.749  0.00  0.00    +0.000 NA
ATOM      6  C   UNL     1      -1.473  12.484  19.945  0.00  0.00    +0.000 A 
ATOM      7  C   UNL     1      -1.974  13.511  20.726  0.00  0.00    +0.000 A 
ATOM      8  C   UNL     1      -1.066  14.191  21.535  0.00  0.00    +0.000 A 
ATOM      9  C   UNL     1       0.295  13.833  21.545  0.00  0.00    +0.000 A 
ATOM     10  C   UNL     1       0.777  12.788  20.744  0.00  0.00    +0.000 A 
ATOM     11  C   UNL     1      -0.126  12.118  19.937  0.00  0.00    +0.000 A 
ENDROOT
BRANCH   5  12
ATOM     12  N   UNL     1      -3.870  10.709  17.830  0.00  0.00    +0.000 N 
ATOM     13  H   UNL     1      -3.801   9.708  18.033  0.00  0.00    +0.000 HD
BRANCH  12  14
ATOM     14  C   UNL     1      -4.405  11.090  16.632  0.00  0.00    +0.000 C 
ATOM     15  S   UNL     1      -3.707  10.696  15.180  0.00  0.00    +0.000 S 
BRANCH  14  16
ATOM     16  N   UNL     1      -5.547  11.811  16.704  0.00  0.00    +0.000 N 
ATOM     17  H   UNL     1      -5.574  12.686  16.195  0.00  0.00    +0.000 HD
ATOM     18  H   UNL     1      -6.352  11.476  17.209  0.00  0.00    +0.000 HD
ENDBRANCH  14  16
ENDBRANCH  12  14
ENDBRANCH   5  12
BRANCH   1  19
ATOM     19  C   UNL     1       1.385  10.500  18.687  0.00  0.00    +0.000 C 
BRANCH  19  22
ATOM     20  N   UNL     1       1.978   7.149  19.940  0.00  0.00    +0.000 N 
ATOM     21  C   UNL     1       2.161   8.034  18.922  0.00  0.00    +0.000 A 
ATOM     22  C   UNL     1       1.584   9.201  19.384  0.00  0.00    +0.000 A 
ATOM     23  N   UNL     1       1.145   9.001  20.665  0.00  0.00    +0.000 NA
ATOM     24  N   UNL     1       1.395   7.742  20.996  0.00  0.00    +0.000 NA
BRANCH  20  25
ATOM     25  C   UNL     1       2.269   5.729  19.928  0.00  0.00    +0.000 C 
BRANCH  25  26
ATOM     26  C   UNL     1       2.378   5.142  18.522  0.00  0.00    +0.000 C 
BRANCH  26  32
ATOM     27  C   UNL     1       0.556   2.662  18.834  0.00  0.00    +0.000 C 
ATOM     28  C   UNL     1       2.035   2.637  18.680  0.00  0.00    +0.000 A 
ATOM     29  N   UNL     1       2.775   1.546  18.733  0.00  0.00    +0.000 NA
ATOM     30  C   UNL     1       4.078   1.953  18.622  0.00  0.00    +0.000 A 
ATOM     31  C   UNL     1       4.120   3.309  18.459  0.00  0.00    +0.000 A 
ATOM     32  N   UNL     1       2.827   3.761  18.496  0.00  0.00    +0.000 N 
BRANCH  31  33
ATOM     33  N   UNL     1       5.253   4.143  18.316  0.00  0.00    +0.000 N 
ATOM     34  O   UNL     1       5.571   4.454  17.165  0.00  0.00    +0.000 OA
ATOM     35  O   UNL     1       5.826   4.478  19.359  0.00  0.00    +0.000 OA
ENDBRANCH  31  33
ENDBRANCH  26  32
ENDBRANCH  25  26
ENDBRANCH  20  25
ENDBRANCH  19  22
ENDBRANCH   1  19
TORSDOF 9
ENDMDL
MODEL 8
REMARK VINA RESULT:      -7.2      3.260      8.923
REMARK  Name = 
REMARK  10 active torsions:
REMARK  status: ('A' for Active; 'I' for Inactive)
REMARK    1  A    between atoms: C_1  and  C_2
REMARK    2  A    between atoms: C_5  and  N_6
REMARK    3  A    between atoms: N_9  and  C_10
REMARK    4  A    between atoms: C_10  and  C_11
REMARK    5  A    between atoms: C_11  and  N_12
REMARK    6  A    between atoms: C_14  and  C_15
REMARK    7  A    between atoms: C_15  and  N_16
REMARK    8  A    between atoms: N_20  and  N_21
REMARK    9  A    between atoms: N_21  and  C_22
REMARK   10  A    between atoms: C_22  and  N_23
REMARK                            x       y       z     vdW  Elec       q    Type
REMARK                         _______ _______ _______ _____ _____    ______ ____
ROOT
ATOM      1  N   UNL     1       1.298   8.973  19.833  0.00  0.00    +0.000 N 
ATOM      2  C   UNL     1       0.596   9.505  18.764  0.00  0.00    +0.000 C 
ATOM      3  O   UNL     1       0.831   9.473  17.572  0.00  0.00    +0.000 OA
ATOM      4  C   UNL     1      -0.607  10.225  19.369  0.00  0.00    +0.000 C 
ATOM      5  N   UNL     1      -1.573  10.836  18.757  0.00  0.00    +0.000 NA
ATOM      6  C   UNL     1      -0.463  10.094  20.813  0.00  0.00    +0.000 A 
ATOM      7  C   UNL     1      -1.253  10.605  21.827  0.00  0.00    +0.000 A 
ATOM      8  C   UNL     1      -0.859  10.331  23.136  0.00  0.00    +0.000 A 
ATOM      9  C   UNL     1       0.293   9.563  23.392  0.00  0.00    +0.000 A 
ATOM     10  C   UNL     1       1.077   9.058  22.345  0.00  0.00    +0.000 A 
ATOM     11  C   UNL     1       0.686   9.336  21.047  0.00  0.00    +0.000 A 
ENDROOT
BRANCH   5  12
ATOM     12  N   UNL     1      -1.514  10.824  17.388  0.00  0.00    +0.000 N 
ATOM     13  H   UNL     1      -0.619  10.674  16.915  0.00  0.00    +0.000 HD
BRANCH  12  14
ATOM     14  C   UNL     1      -2.628  11.005  16.619  0.00  0.00    +0.000 C 
ATOM     15  S   UNL     1      -2.845  10.229  15.169  0.00  0.00    +0.000 S 
BRANCH  14  16
ATOM     16  N   UNL     1      -3.550  11.860  17.117  0.00  0.00    +0.000 N 
ATOM     17  H   UNL     1      -4.318  11.458  17.641  0.00  0.00    +0.000 HD
ATOM     18  H   UNL     1      -3.458  12.858  17.008  0.00  0.00    +0.000 HD
ENDBRANCH  14  16
ENDBRANCH  12  14
ENDBRANCH   5  12
BRANCH   1  19
ATOM     19  C   UNL     1       2.561   8.281  19.694  0.00  0.00    +0.000 C 
BRANCH  19  22
ATOM     20  N   UNL     1       2.053   4.941  18.377  0.00  0.00    +0.000 N 
ATOM     21  C   UNL     1       2.527   6.196  18.148  0.00  0.00    +0.000 A 
ATOM     22  C   UNL     1       2.331   6.853  19.346  0.00  0.00    +0.000 A 
ATOM     23  N   UNL     1       1.820   5.968  20.259  0.00  0.00    +0.000 NA
ATOM     24  N   UNL     1       1.659   4.800  19.654  0.00  0.00    +0.000 NA
BRANCH  20  25
ATOM     25  C   UNL     1       1.889   3.877  17.406  0.00  0.00    +0.000 C 
BRANCH  25  26
ATOM     26  C   UNL     1       3.086   2.932  17.331  0.00  0.00    +0.000 C 
BRANCH  26  32
ATOM     27  C   UNL     1       3.981   2.517  20.262  0.00  0.00    +0.000 C 
ATOM     28  C   UNL     1       4.695   3.335  19.246  0.00  0.00    +0.000 A 
ATOM     29  N   UNL     1       5.771   4.058  19.488  0.00  0.00    +0.000 NA
ATOM     30  C   UNL     1       6.072   4.713  18.322  0.00  0.00    +0.000 A 
ATOM     31  C   UNL     1       5.184   4.345  17.351  0.00  0.00    +0.000 A 
ATOM     32  N   UNL     1       4.298   3.470  17.923  0.00  0.00    +0.000 N 
BRANCH  31  33
ATOM     33  N   UNL     1       5.118   4.783  16.008  0.00  0.00    +0.000 N 
ATOM     34  O   UNL     1       5.295   3.927  15.137  0.00  0.00    +0.000 OA
ATOM     35  O   UNL     1       4.898   5.986  15.831  0.00  0.00    +0.000 OA
ENDBRANCH  31  33
ENDBRANCH  26  32
ENDBRANCH  25  26
ENDBRANCH  20  25
ENDBRANCH  19  22
ENDBRANCH   1  19
TORSDOF 9
ENDMDL
MODEL 9
REMARK VINA RESULT:      -7.1      1.339      1.801
REMARK  Name = 
REMARK  10 active torsions:
REMARK  status: ('A' for Active; 'I' for Inactive)
REMARK    1  A    between atoms: C_1  and  C_2
REMARK    2  A    between atoms: C_5  and  N_6
REMARK    3  A    between atoms: N_9  and  C_10
REMARK    4  A    between atoms: C_10  and  C_11
REMARK    5  A    between atoms: C_11  and  N_12
REMARK    6  A    between atoms: C_14  and  C_15
REMARK    7  A    between atoms: C_15  and  N_16
REMARK    8  A    between atoms: N_20  and  N_21
REMARK    9  A    between atoms: N_21  and  C_22
REMARK   10  A    between atoms: C_22  and  N_23
REMARK                            x       y       z     vdW  Elec       q    Type
REMARK                         _______ _______ _______ _____ _____    ______ ____
ROOT
ATOM      1  N   UNL     1       2.817   5.636  18.408  0.00  0.00    +0.000 N 
ATOM      2  C   UNL     1       4.179   5.587  18.164  0.00  0.00    +0.000 C 
ATOM      3  O   UNL     1       4.859   6.195  17.360  0.00  0.00    +0.000 OA
ATOM      4  C   UNL     1       4.740   4.542  19.126  0.00  0.00    +0.000 C 
ATOM      5  N   UNL     1       5.974   4.182  19.296  0.00  0.00    +0.000 NA
ATOM      6  C   UNL     1       3.590   4.002  19.840  0.00  0.00    +0.000 A 
ATOM      7  C   UNL     1       3.534   2.996  20.788  0.00  0.00    +0.000 A 
ATOM      8  C   UNL     1       2.277   2.674  21.295  0.00  0.00    +0.000 A 
ATOM      9  C   UNL     1       1.128   3.356  20.852  0.00  0.00    +0.000 A 
ATOM     10  C   UNL     1       1.213   4.373  19.890  0.00  0.00    +0.000 A 
ATOM     11  C   UNL     1       2.462   4.687  19.384  0.00  0.00    +0.000 A 
ENDROOT
BRANCH   5  12
ATOM     12  N   UNL     1       6.898   4.835  18.522  0.00  0.00    +0.000 N 
ATOM     13  H   UNL     1       6.963   4.632  17.521  0.00  0.00    +0.000 HD
BRANCH  12  14
ATOM     14  C   UNL     1       7.748   5.765  19.050  0.00  0.00    +0.000 C 
ATOM     15  S   UNL     1       8.030   7.228  18.320  0.00  0.00    +0.000 S 
BRANCH  14  16
ATOM     16  N   UNL     1       8.348   5.418  20.210  0.00  0.00    +0.000 N 
ATOM     17  H   UNL     1       9.343   5.232  20.180  0.00  0.00    +0.000 HD
ATOM     18  H   UNL     1       7.837   5.383  21.079  0.00  0.00    +0.000 HD
ENDBRANCH  14  16
ENDBRANCH  12  14
ENDBRANCH   5  12
BRANCH   1  19
ATOM     19  C   UNL     1       1.896   6.448  17.641  0.00  0.00    +0.000 C 
BRANCH  19  22
ATOM     20  N   UNL     1       1.500   9.611  19.369  0.00  0.00    +0.000 N 
ATOM     21  C   UNL     1       1.460   8.253  19.455  0.00  0.00    +0.000 A 
ATOM     22  C   UNL     1       1.839   7.827  18.197  0.00  0.00    +0.000 A 
ATOM     23  N   UNL     1       2.155   8.919  17.434  0.00  0.00    +0.000 NA
ATOM     24  N   UNL     1       1.947  10.006  18.165  0.00  0.00    +0.000 NA
BRANCH  20  25
ATOM     25  C   UNL     1       1.058  10.564  20.368  0.00  0.00    +0.000 C 
BRANCH  25  26
ATOM     26  C   UNL     1       0.384  11.799  19.774  0.00  0.00    +0.000 C 
BRANCH  26  32
ATOM     27  C   UNL     1       2.721  13.644  18.937  0.00  0.00    +0.000 C 
ATOM     28  C   UNL     1       1.822  13.859  20.102  0.00  0.00    +0.000 A 
ATOM     29  N   UNL     1       1.955  14.834  20.981  0.00  0.00    +0.000 NA
ATOM     30  C   UNL     1       0.985  14.640  21.928  0.00  0.00    +0.000 A 
ATOM     31  C   UNL     1       0.229  13.553  21.591  0.00  0.00    +0.000 A 
ATOM     32  N   UNL     1       0.751  13.042  20.432  0.00  0.00    +0.000 N 
BRANCH  31  33
ATOM     33  N   UNL     1      -0.866  12.992  22.288  0.00  0.00    +0.000 N 
ATOM     34  O   UNL     1      -0.601  12.157  23.158  0.00  0.00    +0.000 OA
ATOM     35  O   UNL     1      -1.990  13.382  21.954  0.00  0.00    +0.000 OA
ENDBRANCH  31  33
ENDBRANCH  26  32
ENDBRANCH  25  26
ENDBRANCH  20  25
ENDBRANCH  19  22
ENDBRANCH   1  19
TORSDOF 9
ENDMDL
