MODEL 1
REMARK VINA RESULT:      -7.5      0.000      0.000
REMARK  Name = 
REMARK  7 active torsions:
REMARK  status: ('A' for Active; 'I' for Inactive)
REMARK    1  A    between atoms: O_1  and  C_2
REMARK    2  A    between atoms: C_5  and  C_6
REMARK    3  A    between atoms: C_6  and  O_7
REMARK    4  A    between atoms: C_6  and  C_8
REMARK    5  A    between atoms: C_8  and  C_9
REMARK    6  A    between atoms: C_9  and  C_10
REMARK    7  A    between atoms: C_19  and  O_20
REMARK                            x       y       z     vdW  Elec       q    Type
REMARK                         _______ _______ _______ _____ _____    ______ ____
ROOT
ATOM      1  C   UNL     1       4.607   4.061  18.580  0.00  0.00    +0.000 C 
ENDROOT
BRANCH   1   5
ATOM      2  C   UNL     1       6.895   5.032  15.037  0.00  0.00    +0.000 A 
ATOM      3  C   UNL     1       5.511   4.983  14.966  0.00  0.00    +0.000 A 
ATOM      4  C   UNL     1       4.772   4.692  16.119  0.00  0.00    +0.000 A 
ATOM      5  C   UNL     1       5.408   4.425  17.347  0.00  0.00    +0.000 A 
ATOM      6  C   UNL     1       6.808   4.516  17.386  0.00  0.00    +0.000 A 
ATOM      7  C   UNL     1       7.551   4.803  16.237  0.00  0.00    +0.000 A 
BRANCH   2   8
ATOM      8  O   UNL     1       7.649   5.315  13.935  0.00  0.00    +0.000 OA
ATOM      9  H   UNL     1       8.447   5.792  14.215  0.00  0.00    +0.000 HD
ENDBRANCH   2   8
BRANCH   6  10
ATOM     10  O   UNL     1       7.531   4.328  18.530  0.00  0.00    +0.000 OA
ATOM     11  H   UNL     1       7.427   5.114  19.100  0.00  0.00    +0.000 HD
ENDBRANCH   6  10
ENDBRANCH   1   5
BRANCH   1  12
ATOM     12  O   UNL     1       5.284   2.989  19.238  0.00  0.00    +0.000 OA
ATOM     13  H   UNL     1       6.048   2.749  18.687  0.00  0.00    +0.000 HD
ENDBRANCH   1  12
BRANCH   1  14
ATOM     14  C   UNL     1       4.357   5.179  19.601  0.00  0.00    +0.000 C 
BRANCH  14  15
ATOM     15  C   UNL     1       2.868   5.395  19.880  0.00  0.00    +0.000 C 
BRANCH  15  16
ATOM     16  C   UNL     1       2.430   6.775  19.458  0.00  0.00    +0.000 A 
ATOM     17  C   UNL     1       2.685   7.238  18.148  0.00  0.00    +0.000 A 
ATOM     18  C   UNL     1       2.268   8.510  17.745  0.00  0.00    +0.000 A 
ATOM     19  C   UNL     1       1.602   9.290  18.665  0.00  0.00    +0.000 A 
ATOM     20  C   UNL     1       1.342   8.843  19.938  0.00  0.00    +0.000 A 
ATOM     21  C   UNL     1       1.736   7.593  20.364  0.00  0.00    +0.000 A 
ATOM     22  O   UNL     1       0.674   9.762  20.687  0.00  0.00    +0.000 OA
ATOM     23  C   UNL     1       0.591  10.858  19.753  0.00  0.00    +0.000 C 
ATOM     24  O   UNL     1       1.131  10.548  18.452  0.00  0.00    +0.000 OA
ENDBRANCH  15  16
ENDBRANCH  14  15
ENDBRANCH   1  14
TORSDOF 7
ENDMDL
MODEL 2
REMARK VINA RESULT:      -7.3      2.409      4.387
REMARK  Name = 
REMARK  7 active torsions:
REMARK  status: ('A' for Active; 'I' for Inactive)
REMARK    1  A    between atoms: O_1  and  C_2
REMARK    2  A    between atoms: C_5  and  C_6
REMARK    3  A    between atoms: C_6  and  O_7
REMARK    4  A    between atoms: C_6  and  C_8
REMARK    5  A    between atoms: C_8  and  C_9
REMARK    6  A    between atoms: C_9  and  C_10
REMARK    7  A    between atoms: C_19  and  O_20
REMARK                            x       y       z     vdW  Elec       q    Type
REMARK                         _______ _______ _______ _____ _____    ______ ____
ROOT
ATOM      1  C   UNL     1       3.389   3.660  17.505  0.00  0.00    +0.000 C 
ENDROOT
BRANCH   1   5
ATOM      2  C   UNL     1       1.641   2.758  21.360  0.00  0.00    +0.000 A 
ATOM      3  C   UNL     1       0.844   3.280  20.352  0.00  0.00    +0.000 A 
ATOM      4  C   UNL     1       1.406   3.548  19.100  0.00  0.00    +0.000 A 
ATOM      5  C   UNL     1       2.773   3.320  18.848  0.00  0.00    +0.000 A 
ATOM      6  C   UNL     1       3.539   2.762  19.882  0.00  0.00    +0.000 A 
ATOM      7  C   UNL     1       2.984   2.494  21.137  0.00  0.00    +0.000 A 
BRANCH   2   8
ATOM      8  O   UNL     1       1.128   2.481  22.595  0.00  0.00    +0.000 OA
ATOM      9  H   UNL     1       1.737   2.821  23.270  0.00  0.00    +0.000 HD
ENDBRANCH   2   8
BRANCH   6  10
ATOM     10  O   UNL     1       4.862   2.450  19.739  0.00  0.00    +0.000 OA
ATOM     11  H   UNL     1       5.345   2.764  20.527  0.00  0.00    +0.000 HD
ENDBRANCH   6  10
ENDBRANCH   1   5
BRANCH   1  12
ATOM     12  O   UNL     1       2.486   3.220  16.489  0.00  0.00    +0.000 OA
ATOM     13  H   UNL     1       3.019   3.010  15.702  0.00  0.00    +0.000 HD
ENDBRANCH   1  12
BRANCH   1  14
ATOM     14  C   UNL     1       3.732   5.133  17.251  0.00  0.00    +0.000 C 
BRANCH  14  15
ATOM     15  C   UNL     1       4.038   5.895  18.541  0.00  0.00    +0.000 C 
BRANCH  15  16
ATOM     16  C   UNL     1       3.073   7.037  18.741  0.00  0.00    +0.000 A 
ATOM     17  C   UNL     1       2.880   7.996  17.722  0.00  0.00    +0.000 A 
ATOM     18  C   UNL     1       1.976   9.049  17.893  0.00  0.00    +0.000 A 
ATOM     19  C   UNL     1       1.285   9.115  19.083  0.00  0.00    +0.000 A 
ATOM     20  C   UNL     1       1.460   8.181  20.075  0.00  0.00    +0.000 A 
ATOM     21  C   UNL     1       2.340   7.130  19.935  0.00  0.00    +0.000 A 
ATOM     22  O   UNL     1       0.683   8.424  21.164  0.00  0.00    +0.000 OA
ATOM     23  C   UNL     1       0.038   9.651  20.764  0.00  0.00    +0.000 C 
ATOM     24  O   UNL     1       0.375  10.067  19.424  0.00  0.00    +0.000 OA
ENDBRANCH  15  16
ENDBRANCH  14  15
ENDBRANCH   1  14
TORSDOF 7
ENDMDL
MODEL 3
REMARK VINA RESULT:      -7.2      2.424      6.005
REMARK  Name = 
REMARK  7 active torsions:
REMARK  status: ('A' for Active; 'I' for Inactive)
REMARK    1  A    between atoms: O_1  and  C_2
REMARK    2  A    between atoms: C_5  and  C_6
REMARK    3  A    between atoms: C_6  and  O_7
REMARK    4  A    between atoms: C_6  and  C_8
REMARK    5  A    between atoms: C_8  and  C_9
REMARK    6  A    between atoms: C_9  and  C_10
REMARK    7  A    between atoms: C_19  and  O_20
REMARK                            x       y       z     vdW  Elec       q    Type
REMARK                         _______ _______ _______ _____ _____    ______ ____
ROOT
ATOM      1  C   UNL     1       2.230   5.874  19.103  0.00  0.00    +0.000 C 
ENDROOT
BRANCH   1   5
ATOM      2  C   UNL     1       3.771   1.860  18.604  0.00  0.00    +0.000 A 
ATOM      3  C   UNL     1       4.370   2.715  19.518  0.00  0.00    +0.000 A 
ATOM      4  C   UNL     1       3.855   4.004  19.695  0.00  0.00    +0.000 A 
ATOM      5  C   UNL     1       2.753   4.460  18.945  0.00  0.00    +0.000 A 
ATOM      6  C   UNL     1       2.155   3.556  18.054  0.00  0.00    +0.000 A 
ATOM      7  C   UNL     1       2.667   2.268  17.871  0.00  0.00    +0.000 A 
BRANCH   2   8
ATOM      8  O   UNL     1       4.244   0.595  18.406  0.00  0.00    +0.000 OA
ATOM      9  H   UNL     1       4.595   0.257  19.245  0.00  0.00    +0.000 HD
ENDBRANCH   2   8
BRANCH   6  10
ATOM     10  O   UNL     1       1.052   3.868  17.310  0.00  0.00    +0.000 OA
ATOM     11  H   UNL     1       1.067   3.339  16.490  0.00  0.00    +0.000 HD
ENDBRANCH   6  10
ENDBRANCH   1   5
BRANCH   1  12
ATOM     12  O   UNL     1       2.837   6.435  20.268  0.00  0.00    +0.000 OA
ATOM     13  H   UNL     1       3.786   6.225  20.228  0.00  0.00    +0.000 HD
ENDBRANCH   1  12
BRANCH   1  14
ATOM     14  C   UNL     1       2.453   6.833  17.927  0.00  0.00    +0.000 C 
BRANCH  14  15
ATOM     15  C   UNL     1       3.791   7.568  18.015  0.00  0.00    +0.000 C 
BRANCH  15  16
ATOM     16  C   UNL     1       4.885   6.793  17.322  0.00  0.00    +0.000 A 
ATOM     17  C   UNL     1       6.172   6.703  17.897  0.00  0.00    +0.000 A 
ATOM     18  C   UNL     1       7.186   5.974  17.268  0.00  0.00    +0.000 A 
ATOM     19  C   UNL     1       6.885   5.349  16.078  0.00  0.00    +0.000 A 
ATOM     20  C   UNL     1       5.633   5.423  15.518  0.00  0.00    +0.000 A 
ATOM     21  C   UNL     1       4.612   6.131  16.115  0.00  0.00    +0.000 A 
ATOM     22  O   UNL     1       5.543   4.737  14.348  0.00  0.00    +0.000 OA
ATOM     23  C   UNL     1       6.900   4.266  14.209  0.00  0.00    +0.000 C 
ATOM     24  O   UNL     1       7.744   4.606  15.329  0.00  0.00    +0.000 OA
ENDBRANCH  15  16
ENDBRANCH  14  15
ENDBRANCH   1  14
TORSDOF 7
ENDMDL
MODEL 4
REMARK VINA RESULT:      -7.1      0.951      1.197
REMARK  Name = 
REMARK  7 active torsions:
REMARK  status: ('A' for Active; 'I' for Inactive)
REMARK    1  A    between atoms: O_1  and  C_2
REMARK    2  A    between atoms: C_5  and  C_6
REMARK    3  A    between atoms: C_6  and  O_7
REMARK    4  A    between atoms: C_6  and  C_8
REMARK    5  A    between atoms: C_8  and  C_9
REMARK    6  A    between atoms: C_9  and  C_10
REMARK    7  A    between atoms: C_19  and  O_20
REMARK                            x       y       z     vdW  Elec       q    Type
REMARK                         _______ _______ _______ _____ _____    ______ ____
ROOT
ATOM      1  C   UNL     1       4.383   3.788  18.440  0.00  0.00    +0.000 C 
ENDROOT
BRANCH   1   5
ATOM      2  C   UNL     1       7.001   5.021  15.222  0.00  0.00    +0.000 A 
ATOM      3  C   UNL     1       5.884   4.249  14.939  0.00  0.00    +0.000 A 
ATOM      4  C   UNL     1       5.026   3.872  15.978  0.00  0.00    +0.000 A 
ATOM      5  C   UNL     1       5.287   4.241  17.312  0.00  0.00    +0.000 A 
ATOM      6  C   UNL     1       6.409   5.047  17.554  0.00  0.00    +0.000 A 
ATOM      7  C   UNL     1       7.272   5.425  16.521  0.00  0.00    +0.000 A 
BRANCH   2   8
ATOM      8  O   UNL     1       7.860   5.410  14.235  0.00  0.00    +0.000 OA
ATOM      9  H   UNL     1       7.482   5.163  13.376  0.00  0.00    +0.000 HD
ENDBRANCH   2   8
BRANCH   6  10
ATOM     10  O   UNL     1       6.735   5.509  18.799  0.00  0.00    +0.000 OA
ATOM     11  H   UNL     1       6.860   4.745  19.394  0.00  0.00    +0.000 HD
ENDBRANCH   6  10
ENDBRANCH   1   5
BRANCH   1  12
ATOM     12  O   UNL     1       5.213   3.278  19.486  0.00  0.00    +0.000 OA
ATOM     13  H   UNL     1       4.809   3.543  20.330  0.00  0.00    +0.000 HD
ENDBRANCH   1  12
BRANCH   1  14
ATOM     14  C   UNL     1       3.437   4.838  19.037  0.00  0.00    +0.000 C 
BRANCH  14  15
ATOM     15  C   UNL     1       2.889   5.799  17.981  0.00  0.00    +0.000 C 
BRANCH  15  16
ATOM     16  C   UNL     1       2.328   7.046  18.619  0.00  0.00    +0.000 A 
ATOM     17  C   UNL     1       2.042   8.184  17.834  0.00  0.00    +0.000 A 
ATOM     18  C   UNL     1       1.507   9.338  18.415  0.00  0.00    +0.000 A 
ATOM     19  C   UNL     1       1.270   9.323  19.772  0.00  0.00    +0.000 A 
ATOM     20  C   UNL     1       1.537   8.216  20.541  0.00  0.00    +0.000 A 
ATOM     21  C   UNL     1       2.060   7.063  19.997  0.00  0.00    +0.000 A 
ATOM     22  O   UNL     1       1.230   8.406  21.852  0.00  0.00    +0.000 OA
ATOM     23  C   UNL     1       0.789   9.779  21.828  0.00  0.00    +0.000 C 
ATOM     24  O   UNL     1       0.762  10.351  20.504  0.00  0.00    +0.000 OA
ENDBRANCH  15  16
ENDBRANCH  14  15
ENDBRANCH   1  14
TORSDOF 7
ENDMDL
MODEL 5
REMARK VINA RESULT:      -7.1      1.640      6.411
REMARK  Name = 
REMARK  7 active torsions:
REMARK  status: ('A' for Active; 'I' for Inactive)
REMARK    1  A    between atoms: O_1  and  C_2
REMARK    2  A    between atoms: C_5  and  C_6
REMARK    3  A    between atoms: C_6  and  O_7
REMARK    4  A    between atoms: C_6  and  C_8
REMARK    5  A    between atoms: C_8  and  C_9
REMARK    6  A    between atoms: C_9  and  C_10
REMARK    7  A    between atoms: C_19  and  O_20
REMARK                            x       y       z     vdW  Elec       q    Type
REMARK                         _______ _______ _______ _____ _____    ______ ____
ROOT
ATOM      1  C   UNL     1       3.197   5.423  20.109  0.00  0.00    +0.000 C 
ENDROOT
BRANCH   1   5
ATOM      2  C   UNL     1       2.108   9.044  18.003  0.00  0.00    +0.000 A 
ATOM      3  C   UNL     1       2.892   8.092  17.368  0.00  0.00    +0.000 A 
ATOM      4  C   UNL     1       3.222   6.911  18.043  0.00  0.00    +0.000 A 
ATOM      5  C   UNL     1       2.795   6.680  19.365  0.00  0.00    +0.000 A 
ATOM      6  C   UNL     1       1.978   7.652  19.962  0.00  0.00    +0.000 A 
ATOM      7  C   UNL     1       1.647   8.835  19.294  0.00  0.00    +0.000 A 
BRANCH   2   8
ATOM      8  O   UNL     1       1.763  10.207  17.377  0.00  0.00    +0.000 OA
ATOM      9  H   UNL     1       2.332  10.921  17.707  0.00  0.00    +0.000 HD
ENDBRANCH   2   8
BRANCH   6  10
ATOM     10  O   UNL     1       1.462   7.516  21.220  0.00  0.00    +0.000 OA
ATOM     11  H   UNL     1       0.694   8.111  21.310  0.00  0.00    +0.000 HD
ENDBRANCH   6  10
ENDBRANCH   1   5
BRANCH   1  12
ATOM     12  O   UNL     1       2.390   5.336  21.285  0.00  0.00    +0.000 OA
ATOM     13  H   UNL     1       2.498   4.438  21.642  0.00  0.00    +0.000 HD
ENDBRANCH   1  12
BRANCH   1  14
ATOM     14  C   UNL     1       3.089   4.098  19.344  0.00  0.00    +0.000 C 
BRANCH  14  15
ATOM     15  C   UNL     1       4.427   3.362  19.255  0.00  0.00    +0.000 C 
BRANCH  15  16
ATOM     16  C   UNL     1       5.301   3.952  18.175  0.00  0.00    +0.000 A 
ATOM     17  C   UNL     1       6.387   4.790  18.513  0.00  0.00    +0.000 A 
ATOM     18  C   UNL     1       7.211   5.327  17.520  0.00  0.00    +0.000 A 
ATOM     19  C   UNL     1       6.929   5.010  16.209  0.00  0.00    +0.000 A 
ATOM     20  C   UNL     1       5.881   4.187  15.874  0.00  0.00    +0.000 A 
ATOM     21  C   UNL     1       5.053   3.639  16.829  0.00  0.00    +0.000 A 
ATOM     22  O   UNL     1       5.775   3.998  14.531  0.00  0.00    +0.000 OA
ATOM     23  C   UNL     1       6.847   4.839  14.057  0.00  0.00    +0.000 C 
ATOM     24  O   UNL     1       7.616   5.443  15.118  0.00  0.00    +0.000 OA
ENDBRANCH  15  16
ENDBRANCH  14  15
ENDBRANCH   1  14
TORSDOF 7
ENDMDL
MODEL 6
REMARK VINA RESULT:      -7.1      1.159      1.793
REMARK  Name = 
REMARK  7 active torsions:
REMARK  status: ('A' for Active; 'I' for Inactive)
REMARK    1  A    between atoms: O_1  and  C_2
REMARK    2  A    between atoms: C_5  and  C_6
REMARK    3  A    between atoms: C_6  and  O_7
REMARK    4  A    between atoms: C_6  and  C_8
REMARK    5  A    between atoms: C_8  and  C_9
REMARK    6  A    between atoms: C_9  and  C_10
REMARK    7  A    between atoms: C_19  and  O_20
REMARK                            x       y       z     vdW  Elec       q    Type
REMARK                         _______ _______ _______ _____ _____    ______ ____
ROOT
ATOM      1  C   UNL     1       4.340   3.154  19.051  0.00  0.00    +0.000 C 
ENDROOT
BRANCH   1   5
ATOM      2  C   UNL     1       6.831   5.199  16.163  0.00  0.00    +0.000 A 
ATOM      3  C   UNL     1       5.737   4.466  15.727  0.00  0.00    +0.000 A 
ATOM      4  C   UNL     1       4.919   3.826  16.664  0.00  0.00    +0.000 A 
ATOM      5  C   UNL     1       5.199   3.891  18.043  0.00  0.00    +0.000 A 
ATOM      6  C   UNL     1       6.295   4.667  18.447  0.00  0.00    +0.000 A 
ATOM      7  C   UNL     1       7.118   5.307  17.515  0.00  0.00    +0.000 A 
BRANCH   2   8
ATOM      8  O   UNL     1       7.650   5.839  15.278  0.00  0.00    +0.000 OA
ATOM      9  H   UNL     1       8.028   5.184  14.670  0.00  0.00    +0.000 HD
ENDBRANCH   2   8
BRANCH   6  10
ATOM     10  O   UNL     1       6.634   4.845  19.760  0.00  0.00    +0.000 OA
ATOM     11  H   UNL     1       6.734   3.970  20.179  0.00  0.00    +0.000 HD
ENDBRANCH   6  10
ENDBRANCH   1   5
BRANCH   1  12
ATOM     12  O   UNL     1       5.207   2.369  19.871  0.00  0.00    +0.000 OA
ATOM     13  H   UNL     1       6.052   2.281  19.396  0.00  0.00    +0.000 HD
ENDBRANCH   1  12
BRANCH   1  14
ATOM     14  C   UNL     1       3.449   4.009  19.962  0.00  0.00    +0.000 C 
BRANCH  14  15
ATOM     15  C   UNL     1       2.154   4.444  19.274  0.00  0.00    +0.000 C 
BRANCH  15  16
ATOM     16  C   UNL     1       1.980   5.941  19.337  0.00  0.00    +0.000 A 
ATOM     17  C   UNL     1       1.615   6.568  20.549  0.00  0.00    +0.000 A 
ATOM     18  C   UNL     1       1.467   7.956  20.620  0.00  0.00    +0.000 A 
ATOM     19  C   UNL     1       1.691   8.686  19.473  0.00  0.00    +0.000 A 
ATOM     20  C   UNL     1       2.056   8.084  18.293  0.00  0.00    +0.000 A 
ATOM     21  C   UNL     1       2.213   6.719  18.192  0.00  0.00    +0.000 A 
ATOM     22  O   UNL     1       2.230   8.979  17.284  0.00  0.00    +0.000 OA
ATOM     23  C   UNL     1       1.881  10.209  17.953  0.00  0.00    +0.000 C 
ATOM     24  O   UNL     1       1.588  10.037  19.355  0.00  0.00    +0.000 OA
ENDBRANCH  15  16
ENDBRANCH  14  15
ENDBRANCH   1  14
TORSDOF 7
ENDMDL
MODEL 7
REMARK VINA RESULT:      -7.1      3.324      4.714
REMARK  Name = 
REMARK  7 active torsions:
REMARK  status: ('A' for Active; 'I' for Inactive)
REMARK    1  A    between atoms: O_1  and  C_2
REMARK    2  A    between atoms: C_5  and  C_6
REMARK    3  A    between atoms: C_6  and  O_7
REMARK    4  A    between atoms: C_6  and  C_8
REMARK    5  A    between atoms: C_8  and  C_9
REMARK    6  A    between atoms: C_9  and  C_10
REMARK    7  A    between atoms: C_19  and  O_20
REMARK                            x       y       z     vdW  Elec       q    Type
REMARK                         _______ _______ _______ _____ _____    ______ ____
ROOT
ATOM      1  C   UNL     1       7.445   5.482  16.344  0.00  0.00    +0.000 C 
ENDROOT
BRANCH   1   5
ATOM      2  C   UNL     1       5.833   3.604  12.794  0.00  0.00    +0.000 A 
ATOM      3  C   UNL     1       5.207   3.409  14.017  0.00  0.00    +0.000 A 
ATOM      4  C   UNL     1       5.716   4.037  15.159  0.00  0.00    +0.000 A 
ATOM      5  C   UNL     1       6.868   4.845  15.097  0.00  0.00    +0.000 A 
ATOM      6  C   UNL     1       7.454   5.044  13.838  0.00  0.00    +0.000 A 
ATOM      7  C   UNL     1       6.952   4.417  12.693  0.00  0.00    +0.000 A 
BRANCH   2   8
ATOM      8  O   UNL     1       5.364   3.010  11.658  0.00  0.00    +0.000 OA
ATOM      9  H   UNL     1       5.937   3.260  10.915  0.00  0.00    +0.000 HD
ENDBRANCH   2   8
BRANCH   6  10
ATOM     10  O   UNL     1       8.543   5.847  13.645  0.00  0.00    +0.000 OA
ATOM     11  H   UNL     1       9.337   5.285  13.569  0.00  0.00    +0.000 HD
ENDBRANCH   6  10
ENDBRANCH   1   5
BRANCH   1  12
ATOM     12  O   UNL     1       6.918   6.807  16.440  0.00  0.00    +0.000 OA
ATOM     13  H   UNL     1       7.034   7.227  15.570  0.00  0.00    +0.000 HD
ENDBRANCH   1  12
BRANCH   1  14
ATOM     14  C   UNL     1       7.193   4.759  17.674  0.00  0.00    +0.000 C 
BRANCH  14  15
ATOM     15  C   UNL     1       6.233   5.527  18.585  0.00  0.00    +0.000 C 
BRANCH  15  16
ATOM     16  C   UNL     1       4.824   5.002  18.457  0.00  0.00    +0.000 A 
ATOM     17  C   UNL     1       3.796   5.830  17.955  0.00  0.00    +0.000 A 
ATOM     18  C   UNL     1       2.491   5.346  17.818  0.00  0.00    +0.000 A 
ATOM     19  C   UNL     1       2.248   4.041  18.188  0.00  0.00    +0.000 A 
ATOM     20  C   UNL     1       3.245   3.227  18.669  0.00  0.00    +0.000 A 
ATOM     21  C   UNL     1       4.541   3.673  18.811  0.00  0.00    +0.000 A 
ATOM     22  O   UNL     1       2.798   1.979  18.973  0.00  0.00    +0.000 OA
ATOM     23  C   UNL     1       1.393   2.119  18.678  0.00  0.00    +0.000 C 
ATOM     24  O   UNL     1       1.045   3.408  18.130  0.00  0.00    +0.000 OA
ENDBRANCH  15  16
ENDBRANCH  14  15
ENDBRANCH   1  14
TORSDOF 7
ENDMDL
MODEL 8
REMARK VINA RESULT:      -7.0      2.293      6.128
REMARK  Name = 
REMARK  7 active torsions:
REMARK  status: ('A' for Active; 'I' for Inactive)
REMARK    1  A    between atoms: O_1  and  C_2
REMARK    2  A    between atoms: C_5  and  C_6
REMARK    3  A    between atoms: C_6  and  O_7
REMARK    4  A    between atoms: C_6  and  C_8
REMARK    5  A    between atoms: C_8  and  C_9
REMARK    6  A    between atoms: C_9  and  C_10
REMARK    7  A    between atoms: C_19  and  O_20
REMARK                            x       y       z     vdW  Elec       q    Type
REMARK                         _______ _______ _______ _____ _____    ______ ____
ROOT
ATOM      1  C   UNL     1       1.940   3.054  18.411  0.00  0.00    +0.000 C 
ENDROOT
BRANCH   1   5
ATOM      2  C   UNL     1       1.930   6.932  20.331  0.00  0.00    +0.000 A 
ATOM      3  C   UNL     1       2.387   6.815  19.027  0.00  0.00    +0.000 A 
ATOM      4  C   UNL     1       2.367   5.564  18.400  0.00  0.00    +0.000 A 
ATOM      5  C   UNL     1       1.913   4.415  19.076  0.00  0.00    +0.000 A 
ATOM      6  C   UNL     1       1.429   4.579  20.382  0.00  0.00    +0.000 A 
ATOM      7  C   UNL     1       1.449   5.826  21.015  0.00  0.00    +0.000 A 
BRANCH   2   8
ATOM      8  O   UNL     1       1.931   8.136  20.975  0.00  0.00    +0.000 OA
ATOM      9  H   UNL     1       1.409   8.056  21.790  0.00  0.00    +0.000 HD
ENDBRANCH   2   8
BRANCH   6  10
ATOM     10  O   UNL     1       0.917   3.548  21.119  0.00  0.00    +0.000 OA
ATOM     11  H   UNL     1       0.935   2.736  20.576  0.00  0.00    +0.000 HD
ENDBRANCH   6  10
ENDBRANCH   1   5
BRANCH   1  12
ATOM     12  O   UNL     1       0.587   2.638  18.214  0.00  0.00    +0.000 OA
ATOM     13  H   UNL     1       0.562   1.673  18.335  0.00  0.00    +0.000 HD
ENDBRANCH   1  12
BRANCH   1  14
ATOM     14  C   UNL     1       2.682   2.949  17.073  0.00  0.00    +0.000 C 
BRANCH  14  15
ATOM     15  C   UNL     1       4.149   2.552  17.246  0.00  0.00    +0.000 C 
BRANCH  15  16
ATOM     16  C   UNL     1       5.060   3.740  17.057  0.00  0.00    +0.000 A 
ATOM     17  C   UNL     1       5.250   4.298  15.773  0.00  0.00    +0.000 A 
ATOM     18  C   UNL     1       6.080   5.408  15.592  0.00  0.00    +0.000 A 
ATOM     19  C   UNL     1       6.701   5.935  16.703  0.00  0.00    +0.000 A 
ATOM     20  C   UNL     1       6.513   5.404  17.956  0.00  0.00    +0.000 A 
ATOM     21  C   UNL     1       5.699   4.313  18.168  0.00  0.00    +0.000 A 
ATOM     22  O   UNL     1       7.211   6.070  18.915  0.00  0.00    +0.000 OA
ATOM     23  C   UNL     1       7.901   7.049  18.111  0.00  0.00    +0.000 C 
ATOM     24  O   UNL     1       7.543   7.004  16.715  0.00  0.00    +0.000 OA
ENDBRANCH  15  16
ENDBRANCH  14  15
ENDBRANCH   1  14
TORSDOF 7
ENDMDL
MODEL 9
REMARK VINA RESULT:      -7.0      2.353      4.512
REMARK  Name = 
REMARK  7 active torsions:
REMARK  status: ('A' for Active; 'I' for Inactive)
REMARK    1  A    between atoms: O_1  and  C_2
REMARK    2  A    between atoms: C_5  and  C_6
REMARK    3  A    between atoms: C_6  and  O_7
REMARK    4  A    between atoms: C_6  and  C_8
REMARK    5  A    between atoms: C_8  and  C_9
REMARK    6  A    between atoms: C_9  and  C_10
REMARK    7  A    between atoms: C_19  and  O_20
REMARK                            x       y       z     vdW  Elec       q    Type
REMARK                         _______ _______ _______ _____ _____    ______ ____
ROOT
ATOM      1  C   UNL     1       3.374   3.643  17.420  0.00  0.00    +0.000 C 
ENDROOT
BRANCH   1   5
ATOM      2  C   UNL     1       1.690   2.800  21.317  0.00  0.00    +0.000 A 
ATOM      3  C   UNL     1       0.872   3.286  20.308  0.00  0.00    +0.000 A 
ATOM      4  C   UNL     1       1.414   3.535  19.042  0.00  0.00    +0.000 A 
ATOM      5  C   UNL     1       2.781   3.324  18.778  0.00  0.00    +0.000 A 
ATOM      6  C   UNL     1       3.569   2.802  19.814  0.00  0.00    +0.000 A 
ATOM      7  C   UNL     1       3.035   2.554  21.082  0.00  0.00    +0.000 A 
BRANCH   2   8
ATOM      8  O   UNL     1       1.198   2.542  22.564  0.00  0.00    +0.000 OA
ATOM      9  H   UNL     1       0.229   2.607  22.538  0.00  0.00    +0.000 HD
ENDBRANCH   2   8
BRANCH   6  10
ATOM     10  O   UNL     1       4.896   2.510  19.661  0.00  0.00    +0.000 OA
ATOM     11  H   UNL     1       5.224   2.103  20.486  0.00  0.00    +0.000 HD
ENDBRANCH   6  10
ENDBRANCH   1   5
BRANCH   1  12
ATOM     12  O   UNL     1       2.464   3.171  16.426  0.00  0.00    +0.000 OA
ATOM     13  H   UNL     1       1.946   2.451  16.827  0.00  0.00    +0.000 HD
ENDBRANCH   1  12
BRANCH   1  14
ATOM     14  C   UNL     1       3.693   5.115  17.130  0.00  0.00    +0.000 C 
BRANCH  14  15
ATOM     15  C   UNL     1       4.157   5.871  18.377  0.00  0.00    +0.000 C 
BRANCH  15  16
ATOM     16  C   UNL     1       3.129   6.886  18.812  0.00  0.00    +0.000 A 
ATOM     17  C   UNL     1       2.506   6.776  20.075  0.00  0.00    +0.000 A 
ATOM     18  C   UNL     1       1.564   7.722  20.492  0.00  0.00    +0.000 A 
ATOM     19  C   UNL     1       1.269   8.757  19.632  0.00  0.00    +0.000 A 
ATOM     20  C   UNL     1       1.877   8.875  18.406  0.00  0.00    +0.000 A 
ATOM     21  C   UNL     1       2.812   7.962  17.968  0.00  0.00    +0.000 A 
ATOM     22  O   UNL     1       1.449   9.965  17.714  0.00  0.00    +0.000 OA
ATOM     23  C   UNL     1       0.461  10.489  18.626  0.00  0.00    +0.000 C 
ATOM     24  O   UNL     1       0.378   9.759  19.867  0.00  0.00    +0.000 OA
ENDBRANCH  15  16
ENDBRANCH  14  15
ENDBRANCH   1  14
TORSDOF 7
ENDMDL
