MODEL 1
REMARK VINA RESULT:      -8.0      0.000      0.000
REMARK  Name = 
REMARK  3 active torsions:
REMARK  status: ('A' for Active; 'I' for Inactive)
REMARK    1  A    between atoms: C_1  and  C_2
REMARK    2  A    between atoms: C_4  and  N_5
REMARK    3  A    between atoms: N_5  and  C_6
REMARK                            x       y       z     vdW  Elec       q    Type
REMARK                         _______ _______ _______ _____ _____    ______ ____
ROOT
ATOM      1  C   UNL     1       1.438   8.578  20.877  0.00  0.00    +0.000 C 
ATOM      2  C   UNL     1       1.812   7.277  20.232  0.00  0.00    +0.000 A 
ATOM      3  C   UNL     1       2.496   7.249  19.015  0.00  0.00    +0.000 A 
ATOM      4  C   UNL     1       2.850   6.029  18.434  0.00  0.00    +0.000 A 
ATOM      5  C   UNL     1       2.493   4.855  19.159  0.00  0.00    +0.000 A 
ATOM      6  C   UNL     1       1.800   4.976  20.392  0.00  0.00    +0.000 A 
ATOM      7  C   UNL     1       1.440   3.850  21.117  0.00  0.00    +0.000 A 
ATOM      8  C   UNL     1       1.723   2.549  20.694  0.00  0.00    +0.000 A 
ATOM      9  C   UNL     1       2.394   2.437  19.482  0.00  0.00    +0.000 A 
ATOM     10  N   UNL     1       2.819   1.341  18.774  0.00  0.00    +0.000 N 
ATOM     11  C   UNL     1       3.422   1.783  17.633  0.00  0.00    +0.000 A 
ATOM     12  N   UNL     1       3.415   3.093  17.557  0.00  0.00    +0.000 NA
ATOM     13  C   UNL     1       2.781   3.530  18.712  0.00  0.00    +0.000 A 
ATOM     14  N   UNL     1       1.468   6.163  20.910  0.00  0.00    +0.000 NA
ATOM     15  H   UNL     1       2.702   0.377  19.050  0.00  0.00    +0.000 HD
ENDROOT
BRANCH   4  16
ATOM     16  N   UNL     1       3.596   5.944  17.253  0.00  0.00    +0.000 N 
ATOM     17  H   UNL     1       3.024   5.834  16.409  0.00  0.00    +0.000 HD
BRANCH  16  18
ATOM     18  C   UNL     1       4.970   6.414  17.071  0.00  0.00    +0.000 C 
ATOM     19  C   UNL     1       5.847   5.957  18.250  0.00  0.00    +0.000 C 
ATOM     20  C   UNL     1       6.551   4.621  18.059  0.00  0.00    +0.000 C 
ATOM     21  C   UNL     1       7.315   4.599  16.744  0.00  0.00    +0.000 C 
ATOM     22  C   UNL     1       6.348   4.764  15.583  0.00  0.00    +0.000 C 
ATOM     23  C   UNL     1       5.517   6.045  15.679  0.00  0.00    +0.000 C 
ENDBRANCH  16  18
ENDBRANCH   4  16
TORSDOF 2
ENDMDL
MODEL 2
REMARK VINA RESULT:      -7.7      1.925      5.772
REMARK  Name = 
REMARK  3 active torsions:
REMARK  status: ('A' for Active; 'I' for Inactive)
REMARK    1  A    between atoms: C_1  and  C_2
REMARK    2  A    between atoms: C_4  and  N_5
REMARK    3  A    between atoms: N_5  and  C_6
REMARK                            x       y       z     vdW  Elec       q    Type
REMARK                         _______ _______ _______ _____ _____    ______ ____
ROOT
ATOM      1  C   UNL     1       5.096   5.553  16.460  0.00  0.00    +0.000 C 
ATOM      2  C   UNL     1       4.151   6.132  17.469  0.00  0.00    +0.000 A 
ATOM      3  C   UNL     1       3.879   5.467  18.665  0.00  0.00    +0.000 A 
ATOM      4  C   UNL     1       3.007   6.026  19.602  0.00  0.00    +0.000 A 
ATOM      5  C   UNL     1       2.450   7.294  19.268  0.00  0.00    +0.000 A 
ATOM      6  C   UNL     1       2.783   7.903  18.029  0.00  0.00    +0.000 A 
ATOM      7  C   UNL     1       2.253   9.136  17.679  0.00  0.00    +0.000 A 
ATOM      8  C   UNL     1       1.373   9.847  18.499  0.00  0.00    +0.000 A 
ATOM      9  C   UNL     1       1.044   9.243  19.706  0.00  0.00    +0.000 A 
ATOM     10  N   UNL     1       0.223   9.642  20.731  0.00  0.00    +0.000 N 
ATOM     11  C   UNL     1       0.242   8.671  21.689  0.00  0.00    +0.000 A 
ATOM     12  N   UNL     1       1.021   7.670  21.351  0.00  0.00    +0.000 NA
ATOM     13  C   UNL     1       1.545   8.008  20.111  0.00  0.00    +0.000 A 
ATOM     14  N   UNL     1       3.613   7.328  17.153  0.00  0.00    +0.000 NA
ATOM     15  H   UNL     1      -0.303  10.502  20.766  0.00  0.00    +0.000 HD
ENDROOT
BRANCH   4  16
ATOM     16  N   UNL     1       2.755   5.437  20.846  0.00  0.00    +0.000 N 
ATOM     17  H   UNL     1       2.825   6.089  21.635  0.00  0.00    +0.000 HD
BRANCH  16  18
ATOM     18  C   UNL     1       2.016   4.195  21.072  0.00  0.00    +0.000 C 
ATOM     19  C   UNL     1       0.801   4.122  20.130  0.00  0.00    +0.000 C 
ATOM     20  C   UNL     1       1.051   3.428  18.798  0.00  0.00    +0.000 C 
ATOM     21  C   UNL     1       1.684   2.062  19.013  0.00  0.00    +0.000 C 
ATOM     22  C   UNL     1       3.033   2.219  19.694  0.00  0.00    +0.000 C 
ATOM     23  C   UNL     1       2.942   2.965  21.028  0.00  0.00    +0.000 C 
ENDBRANCH  16  18
ENDBRANCH   4  16
TORSDOF 2
ENDMDL
MODEL 3
REMARK VINA RESULT:      -7.3      1.335      2.035
REMARK  Name = 
REMARK  3 active torsions:
REMARK  status: ('A' for Active; 'I' for Inactive)
REMARK    1  A    between atoms: C_1  and  C_2
REMARK    2  A    between atoms: C_4  and  N_5
REMARK    3  A    between atoms: N_5  and  C_6
REMARK                            x       y       z     vdW  Elec       q    Type
REMARK                         _______ _______ _______ _____ _____    ______ ____
ROOT
ATOM      1  C   UNL     1       2.691   9.029  18.205  0.00  0.00    +0.000 C 
ATOM      2  C   UNL     1       2.840   7.538  18.203  0.00  0.00    +0.000 A 
ATOM      3  C   UNL     1       3.746   6.907  17.348  0.00  0.00    +0.000 A 
ATOM      4  C   UNL     1       3.884   5.517  17.368  0.00  0.00    +0.000 A 
ATOM      5  C   UNL     1       3.075   4.815  18.308  0.00  0.00    +0.000 A 
ATOM      6  C   UNL     1       2.181   5.537  19.142  0.00  0.00    +0.000 A 
ATOM      7  C   UNL     1       1.381   4.877  20.063  0.00  0.00    +0.000 A 
ATOM      8  C   UNL     1       1.395   3.491  20.230  0.00  0.00    +0.000 A 
ATOM      9  C   UNL     1       2.266   2.788  19.405  0.00  0.00    +0.000 A 
ATOM     10  N   UNL     1       2.531   1.447  19.292  0.00  0.00    +0.000 N 
ATOM     11  C   UNL     1       3.470   1.283  18.316  0.00  0.00    +0.000 A 
ATOM     12  N   UNL     1       3.830   2.431  17.790  0.00  0.00    +0.000 NA
ATOM     13  C   UNL     1       3.093   3.395  18.463  0.00  0.00    +0.000 A 
ATOM     14  N   UNL     1       2.069   6.867  19.084  0.00  0.00    +0.000 NA
ATOM     15  H   UNL     1       2.104   0.712  19.835  0.00  0.00    +0.000 HD
ENDROOT
BRANCH   4  16
ATOM     16  N   UNL     1       4.825   4.840  16.585  0.00  0.00    +0.000 N 
ATOM     17  H   UNL     1       4.550   4.739  15.602  0.00  0.00    +0.000 HD
BRANCH  16  18
ATOM     18  C   UNL     1       6.245   4.678  16.899  0.00  0.00    +0.000 C 
ATOM     19  C   UNL     1       7.058   5.832  16.286  0.00  0.00    +0.000 C 
ATOM     20  C   UNL     1       7.259   7.040  17.191  0.00  0.00    +0.000 C 
ATOM     21  C   UNL     1       7.812   6.614  18.542  0.00  0.00    +0.000 C 
ATOM     22  C   UNL     1       6.822   5.695  19.238  0.00  0.00    +0.000 C 
ATOM     23  C   UNL     1       6.473   4.458  18.406  0.00  0.00    +0.000 C 
ENDBRANCH  16  18
ENDBRANCH   4  16
TORSDOF 2
ENDMDL
MODEL 4
REMARK VINA RESULT:      -7.1      1.087      1.227
REMARK  Name = 
REMARK  3 active torsions:
REMARK  status: ('A' for Active; 'I' for Inactive)
REMARK    1  A    between atoms: C_1  and  C_2
REMARK    2  A    between atoms: C_4  and  N_5
REMARK    3  A    between atoms: N_5  and  C_6
REMARK                            x       y       z     vdW  Elec       q    Type
REMARK                         _______ _______ _______ _____ _____    ______ ____
ROOT
ATOM      1  C   UNL     1       1.658   9.724  19.069  0.00  0.00    +0.000 C 
ATOM      2  C   UNL     1       2.088   8.291  18.966  0.00  0.00    +0.000 A 
ATOM      3  C   UNL     1       2.849   7.844  17.885  0.00  0.00    +0.000 A 
ATOM      4  C   UNL     1       3.254   6.510  17.810  0.00  0.00    +0.000 A 
ATOM      5  C   UNL     1       2.863   5.669  18.893  0.00  0.00    +0.000 A 
ATOM      6  C   UNL     1       2.090   6.207  19.955  0.00  0.00    +0.000 A 
ATOM      7  C   UNL     1       1.695   5.410  21.019  0.00  0.00    +0.000 A 
ATOM      8  C   UNL     1       2.019   4.056  21.118  0.00  0.00    +0.000 A 
ATOM      9  C   UNL     1       2.769   3.532  20.072  0.00  0.00    +0.000 A 
ATOM     10  N   UNL     1       3.251   2.269  19.839  0.00  0.00    +0.000 N 
ATOM     11  C   UNL     1       3.923   2.286  18.651  0.00  0.00    +0.000 A 
ATOM     12  N   UNL     1       3.907   3.477  18.101  0.00  0.00    +0.000 NA
ATOM     13  C   UNL     1       3.194   4.282  18.978  0.00  0.00    +0.000 A 
ATOM     14  N   UNL     1       1.712   7.489  19.983  0.00  0.00    +0.000 NA
ATOM     15  H   UNL     1       3.127   1.468  20.440  0.00  0.00    +0.000 HD
ENDROOT
BRANCH   4  16
ATOM     16  N   UNL     1       4.077   6.025  16.787  0.00  0.00    +0.000 N 
ATOM     17  H   UNL     1       3.562   5.669  15.975  0.00  0.00    +0.000 HD
BRANCH  16  18
ATOM     18  C   UNL     1       5.485   6.368  16.584  0.00  0.00    +0.000 C 
ATOM     19  C   UNL     1       6.201   6.488  17.941  0.00  0.00    +0.000 C 
ATOM     20  C   UNL     1       6.852   5.208  18.449  0.00  0.00    +0.000 C 
ATOM     21  C   UNL     1       7.753   4.603  17.384  0.00  0.00    +0.000 C 
ATOM     22  C   UNL     1       6.930   4.231  16.162  0.00  0.00    +0.000 C 
ATOM     23  C   UNL     1       6.162   5.419  15.578  0.00  0.00    +0.000 C 
ENDBRANCH  16  18
ENDBRANCH   4  16
TORSDOF 2
ENDMDL
MODEL 5
REMARK VINA RESULT:      -7.0      0.995      1.090
REMARK  Name = 
REMARK  3 active torsions:
REMARK  status: ('A' for Active; 'I' for Inactive)
REMARK    1  A    between atoms: C_1  and  C_2
REMARK    2  A    between atoms: C_4  and  N_5
REMARK    3  A    between atoms: N_5  and  C_6
REMARK                            x       y       z     vdW  Elec       q    Type
REMARK                         _______ _______ _______ _____ _____    ______ ____
ROOT
ATOM      1  C   UNL     1       1.303   8.213  20.972  0.00  0.00    +0.000 C 
ATOM      2  C   UNL     1       1.840   6.923  20.431  0.00  0.00    +0.000 A 
ATOM      3  C   UNL     1       3.134   6.842  19.913  0.00  0.00    +0.000 A 
ATOM      4  C   UNL     1       3.625   5.629  19.426  0.00  0.00    +0.000 A 
ATOM      5  C   UNL     1       2.745   4.511  19.511  0.00  0.00    +0.000 A 
ATOM      6  C   UNL     1       1.444   4.682  20.054  0.00  0.00    +0.000 A 
ATOM      7  C   UNL     1       0.568   3.610  20.147  0.00  0.00    +0.000 A 
ATOM      8  C   UNL     1       0.893   2.321  19.720  0.00  0.00    +0.000 A 
ATOM      9  C   UNL     1       2.164   2.162  19.181  0.00  0.00    +0.000 A 
ATOM     10  N   UNL     1       2.804   1.063  18.666  0.00  0.00    +0.000 N 
ATOM     11  C   UNL     1       4.047   1.451  18.258  0.00  0.00    +0.000 A 
ATOM     12  N   UNL     1       4.252   2.729  18.476  0.00  0.00    +0.000 NA
ATOM     13  C   UNL     1       3.086   3.198  19.063  0.00  0.00    +0.000 A 
ATOM     14  N   UNL     1       1.007   5.863  20.500  0.00  0.00    +0.000 NA
ATOM     15  H   UNL     1       2.420   0.132  18.600  0.00  0.00    +0.000 HD
ENDROOT
BRANCH   4  16
ATOM     16  N   UNL     1       4.936   5.475  18.962  0.00  0.00    +0.000 N 
ATOM     17  H   UNL     1       5.393   4.617  19.288  0.00  0.00    +0.000 HD
BRANCH  16  18
ATOM     18  C   UNL     1       5.514   6.133  17.790  0.00  0.00    +0.000 C 
ATOM     19  C   UNL     1       7.029   5.870  17.729  0.00  0.00    +0.000 C 
ATOM     20  C   UNL     1       7.446   4.644  16.928  0.00  0.00    +0.000 C 
ATOM     21  C   UNL     1       6.819   4.669  15.542  0.00  0.00    +0.000 C 
ATOM     22  C   UNL     1       5.304   4.631  15.660  0.00  0.00    +0.000 C 
ATOM     23  C   UNL     1       4.745   5.780  16.503  0.00  0.00    +0.000 C 
ENDBRANCH  16  18
ENDBRANCH   4  16
TORSDOF 2
ENDMDL
MODEL 6
REMARK VINA RESULT:      -7.0      1.687      4.683
REMARK  Name = 
REMARK  3 active torsions:
REMARK  status: ('A' for Active; 'I' for Inactive)
REMARK    1  A    between atoms: C_1  and  C_2
REMARK    2  A    between atoms: C_4  and  N_5
REMARK    3  A    between atoms: N_5  and  C_6
REMARK                            x       y       z     vdW  Elec       q    Type
REMARK                         _______ _______ _______ _____ _____    ______ ____
ROOT
ATOM      1  C   UNL     1       1.004   9.814  18.207  0.00  0.00    +0.000 C 
ATOM      2  C   UNL     1       1.933   8.644  18.334  0.00  0.00    +0.000 A 
ATOM      3  C   UNL     1       1.873   7.796  19.441  0.00  0.00    +0.000 A 
ATOM      4  C   UNL     1       2.736   6.701  19.538  0.00  0.00    +0.000 A 
ATOM      5  C   UNL     1       3.637   6.508  18.451  0.00  0.00    +0.000 A 
ATOM      6  C   UNL     1       3.628   7.419  17.362  0.00  0.00    +0.000 A 
ATOM      7  C   UNL     1       4.496   7.255  16.292  0.00  0.00    +0.000 A 
ATOM      8  C   UNL     1       5.420   6.210  16.214  0.00  0.00    +0.000 A 
ATOM      9  C   UNL     1       5.429   5.326  17.287  0.00  0.00    +0.000 A 
ATOM     10  N   UNL     1       6.191   4.214  17.544  0.00  0.00    +0.000 N 
ATOM     11  C   UNL     1       5.804   3.708  18.751  0.00  0.00    +0.000 A 
ATOM     12  N   UNL     1       4.843   4.420  19.291  0.00  0.00    +0.000 NA
ATOM     13  C   UNL     1       4.583   5.440  18.387  0.00  0.00    +0.000 A 
ATOM     14  N   UNL     1       2.795   8.462  17.312  0.00  0.00    +0.000 NA
ATOM     15  H   UNL     1       6.912   3.839  16.945  0.00  0.00    +0.000 HD
ENDROOT
BRANCH   4  16
ATOM     16  N   UNL     1       2.672   5.780  20.589  0.00  0.00    +0.000 N 
ATOM     17  H   UNL     1       3.224   6.049  21.410  0.00  0.00    +0.000 HD
BRANCH  16  18
ATOM     18  C   UNL     1       1.622   4.781  20.791  0.00  0.00    +0.000 C 
ATOM     19  C   UNL     1       1.006   4.379  19.438  0.00  0.00    +0.000 C 
ATOM     20  C   UNL     1       1.656   3.182  18.757  0.00  0.00    +0.000 C 
ATOM     21  C   UNL     1       1.745   2.002  19.712  0.00  0.00    +0.000 C 
ATOM     22  C   UNL     1       2.617   2.366  20.903  0.00  0.00    +0.000 C 
ATOM     23  C   UNL     1       2.115   3.603  21.651  0.00  0.00    +0.000 C 
ENDBRANCH  16  18
ENDBRANCH   4  16
TORSDOF 2
ENDMDL
MODEL 7
REMARK VINA RESULT:      -6.9      1.490      5.462
REMARK  Name = 
REMARK  3 active torsions:
REMARK  status: ('A' for Active; 'I' for Inactive)
REMARK    1  A    between atoms: C_1  and  C_2
REMARK    2  A    between atoms: C_4  and  N_5
REMARK    3  A    between atoms: N_5  and  C_6
REMARK                            x       y       z     vdW  Elec       q    Type
REMARK                         _______ _______ _______ _____ _____    ______ ____
ROOT
ATOM      1  C   UNL     1       6.900   4.810  15.165  0.00  0.00    +0.000 C 
ATOM      2  C   UNL     1       5.904   5.116  16.242  0.00  0.00    +0.000 A 
ATOM      3  C   UNL     1       5.701   4.236  17.306  0.00  0.00    +0.000 A 
ATOM      4  C   UNL     1       4.780   4.542  18.310  0.00  0.00    +0.000 A 
ATOM      5  C   UNL     1       4.099   5.788  18.185  0.00  0.00    +0.000 A 
ATOM      6  C   UNL     1       4.368   6.625  17.070  0.00  0.00    +0.000 A 
ATOM      7  C   UNL     1       3.718   7.842  16.923  0.00  0.00    +0.000 A 
ATOM      8  C   UNL     1       2.774   8.316  17.836  0.00  0.00    +0.000 A 
ATOM      9  C   UNL     1       2.508   7.488  18.921  0.00  0.00    +0.000 A 
ATOM     10  N   UNL     1       1.653   7.627  19.985  0.00  0.00    +0.000 N 
ATOM     11  C   UNL     1       1.769   6.516  20.768  0.00  0.00    +0.000 A 
ATOM     12  N   UNL     1       2.643   5.667  20.279  0.00  0.00    +0.000 NA
ATOM     13  C   UNL     1       3.129   6.258  19.121  0.00  0.00    +0.000 A 
ATOM     14  N   UNL     1       5.249   6.290  16.123  0.00  0.00    +0.000 NA
ATOM     15  H   UNL     1       1.044   8.414  20.156  0.00  0.00    +0.000 HD
ENDROOT
BRANCH   4  16
ATOM     16  N   UNL     1       4.589   3.731  19.434  0.00  0.00    +0.000 N 
ATOM     17  H   UNL     1       4.689   4.228  20.325  0.00  0.00    +0.000 HD
BRANCH  16  18
ATOM     18  C   UNL     1       3.871   2.456  19.460  0.00  0.00    +0.000 C 
ATOM     19  C   UNL     1       3.221   2.242  20.838  0.00  0.00    +0.000 C 
ATOM     20  C   UNL     1       1.793   2.755  20.972  0.00  0.00    +0.000 C 
ATOM     21  C   UNL     1       0.922   2.220  19.846  0.00  0.00    +0.000 C 
ATOM     22  C   UNL     1       1.449   2.711  18.507  0.00  0.00    +0.000 C 
ATOM     23  C   UNL     1       2.909   2.321  18.265  0.00  0.00    +0.000 C 
ENDBRANCH  16  18
ENDBRANCH   4  16
TORSDOF 2
ENDMDL
MODEL 8
REMARK VINA RESULT:      -6.8      1.725      2.240
REMARK  Name = 
REMARK  3 active torsions:
REMARK  status: ('A' for Active; 'I' for Inactive)
REMARK    1  A    between atoms: C_1  and  C_2
REMARK    2  A    between atoms: C_4  and  N_5
REMARK    3  A    between atoms: N_5  and  C_6
REMARK                            x       y       z     vdW  Elec       q    Type
REMARK                         _______ _______ _______ _____ _____    ______ ____
ROOT
ATOM      1  C   UNL     1       2.120   9.041  17.794  0.00  0.00    +0.000 C 
ATOM      2  C   UNL     1       2.612   7.707  18.270  0.00  0.00    +0.000 A 
ATOM      3  C   UNL     1       3.857   7.216  17.873  0.00  0.00    +0.000 A 
ATOM      4  C   UNL     1       4.307   5.978  18.336  0.00  0.00    +0.000 A 
ATOM      5  C   UNL     1       3.442   5.284  19.231  0.00  0.00    +0.000 A 
ATOM      6  C   UNL     1       2.192   5.859  19.584  0.00  0.00    +0.000 A 
ATOM      7  C   UNL     1       1.330   5.204  20.452  0.00  0.00    +0.000 A 
ATOM      8  C   UNL     1       1.621   3.962  21.021  0.00  0.00    +0.000 A 
ATOM      9  C   UNL     1       2.841   3.401  20.665  0.00  0.00    +0.000 A 
ATOM     10  N   UNL     1       3.438   2.217  21.020  0.00  0.00    +0.000 N 
ATOM     11  C   UNL     1       4.640   2.142  20.378  0.00  0.00    +0.000 A 
ATOM     12  N   UNL     1       4.859   3.199  19.632  0.00  0.00    +0.000 NA
ATOM     13  C   UNL     1       3.747   4.011  19.800  0.00  0.00    +0.000 A 
ATOM     14  N   UNL     1       1.792   7.042  19.109  0.00  0.00    +0.000 NA
ATOM     15  H   UNL     1       3.053   1.524  21.644  0.00  0.00    +0.000 HD
ENDROOT
BRANCH   4  16
ATOM     16  N   UNL     1       5.574   5.471  18.027  0.00  0.00    +0.000 N 
ATOM     17  H   UNL     1       6.298   5.722  18.709  0.00  0.00    +0.000 HD
BRANCH  16  18
ATOM     18  C   UNL     1       5.853   4.334  17.148  0.00  0.00    +0.000 C 
ATOM     19  C   UNL     1       4.774   4.233  16.055  0.00  0.00    +0.000 C 
ATOM     20  C   UNL     1       5.084   4.978  14.764  0.00  0.00    +0.000 C 
ATOM     21  C   UNL     1       6.459   4.596  14.239  0.00  0.00    +0.000 C 
ATOM     22  C   UNL     1       7.525   4.990  15.249  0.00  0.00    +0.000 C 
ATOM     23  C   UNL     1       7.301   4.361  16.626  0.00  0.00    +0.000 C 
ENDBRANCH  16  18
ENDBRANCH   4  16
TORSDOF 2
ENDMDL
MODEL 9
REMARK VINA RESULT:      -6.7      1.547      4.938
REMARK  Name = 
REMARK  3 active torsions:
REMARK  status: ('A' for Active; 'I' for Inactive)
REMARK    1  A    between atoms: C_1  and  C_2
REMARK    2  A    between atoms: C_4  and  N_5
REMARK    3  A    between atoms: N_5  and  C_6
REMARK                            x       y       z     vdW  Elec       q    Type
REMARK                         _______ _______ _______ _____ _____    ______ ____
ROOT
ATOM      1  C   UNL     1       6.075   5.795  15.374  0.00  0.00    +0.000 C 
ATOM      2  C   UNL     1       5.053   5.348  16.375  0.00  0.00    +0.000 A 
ATOM      3  C   UNL     1       4.159   6.257  16.944  0.00  0.00    +0.000 A 
ATOM      4  C   UNL     1       3.203   5.823  17.866  0.00  0.00    +0.000 A 
ATOM      5  C   UNL     1       3.193   4.428  18.157  0.00  0.00    +0.000 A 
ATOM      6  C   UNL     1       4.138   3.574  17.531  0.00  0.00    +0.000 A 
ATOM      7  C   UNL     1       4.152   2.213  17.799  0.00  0.00    +0.000 A 
ATOM      8  C   UNL     1       3.261   1.602  18.684  0.00  0.00    +0.000 A 
ATOM      9  C   UNL     1       2.344   2.444  19.301  0.00  0.00    +0.000 A 
ATOM     10  N   UNL     1       1.348   2.196  20.212  0.00  0.00    +0.000 N 
ATOM     11  C   UNL     1       0.739   3.381  20.505  0.00  0.00    +0.000 A 
ATOM     12  N   UNL     1       1.275   4.380  19.842  0.00  0.00    +0.000 NA
ATOM     13  C   UNL     1       2.282   3.817  19.072  0.00  0.00    +0.000 A 
ATOM     14  N   UNL     1       5.046   4.030  16.663  0.00  0.00    +0.000 NA
ATOM     15  H   UNL     1       1.112   1.295  20.599  0.00  0.00    +0.000 HD
ENDROOT
BRANCH   4  16
ATOM     16  N   UNL     1       2.238   6.676  18.412  0.00  0.00    +0.000 N 
ATOM     17  H   UNL     1       1.379   6.197  18.704  0.00  0.00    +0.000 HD
BRANCH  16  18
ATOM     18  C   UNL     1       2.487   8.001  18.980  0.00  0.00    +0.000 C 
ATOM     19  C   UNL     1       2.120   9.093  17.959  0.00  0.00    +0.000 C 
ATOM     20  C   UNL     1       0.689   9.609  18.044  0.00  0.00    +0.000 C 
ATOM     21  C   UNL     1       0.352  10.027  19.467  0.00  0.00    +0.000 C 
ATOM     22  C   UNL     1       0.449   8.827  20.395  0.00  0.00    +0.000 C 
ATOM     23  C   UNL     1       1.827   8.161  20.362  0.00  0.00    +0.000 C 
ENDBRANCH  16  18
ENDBRANCH   4  16
TORSDOF 2
ENDMDL
