MODEL 1
REMARK VINA RESULT:      -7.8      0.000      0.000
REMARK  Name = 
REMARK  5 active torsions:
REMARK  status: ('A' for Active; 'I' for Inactive)
REMARK    1  A    between atoms: C_1  and  C_2
REMARK    2  A    between atoms: C_5  and  S_6
REMARK    3  A    between atoms: S_6  and  C_7
REMARK    4  A    between atoms: C_12  and  N_13
REMARK    5  A    between atoms: C_20  and  C_21
REMARK                            x       y       z     vdW  Elec       q    Type
REMARK                         _______ _______ _______ _____ _____    ______ ____
ROOT
ATOM      1  C   UNL     1       3.141   5.220  17.663  0.00  0.00    +0.000 A 
ATOM      2  C   UNL     1       1.833   5.026  18.136  0.00  0.00    +0.000 A 
ATOM      3  C   UNL     1       1.334   3.753  18.385  0.00  0.00    +0.000 A 
ATOM      4  C   UNL     1       2.135   2.642  18.166  0.00  0.00    +0.000 A 
ATOM      5  C   UNL     1       3.437   2.799  17.691  0.00  0.00    +0.000 A 
ATOM      6  C   UNL     1       3.987   4.079  17.427  0.00  0.00    +0.000 A 
ENDROOT
BRANCH   6   7
ATOM      7  N   UNL     1       5.345   4.169  16.932  0.00  0.00    +0.000 N 
ATOM      8  C   UNL     1       5.728   3.828  15.568  0.00  0.00    +0.000 C 
ATOM      9  C   UNL     1       6.431   5.031  14.922  0.00  0.00    +0.000 C 
ATOM     10  N   UNL     1       7.573   5.453  15.743  0.00  0.00    +0.000 NA
ATOM     11  C   UNL     1       7.119   5.853  17.082  0.00  0.00    +0.000 C 
ATOM     12  C   UNL     1       6.441   4.663  17.768  0.00  0.00    +0.000 C 
ATOM     13  H   UNL     1       8.034   6.273  15.282  0.00  0.00    +0.000 HD
ENDBRANCH   6   7
BRANCH   1  14
ATOM     14  S   UNL     1       3.581   6.956  17.388  0.00  0.00    +0.000 S 
BRANCH  14  19
ATOM     15  C   UNL     1      -0.158   9.435  21.551  0.00  0.00    +0.000 C 
ATOM     16  C   UNL     1       0.776   8.850  20.524  0.00  0.00    +0.000 A 
ATOM     17  C   UNL     1       1.545   7.720  20.856  0.00  0.00    +0.000 A 
ATOM     18  C   UNL     1       2.399   7.141  19.915  0.00  0.00    +0.000 A 
ATOM     19  C   UNL     1       2.492   7.672  18.624  0.00  0.00    +0.000 A 
ATOM     20  C   UNL     1       1.754   8.810  18.294  0.00  0.00    +0.000 A 
ATOM     21  C   UNL     1       0.895   9.411  19.230  0.00  0.00    +0.000 A 
ATOM     22  C   UNL     1       0.128  10.641  18.827  0.00  0.00    +0.000 C 
ENDBRANCH  14  19
ENDBRANCH   1  14
TORSDOF 3
ENDMDL
MODEL 2
REMARK VINA RESULT:      -7.5      2.675      6.814
REMARK  Name = 
REMARK  5 active torsions:
REMARK  status: ('A' for Active; 'I' for Inactive)
REMARK    1  A    between atoms: C_1  and  C_2
REMARK    2  A    between atoms: C_5  and  S_6
REMARK    3  A    between atoms: S_6  and  C_7
REMARK    4  A    between atoms: C_12  and  N_13
REMARK    5  A    between atoms: C_20  and  C_21
REMARK                            x       y       z     vdW  Elec       q    Type
REMARK                         _______ _______ _______ _____ _____    ______ ____
ROOT
ATOM      1  C   UNL     1       3.887   5.579  18.093  0.00  0.00    +0.000 A 
ATOM      2  C   UNL     1       4.479   6.651  17.404  0.00  0.00    +0.000 A 
ATOM      3  C   UNL     1       3.850   7.887  17.310  0.00  0.00    +0.000 A 
ATOM      4  C   UNL     1       2.612   8.080  17.905  0.00  0.00    +0.000 A 
ATOM      5  C   UNL     1       1.994   7.035  18.593  0.00  0.00    +0.000 A 
ATOM      6  C   UNL     1       2.601   5.759  18.716  0.00  0.00    +0.000 A 
ENDROOT
BRANCH   6   7
ATOM      7  N   UNL     1       1.902   4.719  19.441  0.00  0.00    +0.000 N 
ATOM      8  C   UNL     1       1.208   3.614  18.791  0.00  0.00    +0.000 C 
ATOM      9  C   UNL     1       1.763   2.284  19.324  0.00  0.00    +0.000 C 
ATOM     10  N   UNL     1       1.656   2.238  20.787  0.00  0.00    +0.000 NA
ATOM     11  C   UNL     1       2.432   3.332  21.390  0.00  0.00    +0.000 C 
ATOM     12  C   UNL     1       1.882   4.676  20.904  0.00  0.00    +0.000 C 
ATOM     13  H   UNL     1       2.040   1.324  21.125  0.00  0.00    +0.000 HD
ENDBRANCH   6   7
BRANCH   1  14
ATOM     14  S   UNL     1       4.867   4.055  18.077  0.00  0.00    +0.000 S 
BRANCH  14  19
ATOM     15  C   UNL     1       7.747   5.032  12.767  0.00  0.00    +0.000 C 
ATOM     16  C   UNL     1       7.037   4.764  14.068  0.00  0.00    +0.000 A 
ATOM     17  C   UNL     1       7.652   5.133  15.278  0.00  0.00    +0.000 A 
ATOM     18  C   UNL     1       7.005   4.921  16.497  0.00  0.00    +0.000 A 
ATOM     19  C   UNL     1       5.729   4.346  16.529  0.00  0.00    +0.000 A 
ATOM     20  C   UNL     1       5.123   3.951  15.336  0.00  0.00    +0.000 A 
ATOM     21  C   UNL     1       5.762   4.150  14.100  0.00  0.00    +0.000 A 
ATOM     22  C   UNL     1       5.069   3.697  12.843  0.00  0.00    +0.000 C 
ENDBRANCH  14  19
ENDBRANCH   1  14
TORSDOF 3
ENDMDL
MODEL 3
REMARK VINA RESULT:      -7.5      1.646      3.951
REMARK  Name = 
REMARK  5 active torsions:
REMARK  status: ('A' for Active; 'I' for Inactive)
REMARK    1  A    between atoms: C_1  and  C_2
REMARK    2  A    between atoms: C_5  and  S_6
REMARK    3  A    between atoms: S_6  and  C_7
REMARK    4  A    between atoms: C_12  and  N_13
REMARK    5  A    between atoms: C_20  and  C_21
REMARK                            x       y       z     vdW  Elec       q    Type
REMARK                         _______ _______ _______ _____ _____    ______ ____
ROOT
ATOM      1  C   UNL     1       4.499   5.394  18.055  0.00  0.00    +0.000 A 
ATOM      2  C   UNL     1       5.482   6.341  17.723  0.00  0.00    +0.000 A 
ATOM      3  C   UNL     1       6.136   6.306  16.497  0.00  0.00    +0.000 A 
ATOM      4  C   UNL     1       5.820   5.322  15.572  0.00  0.00    +0.000 A 
ATOM      5  C   UNL     1       4.853   4.363  15.872  0.00  0.00    +0.000 A 
ATOM      6  C   UNL     1       4.159   4.363  17.110  0.00  0.00    +0.000 A 
ENDROOT
BRANCH   6   7
ATOM      7  N   UNL     1       3.168   3.335  17.356  0.00  0.00    +0.000 N 
ATOM      8  C   UNL     1       3.506   1.955  17.679  0.00  0.00    +0.000 C 
ATOM      9  C   UNL     1       2.842   1.568  19.009  0.00  0.00    +0.000 C 
ATOM     10  N   UNL     1       1.394   1.797  18.940  0.00  0.00    +0.000 NA
ATOM     11  C   UNL     1       1.112   3.216  18.684  0.00  0.00    +0.000 C 
ATOM     12  C   UNL     1       1.733   3.626  17.345  0.00  0.00    +0.000 C 
ATOM     13  H   UNL     1       0.966   1.526  19.856  0.00  0.00    +0.000 HD
ENDBRANCH   6   7
BRANCH   1  14
ATOM     14  S   UNL     1       3.788   5.611  19.707  0.00  0.00    +0.000 S 
BRANCH  14  19
ATOM     15  C   UNL     1       0.273  10.474  18.506  0.00  0.00    +0.000 C 
ATOM     16  C   UNL     1       1.115   9.262  18.810  0.00  0.00    +0.000 A 
ATOM     17  C   UNL     1       1.903   8.697  17.791  0.00  0.00    +0.000 A 
ATOM     18  C   UNL     1       2.713   7.591  18.052  0.00  0.00    +0.000 A 
ATOM     19  C   UNL     1       2.760   7.035  19.335  0.00  0.00    +0.000 A 
ATOM     20  C   UNL     1       1.960   7.571  20.345  0.00  0.00    +0.000 A 
ATOM     21  C   UNL     1       1.133   8.680  20.101  0.00  0.00    +0.000 A 
ATOM     22  C   UNL     1       0.283   9.215  21.221  0.00  0.00    +0.000 C 
ENDBRANCH  14  19
ENDBRANCH   1  14
TORSDOF 3
ENDMDL
MODEL 4
REMARK VINA RESULT:      -7.3      1.695      4.164
REMARK  Name = 
REMARK  5 active torsions:
REMARK  status: ('A' for Active; 'I' for Inactive)
REMARK    1  A    between atoms: C_1  and  C_2
REMARK    2  A    between atoms: C_5  and  S_6
REMARK    3  A    between atoms: S_6  and  C_7
REMARK    4  A    between atoms: C_12  and  N_13
REMARK    5  A    between atoms: C_20  and  C_21
REMARK                            x       y       z     vdW  Elec       q    Type
REMARK                         _______ _______ _______ _____ _____    ______ ____
ROOT
ATOM      1  C   UNL     1       5.492   4.641  17.652  0.00  0.00    +0.000 A 
ATOM      2  C   UNL     1       6.667   5.231  17.159  0.00  0.00    +0.000 A 
ATOM      3  C   UNL     1       7.122   4.972  15.872  0.00  0.00    +0.000 A 
ATOM      4  C   UNL     1       6.410   4.115  15.045  0.00  0.00    +0.000 A 
ATOM      5  C   UNL     1       5.241   3.509  15.505  0.00  0.00    +0.000 A 
ATOM      6  C   UNL     1       4.739   3.747  16.811  0.00  0.00    +0.000 A 
ENDROOT
BRANCH   6   7
ATOM      7  N   UNL     1       3.521   3.082  17.225  0.00  0.00    +0.000 N 
ATOM      8  C   UNL     1       3.503   1.834  17.977  0.00  0.00    +0.000 C 
ATOM      9  C   UNL     1       2.698   2.034  19.271  0.00  0.00    +0.000 C 
ATOM     10  N   UNL     1       1.351   2.528  18.960  0.00  0.00    +0.000 NA
ATOM     11  C   UNL     1       1.430   3.821  18.266  0.00  0.00    +0.000 C 
ATOM     12  C   UNL     1       2.199   3.649  16.952  0.00  0.00    +0.000 C 
ATOM     13  H   UNL     1       0.824   2.655  19.856  0.00  0.00    +0.000 HD
ENDBRANCH   6   7
BRANCH   1  14
ATOM     14  S   UNL     1       5.091   5.100  19.359  0.00  0.00    +0.000 S 
BRANCH  14  19
ATOM     15  C   UNL     1       0.974   9.460  18.140  0.00  0.00    +0.000 C 
ATOM     16  C   UNL     1       1.966   8.369  18.447  0.00  0.00    +0.000 A 
ATOM     17  C   UNL     1       2.872   7.961  17.451  0.00  0.00    +0.000 A 
ATOM     18  C   UNL     1       3.820   6.971  17.716  0.00  0.00    +0.000 A 
ATOM     19  C   UNL     1       3.887   6.378  18.982  0.00  0.00    +0.000 A 
ATOM     20  C   UNL     1       2.974   6.755  19.967  0.00  0.00    +0.000 A 
ATOM     21  C   UNL     1       2.008   7.745  19.717  0.00  0.00    +0.000 A 
ATOM     22  C   UNL     1       1.041   8.109  20.810  0.00  0.00    +0.000 C 
ENDBRANCH  14  19
ENDBRANCH   1  14
TORSDOF 3
ENDMDL
MODEL 5
REMARK VINA RESULT:      -7.3      0.857      1.392
REMARK  Name = 
REMARK  5 active torsions:
REMARK  status: ('A' for Active; 'I' for Inactive)
REMARK    1  A    between atoms: C_1  and  C_2
REMARK    2  A    between atoms: C_5  and  S_6
REMARK    3  A    between atoms: S_6  and  C_7
REMARK    4  A    between atoms: C_12  and  N_13
REMARK    5  A    between atoms: C_20  and  C_21
REMARK                            x       y       z     vdW  Elec       q    Type
REMARK                         _______ _______ _______ _____ _____    ______ ____
ROOT
ATOM      1  C   UNL     1       2.883   5.838  17.961  0.00  0.00    +0.000 A 
ATOM      2  C   UNL     1       1.645   5.405  18.464  0.00  0.00    +0.000 A 
ATOM      3  C   UNL     1       1.387   4.059  18.693  0.00  0.00    +0.000 A 
ATOM      4  C   UNL     1       2.364   3.112  18.423  0.00  0.00    +0.000 A 
ATOM      5  C   UNL     1       3.603   3.507  17.918  0.00  0.00    +0.000 A 
ATOM      6  C   UNL     1       3.909   4.870  17.672  0.00  0.00    +0.000 A 
ENDROOT
BRANCH   6   7
ATOM      7  N   UNL     1       5.214   5.210  17.143  0.00  0.00    +0.000 N 
ATOM      8  C   UNL     1       6.389   5.424  17.979  0.00  0.00    +0.000 C 
ATOM      9  C   UNL     1       7.512   4.478  17.527  0.00  0.00    +0.000 C 
ATOM     10  N   UNL     1       7.790   4.666  16.098  0.00  0.00    +0.000 NA
ATOM     11  C   UNL     1       6.592   4.368  15.301  0.00  0.00    +0.000 C 
ATOM     12  C   UNL     1       5.461   5.318  15.704  0.00  0.00    +0.000 C 
ATOM     13  H   UNL     1       8.557   4.012  15.816  0.00  0.00    +0.000 HD
ENDBRANCH   6   7
BRANCH   1  14
ATOM     14  S   UNL     1       3.001   7.630  17.720  0.00  0.00    +0.000 S 
BRANCH  14  19
ATOM     15  C   UNL     1      -0.463   9.349  22.463  0.00  0.00    +0.000 C 
ATOM     16  C   UNL     1       0.401   8.952  21.295  0.00  0.00    +0.000 A 
ATOM     17  C   UNL     1       1.263   7.846  21.419  0.00  0.00    +0.000 A 
ATOM     18  C   UNL     1       2.055   7.440  20.344  0.00  0.00    +0.000 A 
ATOM     19  C   UNL     1       1.995   8.122  19.124  0.00  0.00    +0.000 A 
ATOM     20  C   UNL     1       1.165   9.237  19.000  0.00  0.00    +0.000 A 
ATOM     21  C   UNL     1       0.365   9.665  20.073  0.00  0.00    +0.000 A 
ATOM     22  C   UNL     1      -0.506  10.878  19.891  0.00  0.00    +0.000 C 
ENDBRANCH  14  19
ENDBRANCH   1  14
TORSDOF 3
ENDMDL
MODEL 6
REMARK VINA RESULT:      -7.2      0.665      1.494
REMARK  Name = 
REMARK  5 active torsions:
REMARK  status: ('A' for Active; 'I' for Inactive)
REMARK    1  A    between atoms: C_1  and  C_2
REMARK    2  A    between atoms: C_5  and  S_6
REMARK    3  A    between atoms: S_6  and  C_7
REMARK    4  A    between atoms: C_12  and  N_13
REMARK    5  A    between atoms: C_20  and  C_21
REMARK                            x       y       z     vdW  Elec       q    Type
REMARK                         _______ _______ _______ _____ _____    ______ ____
ROOT
ATOM      1  C   UNL     1       3.304   5.509  17.685  0.00  0.00    +0.000 A 
ATOM      2  C   UNL     1       2.014   5.463  18.238  0.00  0.00    +0.000 A 
ATOM      3  C   UNL     1       1.368   4.254  18.467  0.00  0.00    +0.000 A 
ATOM      4  C   UNL     1       2.000   3.061  18.149  0.00  0.00    +0.000 A 
ATOM      5  C   UNL     1       3.279   3.071  17.595  0.00  0.00    +0.000 A 
ATOM      6  C   UNL     1       3.976   4.282  17.346  0.00  0.00    +0.000 A 
ENDROOT
BRANCH   6   7
ATOM      7  N   UNL     1       5.301   4.220  16.765  0.00  0.00    +0.000 N 
ATOM      8  C   UNL     1       5.552   3.881  15.370  0.00  0.00    +0.000 C 
ATOM      9  C   UNL     1       6.359   5.009  14.711  0.00  0.00    +0.000 C 
ATOM     10  N   UNL     1       7.594   5.258  15.465  0.00  0.00    +0.000 NA
ATOM     11  C   UNL     1       7.278   5.666  16.841  0.00  0.00    +0.000 C 
ATOM     12  C   UNL     1       6.501   4.545  17.539  0.00  0.00    +0.000 C 
ATOM     13  H   UNL     1       8.125   6.030  14.996  0.00  0.00    +0.000 HD
ENDBRANCH   6   7
BRANCH   1  14
ATOM     14  S   UNL     1       3.952   7.186  17.453  0.00  0.00    +0.000 S 
BRANCH  14  19
ATOM     15  C   UNL     1      -0.621  10.178  20.207  0.00  0.00    +0.000 C 
ATOM     16  C   UNL     1       0.493   9.417  19.537  0.00  0.00    +0.000 A 
ATOM     17  C   UNL     1       0.744   9.626  18.168  0.00  0.00    +0.000 A 
ATOM     18  C   UNL     1       1.787   8.954  17.528  0.00  0.00    +0.000 A 
ATOM     19  C   UNL     1       2.603   8.070  18.243  0.00  0.00    +0.000 A 
ATOM     20  C   UNL     1       2.343   7.835  19.594  0.00  0.00    +0.000 A 
ATOM     21  C   UNL     1       1.294   8.497  20.254  0.00  0.00    +0.000 A 
ATOM     22  C   UNL     1       1.050   8.201  21.709  0.00  0.00    +0.000 C 
ENDBRANCH  14  19
ENDBRANCH   1  14
TORSDOF 3
ENDMDL
MODEL 7
REMARK VINA RESULT:      -7.2      2.617      6.591
REMARK  Name = 
REMARK  5 active torsions:
REMARK  status: ('A' for Active; 'I' for Inactive)
REMARK    1  A    between atoms: C_1  and  C_2
REMARK    2  A    between atoms: C_5  and  S_6
REMARK    3  A    between atoms: S_6  and  C_7
REMARK    4  A    between atoms: C_12  and  N_13
REMARK    5  A    between atoms: C_20  and  C_21
REMARK                            x       y       z     vdW  Elec       q    Type
REMARK                         _______ _______ _______ _____ _____    ______ ____
ROOT
ATOM      1  C   UNL     1       4.611   5.715  17.951  0.00  0.00    +0.000 A 
ATOM      2  C   UNL     1       4.664   7.055  17.534  0.00  0.00    +0.000 A 
ATOM      3  C   UNL     1       3.524   7.849  17.501  0.00  0.00    +0.000 A 
ATOM      4  C   UNL     1       2.301   7.320  17.886  0.00  0.00    +0.000 A 
ATOM      5  C   UNL     1       2.212   5.991  18.300  0.00  0.00    +0.000 A 
ATOM      6  C   UNL     1       3.350   5.146  18.352  0.00  0.00    +0.000 A 
ENDROOT
BRANCH   6   7
ATOM      7  N   UNL     1       3.185   3.775  18.790  0.00  0.00    +0.000 N 
ATOM      8  C   UNL     1       2.701   2.708  17.923  0.00  0.00    +0.000 C 
ATOM      9  C   UNL     1       3.731   1.568  17.900  0.00  0.00    +0.000 C 
ATOM     10  N   UNL     1       4.010   1.107  19.265  0.00  0.00    +0.000 NA
ATOM     11  C   UNL     1       4.562   2.205  20.072  0.00  0.00    +0.000 C 
ATOM     12  C   UNL     1       3.543   3.347  20.143  0.00  0.00    +0.000 C 
ATOM     13  H   UNL     1       4.712   0.332  19.222  0.00  0.00    +0.000 HD
ENDBRANCH   6   7
BRANCH   1  14
ATOM     14  S   UNL     1       6.206   4.858  17.901  0.00  0.00    +0.000 S 
BRANCH  14  19
ATOM     15  C   UNL     1       6.343   3.690  11.896  0.00  0.00    +0.000 C 
ATOM     16  C   UNL     1       6.307   4.005  13.368  0.00  0.00    +0.000 A 
ATOM     17  C   UNL     1       5.320   3.411  14.176  0.00  0.00    +0.000 A 
ATOM     18  C   UNL     1       5.280   3.664  15.548  0.00  0.00    +0.000 A 
ATOM     19  C   UNL     1       6.229   4.506  16.140  0.00  0.00    +0.000 A 
ATOM     20  C   UNL     1       7.193   5.123  15.342  0.00  0.00    +0.000 A 
ATOM     21  C   UNL     1       7.246   4.885  13.958  0.00  0.00    +0.000 A 
ATOM     22  C   UNL     1       8.300   5.581  13.141  0.00  0.00    +0.000 C 
ENDBRANCH  14  19
ENDBRANCH   1  14
TORSDOF 3
ENDMDL
MODEL 8
REMARK VINA RESULT:      -7.2      2.590      6.891
REMARK  Name = 
REMARK  5 active torsions:
REMARK  status: ('A' for Active; 'I' for Inactive)
REMARK    1  A    between atoms: C_1  and  C_2
REMARK    2  A    between atoms: C_5  and  S_6
REMARK    3  A    between atoms: S_6  and  C_7
REMARK    4  A    between atoms: C_12  and  N_13
REMARK    5  A    between atoms: C_20  and  C_21
REMARK                            x       y       z     vdW  Elec       q    Type
REMARK                         _______ _______ _______ _____ _____    ______ ____
ROOT
ATOM      1  C   UNL     1       4.655   5.846  17.927  0.00  0.00    +0.000 A 
ATOM      2  C   UNL     1       4.742   7.182  17.505  0.00  0.00    +0.000 A 
ATOM      3  C   UNL     1       3.619   8.000  17.455  0.00  0.00    +0.000 A 
ATOM      4  C   UNL     1       2.381   7.498  17.828  0.00  0.00    +0.000 A 
ATOM      5  C   UNL     1       2.259   6.173  18.247  0.00  0.00    +0.000 A 
ATOM      6  C   UNL     1       3.379   5.305  18.316  0.00  0.00    +0.000 A 
ENDROOT
BRANCH   6   7
ATOM      7  N   UNL     1       3.180   3.940  18.758  0.00  0.00    +0.000 N 
ATOM      8  C   UNL     1       3.571   3.457  20.076  0.00  0.00    +0.000 C 
ATOM      9  C   UNL     1       2.346   2.849  20.777  0.00  0.00    +0.000 C 
ATOM     10  N   UNL     1       1.752   1.798  19.941  0.00  0.00    +0.000 NA
ATOM     11  C   UNL     1       1.313   2.357  18.655  0.00  0.00    +0.000 C 
ATOM     12  C   UNL     1       2.518   2.943  17.914  0.00  0.00    +0.000 C 
ATOM     13  H   UNL     1       0.922   1.401  20.440  0.00  0.00    +0.000 HD
ENDBRANCH   6   7
BRANCH   1  14
ATOM     14  S   UNL     1       6.233   4.955  17.899  0.00  0.00    +0.000 S 
BRANCH  14  19
ATOM     15  C   UNL     1       6.319   3.593  11.934  0.00  0.00    +0.000 C 
ATOM     16  C   UNL     1       6.295   3.956  13.395  0.00  0.00    +0.000 A 
ATOM     17  C   UNL     1       5.324   3.378  14.233  0.00  0.00    +0.000 A 
ATOM     18  C   UNL     1       5.295   3.675  15.597  0.00  0.00    +0.000 A 
ATOM     19  C   UNL     1       6.241   4.546  16.150  0.00  0.00    +0.000 A 
ATOM     20  C   UNL     1       7.190   5.147  15.322  0.00  0.00    +0.000 A 
ATOM     21  C   UNL     1       7.230   4.865  13.946  0.00  0.00    +0.000 A 
ATOM     22  C   UNL     1       8.268   5.546  13.095  0.00  0.00    +0.000 C 
ENDBRANCH  14  19
ENDBRANCH   1  14
TORSDOF 3
ENDMDL
MODEL 9
REMARK VINA RESULT:      -7.1      1.094      1.880
REMARK  Name = 
REMARK  5 active torsions:
REMARK  status: ('A' for Active; 'I' for Inactive)
REMARK    1  A    between atoms: C_1  and  C_2
REMARK    2  A    between atoms: C_5  and  S_6
REMARK    3  A    between atoms: S_6  and  C_7
REMARK    4  A    between atoms: C_12  and  N_13
REMARK    5  A    between atoms: C_20  and  C_21
REMARK                            x       y       z     vdW  Elec       q    Type
REMARK                         _______ _______ _______ _____ _____    ______ ____
ROOT
ATOM      1  C   UNL     1       3.103   5.052  18.744  0.00  0.00    +0.000 A 
ATOM      2  C   UNL     1       1.957   4.547  19.380  0.00  0.00    +0.000 A 
ATOM      3  C   UNL     1       1.250   3.474  18.851  0.00  0.00    +0.000 A 
ATOM      4  C   UNL     1       1.673   2.880  17.671  0.00  0.00    +0.000 A 
ATOM      5  C   UNL     1       2.804   3.361  17.011  0.00  0.00    +0.000 A 
ATOM      6  C   UNL     1       3.558   4.451  17.517  0.00  0.00    +0.000 A 
ENDROOT
BRANCH   6   7
ATOM      7  N   UNL     1       4.720   4.901  16.779  0.00  0.00    +0.000 N 
ATOM      8  C   UNL     1       4.890   6.267  16.302  0.00  0.00    +0.000 C 
ATOM      9  C   UNL     1       6.208   6.835  16.850  0.00  0.00    +0.000 C 
ATOM     10  N   UNL     1       7.329   5.962  16.481  0.00  0.00    +0.000 NA
ATOM     11  C   UNL     1       7.139   4.619  17.048  0.00  0.00    +0.000 C 
ATOM     12  C   UNL     1       5.847   4.011  16.494  0.00  0.00    +0.000 C 
ATOM     13  H   UNL     1       8.214   6.370  16.865  0.00  0.00    +0.000 HD
ENDBRANCH   6   7
BRANCH   1  14
ATOM     14  S   UNL     1       3.862   6.463  19.591  0.00  0.00    +0.000 S 
BRANCH  14  19
ATOM     15  C   UNL     1      -0.576  10.545  18.551  0.00  0.00    +0.000 C 
ATOM     16  C   UNL     1       0.497   9.522  18.818  0.00  0.00    +0.000 A 
ATOM     17  C   UNL     1       1.300   9.073  17.754  0.00  0.00    +0.000 A 
ATOM     18  C   UNL     1       2.319   8.145  17.977  0.00  0.00    +0.000 A 
ATOM     19  C   UNL     1       2.562   7.658  19.266  0.00  0.00    +0.000 A 
ATOM     20  C   UNL     1       1.752   8.077  20.323  0.00  0.00    +0.000 A 
ATOM     21  C   UNL     1       0.717   9.005  20.117  0.00  0.00    +0.000 A 
ATOM     22  C   UNL     1      -0.134   9.417  21.288  0.00  0.00    +0.000 C 
ENDBRANCH  14  19
ENDBRANCH   1  14
TORSDOF 3
ENDMDL
