MODEL 1
REMARK VINA RESULT:      -8.7      0.000      0.000
REMARK  Name = 
REMARK  5 active torsions:
REMARK  status: ('A' for Active; 'I' for Inactive)
REMARK    1  A    between atoms: C_1  and  C_2
REMARK    2  A    between atoms: C_2  and  S_3
REMARK    3  A    between atoms: S_3  and  C_4
REMARK    4  A    between atoms: C_9  and  C_10
REMARK    5  A    between atoms: C_18  and  O_19
REMARK                            x       y       z     vdW  Elec       q    Type
REMARK                         _______ _______ _______ _____ _____    ______ ____
ROOT
ATOM      1  C   UNL     1       5.650   5.461  16.981  0.00  0.00    +0.000 A 
ATOM      2  N   UNL     1       5.080   6.524  16.331  0.00  0.00    +0.000 NA
ATOM      3  C   UNL     1       4.180   6.972  17.185  0.00  0.00    +0.000 A 
ATOM      4  N   UNL     1       4.238   6.188  18.299  0.00  0.00    +0.000 N 
ATOM      5  N   UNL     1       5.202   5.255  18.222  0.00  0.00    +0.000 NA
ATOM      6  C   UNL     1       3.329   6.296  19.430  0.00  0.00    +0.000 C 
ATOM      7  C   UNL     1       2.472   7.545  19.358  0.00  0.00    +0.000 C 
ATOM      8  C   UNL     1       1.641   7.956  20.334  0.00  0.00    +0.000 C 
ATOM      9  C   UNL     1       0.603   9.025  20.190  0.00  0.00    +0.000 C 
ATOM     10  C   UNL     1       0.633   9.867  18.928  0.00  0.00    +0.000 C 
ATOM     11  C   UNL     1       1.540   9.413  17.797  0.00  0.00    +0.000 C 
ATOM     12  C   UNL     1       2.497   8.265  18.049  0.00  0.00    +0.000 C 
ATOM     13  N   UNL     1       3.291   7.986  17.059  0.00  0.00    +0.000 NA
ENDROOT
BRANCH   6  14
ATOM     14  C   UNL     1       2.490   5.017  19.518  0.00  0.00    +0.000 A 
ATOM     15  C   UNL     1       1.852   4.511  18.372  0.00  0.00    +0.000 A 
ATOM     16  C   UNL     1       1.019   3.388  18.452  0.00  0.00    +0.000 A 
ATOM     17  C   UNL     1       0.817   2.755  19.675  0.00  0.00    +0.000 A 
ATOM     18  C   UNL     1       1.454   3.241  20.808  0.00  0.00    +0.000 A 
ATOM     19  F   UNL     1       1.263   2.633  21.986  0.00  0.00    +0.000 F 
ATOM     20  C   UNL     1       2.279   4.359  20.744  0.00  0.00    +0.000 A 
ENDBRANCH   6  14
BRANCH   8  21
ATOM     21  O   UNL     1       1.595   7.379  21.590  0.00  0.00    +0.000 OA
ATOM     22  H   UNL     1       0.706   7.409  21.980  0.00  0.00    +0.000 HD
ENDBRANCH   8  21
BRANCH   1  23
ATOM     23  S   UNL     1       6.796   4.350  16.281  0.00  0.00    +0.000 S 
BRANCH  23  25
ATOM     24  C   UNL     1       5.898   3.909  13.749  0.00  0.00    +0.000 C 
ATOM     25  C   UNL     1       6.803   4.844  14.541  0.00  0.00    +0.000 C 
ENDBRANCH  23  25
ENDBRANCH   1  23
TORSDOF 4
ENDMDL
MODEL 2
REMARK VINA RESULT:      -8.3      0.901      1.330
REMARK  Name = 
REMARK  5 active torsions:
REMARK  status: ('A' for Active; 'I' for Inactive)
REMARK    1  A    between atoms: C_1  and  C_2
REMARK    2  A    between atoms: C_2  and  S_3
REMARK    3  A    between atoms: S_3  and  C_4
REMARK    4  A    between atoms: C_9  and  C_10
REMARK    5  A    between atoms: C_18  and  O_19
REMARK                            x       y       z     vdW  Elec       q    Type
REMARK                         _______ _______ _______ _____ _____    ______ ____
ROOT
ATOM      1  C   UNL     1       5.474   5.493  17.220  0.00  0.00    +0.000 A 
ATOM      2  N   UNL     1       4.841   6.463  16.488  0.00  0.00    +0.000 NA
ATOM      3  C   UNL     1       3.957   6.967  17.329  0.00  0.00    +0.000 A 
ATOM      4  N   UNL     1       4.088   6.307  18.515  0.00  0.00    +0.000 N 
ATOM      5  N   UNL     1       5.082   5.403  18.494  0.00  0.00    +0.000 NA
ATOM      6  C   UNL     1       3.220   6.501  19.666  0.00  0.00    +0.000 C 
ATOM      7  C   UNL     1       2.315   7.707  19.502  0.00  0.00    +0.000 C 
ATOM      8  C   UNL     1       1.507   8.190  20.465  0.00  0.00    +0.000 C 
ATOM      9  C   UNL     1       0.425   9.203  20.256  0.00  0.00    +0.000 C 
ATOM     10  C   UNL     1       0.375   9.910  18.914  0.00  0.00    +0.000 C 
ATOM     11  C   UNL     1       1.254   9.370  17.798  0.00  0.00    +0.000 C 
ATOM     12  C   UNL     1       2.262   8.287  18.127  0.00  0.00    +0.000 C 
ATOM     13  N   UNL     1       3.027   7.933  17.138  0.00  0.00    +0.000 NA
ENDROOT
BRANCH   6  14
ATOM     14  C   UNL     1       2.433   5.211  19.920  0.00  0.00    +0.000 A 
ATOM     15  C   UNL     1       2.442   4.619  21.195  0.00  0.00    +0.000 A 
ATOM     16  C   UNL     1       1.792   3.399  21.423  0.00  0.00    +0.000 A 
ATOM     17  C   UNL     1       1.122   2.760  20.383  0.00  0.00    +0.000 A 
ATOM     18  C   UNL     1       1.098   3.346  19.125  0.00  0.00    +0.000 A 
ATOM     19  F   UNL     1       0.454   2.735  18.123  0.00  0.00    +0.000 F 
ATOM     20  C   UNL     1       1.745   4.554  18.883  0.00  0.00    +0.000 A 
ENDBRANCH   6  14
BRANCH   8  21
ATOM     21  O   UNL     1       1.531   7.745  21.775  0.00  0.00    +0.000 OA
ATOM     22  H   UNL     1       1.594   8.475  22.412  0.00  0.00    +0.000 HD
ENDBRANCH   8  21
BRANCH   1  23
ATOM     23  S   UNL     1       6.633   4.353  16.590  0.00  0.00    +0.000 S 
BRANCH  23  25
ATOM     24  C   UNL     1       6.052   3.956  13.960  0.00  0.00    +0.000 C 
ATOM     25  C   UNL     1       6.822   4.899  14.876  0.00  0.00    +0.000 C 
ENDBRANCH  23  25
ENDBRANCH   1  23
TORSDOF 4
ENDMDL
MODEL 3
REMARK VINA RESULT:      -8.3      2.909      5.138
REMARK  Name = 
REMARK  5 active torsions:
REMARK  status: ('A' for Active; 'I' for Inactive)
REMARK    1  A    between atoms: C_1  and  C_2
REMARK    2  A    between atoms: C_2  and  S_3
REMARK    3  A    between atoms: S_3  and  C_4
REMARK    4  A    between atoms: C_9  and  C_10
REMARK    5  A    between atoms: C_18  and  O_19
REMARK                            x       y       z     vdW  Elec       q    Type
REMARK                         _______ _______ _______ _____ _____    ______ ____
ROOT
ATOM      1  C   UNL     1       6.890   6.000  18.574  0.00  0.00    +0.000 A 
ATOM      2  N   UNL     1       6.762   4.851  19.311  0.00  0.00    +0.000 NA
ATOM      3  C   UNL     1       5.510   4.485  19.112  0.00  0.00    +0.000 A 
ATOM      4  N   UNL     1       4.937   5.397  18.275  0.00  0.00    +0.000 N 
ATOM      5  N   UNL     1       5.806   6.340  17.871  0.00  0.00    +0.000 NA
ATOM      6  C   UNL     1       3.533   5.402  17.899  0.00  0.00    +0.000 C 
ATOM      7  C   UNL     1       2.823   4.130  18.323  0.00  0.00    +0.000 C 
ATOM      8  C   UNL     1       1.557   3.817  17.990  0.00  0.00    +0.000 C 
ATOM      9  C   UNL     1       0.753   2.711  18.598  0.00  0.00    +0.000 C 
ATOM     10  C   UNL     1       1.480   1.725  19.493  0.00  0.00    +0.000 C 
ATOM     11  C   UNL     1       2.901   2.065  19.911  0.00  0.00    +0.000 C 
ATOM     12  C   UNL     1       3.580   3.260  19.272  0.00  0.00    +0.000 C 
ATOM     13  N   UNL     1       4.818   3.439  19.624  0.00  0.00    +0.000 NA
ENDROOT
BRANCH   6  14
ATOM     14  C   UNL     1       2.868   6.659  18.469  0.00  0.00    +0.000 A 
ATOM     15  C   UNL     1       2.418   6.678  19.801  0.00  0.00    +0.000 A 
ATOM     16  C   UNL     1       1.739   7.790  20.312  0.00  0.00    +0.000 A 
ATOM     17  C   UNL     1       1.506   8.899  19.503  0.00  0.00    +0.000 A 
ATOM     18  C   UNL     1       1.959   8.892  18.191  0.00  0.00    +0.000 A 
ATOM     19  F   UNL     1       1.737   9.957  17.410  0.00  0.00    +0.000 F 
ATOM     20  C   UNL     1       2.629   7.792  17.668  0.00  0.00    +0.000 A 
ENDBRANCH   6  14
BRANCH   8  21
ATOM     21  O   UNL     1       0.806   4.539  17.079  0.00  0.00    +0.000 OA
ATOM     22  H   UNL     1       1.047   5.480  17.063  0.00  0.00    +0.000 HD
ENDBRANCH   8  21
BRANCH   1  23
ATOM     23  S   UNL     1       8.281   7.049  18.579  0.00  0.00    +0.000 S 
BRANCH  23  25
ATOM     24  C   UNL     1       8.426   9.724  18.095  0.00  0.00    +0.000 C 
ATOM     25  C   UNL     1       7.698   8.471  17.625  0.00  0.00    +0.000 C 
ENDBRANCH  23  25
ENDBRANCH   1  23
TORSDOF 4
ENDMDL
MODEL 4
REMARK VINA RESULT:      -8.2      2.568      4.902
REMARK  Name = 
REMARK  5 active torsions:
REMARK  status: ('A' for Active; 'I' for Inactive)
REMARK    1  A    between atoms: C_1  and  C_2
REMARK    2  A    between atoms: C_2  and  S_3
REMARK    3  A    between atoms: S_3  and  C_4
REMARK    4  A    between atoms: C_9  and  C_10
REMARK    5  A    between atoms: C_18  and  O_19
REMARK                            x       y       z     vdW  Elec       q    Type
REMARK                         _______ _______ _______ _____ _____    ______ ____
ROOT
ATOM      1  C   UNL     1       6.878   6.073  18.536  0.00  0.00    +0.000 A 
ATOM      2  N   UNL     1       6.758   4.959  19.325  0.00  0.00    +0.000 NA
ATOM      3  C   UNL     1       5.517   4.559  19.123  0.00  0.00    +0.000 A 
ATOM      4  N   UNL     1       4.943   5.419  18.234  0.00  0.00    +0.000 N 
ATOM      5  N   UNL     1       5.801   6.358  17.799  0.00  0.00    +0.000 NA
ATOM      6  C   UNL     1       3.546   5.378  17.833  0.00  0.00    +0.000 C 
ATOM      7  C   UNL     1       2.852   4.116  18.306  0.00  0.00    +0.000 C 
ATOM      8  C   UNL     1       1.598   3.762  17.967  0.00  0.00    +0.000 C 
ATOM      9  C   UNL     1       0.803   2.671  18.615  0.00  0.00    +0.000 C 
ATOM     10  C   UNL     1       1.533   1.744  19.569  0.00  0.00    +0.000 C 
ATOM     11  C   UNL     1       2.939   2.131  19.994  0.00  0.00    +0.000 C 
ATOM     12  C   UNL     1       3.608   3.306  19.309  0.00  0.00    +0.000 C 
ATOM     13  N   UNL     1       4.835   3.527  19.673  0.00  0.00    +0.000 NA
ENDROOT
BRANCH   6  14
ATOM     14  C   UNL     1       2.848   6.649  18.330  0.00  0.00    +0.000 A 
ATOM     15  C   UNL     1       2.688   7.749  17.470  0.00  0.00    +0.000 A 
ATOM     16  C   UNL     1       2.123   8.944  17.932  0.00  0.00    +0.000 A 
ATOM     17  C   UNL     1       1.705   9.053  19.255  0.00  0.00    +0.000 A 
ATOM     18  C   UNL     1       1.847   7.966  20.107  0.00  0.00    +0.000 A 
ATOM     19  F   UNL     1       1.446   8.067  21.380  0.00  0.00    +0.000 F 
ATOM     20  C   UNL     1       2.413   6.775  19.663  0.00  0.00    +0.000 A 
ENDBRANCH   6  14
BRANCH   8  21
ATOM     21  O   UNL     1       0.851   4.425  17.009  0.00  0.00    +0.000 OA
ATOM     22  H   UNL     1       1.254   5.266  16.741  0.00  0.00    +0.000 HD
ENDBRANCH   8  21
BRANCH   1  23
ATOM     23  S   UNL     1       8.249   7.148  18.514  0.00  0.00    +0.000 S 
BRANCH  23  25
ATOM     24  C   UNL     1       8.378   9.826  18.042  0.00  0.00    +0.000 C 
ATOM     25  C   UNL     1       7.603   8.583  17.622  0.00  0.00    +0.000 C 
ENDBRANCH  23  25
ENDBRANCH   1  23
TORSDOF 4
ENDMDL
MODEL 5
REMARK VINA RESULT:      -7.9      3.065      5.233
REMARK  Name = 
REMARK  5 active torsions:
REMARK  status: ('A' for Active; 'I' for Inactive)
REMARK    1  A    between atoms: C_1  and  C_2
REMARK    2  A    between atoms: C_2  and  S_3
REMARK    3  A    between atoms: S_3  and  C_4
REMARK    4  A    between atoms: C_9  and  C_10
REMARK    5  A    between atoms: C_18  and  O_19
REMARK                            x       y       z     vdW  Elec       q    Type
REMARK                         _______ _______ _______ _____ _____    ______ ____
ROOT
ATOM      1  C   UNL     1       6.872   7.055  17.618  0.00  0.00    +0.000 A 
ATOM      2  N   UNL     1       7.125   5.911  18.329  0.00  0.00    +0.000 NA
ATOM      3  C   UNL     1       5.958   5.297  18.367  0.00  0.00    +0.000 A 
ATOM      4  N   UNL     1       5.060   6.068  17.688  0.00  0.00    +0.000 N 
ATOM      5  N   UNL     1       5.624   7.163  17.153  0.00  0.00    +0.000 NA
ATOM      6  C   UNL     1       3.637   5.784  17.594  0.00  0.00    +0.000 C 
ATOM      7  C   UNL     1       3.294   4.399  18.108  0.00  0.00    +0.000 C 
ATOM      8  C   UNL     1       2.076   3.833  18.019  0.00  0.00    +0.000 C 
ATOM      9  C   UNL     1       1.646   2.592  18.738  0.00  0.00    +0.000 C 
ATOM     10  C   UNL     1       2.719   1.781  19.441  0.00  0.00    +0.000 C 
ATOM     11  C   UNL     1       4.097   2.406  19.583  0.00  0.00    +0.000 C 
ATOM     12  C   UNL     1       4.383   3.708  18.862  0.00  0.00    +0.000 C 
ATOM     13  N   UNL     1       5.604   4.137  18.970  0.00  0.00    +0.000 NA
ENDROOT
BRANCH   6  14
ATOM     14  C   UNL     1       2.860   6.885  18.323  0.00  0.00    +0.000 A 
ATOM     15  C   UNL     1       2.533   6.737  19.682  0.00  0.00    +0.000 A 
ATOM     16  C   UNL     1       1.756   7.698  20.342  0.00  0.00    +0.000 A 
ATOM     17  C   UNL     1       1.303   8.820  19.655  0.00  0.00    +0.000 A 
ATOM     18  C   UNL     1       1.634   8.980  18.316  0.00  0.00    +0.000 A 
ATOM     19  F   UNL     1       1.200  10.060  17.653  0.00  0.00    +0.000 F 
ATOM     20  C   UNL     1       2.398   8.031  17.647  0.00  0.00    +0.000 A 
ENDBRANCH   6  14
BRANCH   8  21
ATOM     21  O   UNL     1       1.031   4.381  17.297  0.00  0.00    +0.000 OA
ATOM     22  H   UNL     1       0.917   3.957  16.431  0.00  0.00    +0.000 HD
ENDBRANCH   8  21
BRANCH   1  23
ATOM     23  S   UNL     1       7.998   8.365  17.385  0.00  0.00    +0.000 S 
BRANCH  23  25
ATOM     24  C   UNL     1       9.206  10.025  19.172  0.00  0.00    +0.000 C 
ATOM     25  C   UNL     1       8.661   8.608  19.050  0.00  0.00    +0.000 C 
ENDBRANCH  23  25
ENDBRANCH   1  23
TORSDOF 4
ENDMDL
MODEL 6
REMARK VINA RESULT:      -7.8      1.082      1.376
REMARK  Name = 
REMARK  5 active torsions:
REMARK  status: ('A' for Active; 'I' for Inactive)
REMARK    1  A    between atoms: C_1  and  C_2
REMARK    2  A    between atoms: C_2  and  S_3
REMARK    3  A    between atoms: S_3  and  C_4
REMARK    4  A    between atoms: C_9  and  C_10
REMARK    5  A    between atoms: C_18  and  O_19
REMARK                            x       y       z     vdW  Elec       q    Type
REMARK                         _______ _______ _______ _____ _____    ______ ____
ROOT
ATOM      1  C   UNL     1       5.434   5.871  17.098  0.00  0.00    +0.000 A 
ATOM      2  N   UNL     1       4.811   6.918  16.472  0.00  0.00    +0.000 NA
ATOM      3  C   UNL     1       3.887   7.299  17.334  0.00  0.00    +0.000 A 
ATOM      4  N   UNL     1       3.985   6.494  18.430  0.00  0.00    +0.000 N 
ATOM      5  N   UNL     1       4.995   5.613  18.333  0.00  0.00    +0.000 NA
ATOM      6  C   UNL     1       3.071   6.528  19.561  0.00  0.00    +0.000 C 
ATOM      7  C   UNL     1       2.151   7.732  19.517  0.00  0.00    +0.000 C 
ATOM      8  C   UNL     1       1.299   8.077  20.501  0.00  0.00    +0.000 C 
ATOM      9  C   UNL     1       0.208   9.095  20.380  0.00  0.00    +0.000 C 
ATOM     10  C   UNL     1       0.196   9.967  19.139  0.00  0.00    +0.000 C 
ATOM     11  C   UNL     1       1.125   9.586  17.999  0.00  0.00    +0.000 C 
ATOM     12  C   UNL     1       2.140   8.484  18.226  0.00  0.00    +0.000 C 
ATOM     13  N   UNL     1       2.948   8.269  17.231  0.00  0.00    +0.000 NA
ENDROOT
BRANCH   6  14
ATOM     14  C   UNL     1       2.299   5.206  19.617  0.00  0.00    +0.000 A 
ATOM     15  C   UNL     1       1.708   4.683  18.454  0.00  0.00    +0.000 A 
ATOM     16  C   UNL     1       0.933   3.518  18.504  0.00  0.00    +0.000 A 
ATOM     17  C   UNL     1       0.744   2.858  19.715  0.00  0.00    +0.000 A 
ATOM     18  C   UNL     1       1.335   3.360  20.866  0.00  0.00    +0.000 A 
ATOM     19  F   UNL     1       1.156   2.727  22.032  0.00  0.00    +0.000 F 
ATOM     20  C   UNL     1       2.101   4.520  20.831  0.00  0.00    +0.000 A 
ENDBRANCH   6  14
BRANCH   8  21
ATOM     21  O   UNL     1       1.282   7.469  21.743  0.00  0.00    +0.000 OA
ATOM     22  H   UNL     1       0.778   7.979  22.399  0.00  0.00    +0.000 HD
ENDBRANCH   8  21
BRANCH   1  23
ATOM     23  S   UNL     1       6.636   4.837  16.374  0.00  0.00    +0.000 S 
BRANCH  23  25
ATOM     24  C   UNL     1       7.974   5.847  18.519  0.00  0.00    +0.000 C 
ATOM     25  C   UNL     1       7.777   4.548  17.748  0.00  0.00    +0.000 C 
ENDBRANCH  23  25
ENDBRANCH   1  23
TORSDOF 4
ENDMDL
MODEL 7
REMARK VINA RESULT:      -7.7      1.391      1.884
REMARK  Name = 
REMARK  5 active torsions:
REMARK  status: ('A' for Active; 'I' for Inactive)
REMARK    1  A    between atoms: C_1  and  C_2
REMARK    2  A    between atoms: C_2  and  S_3
REMARK    3  A    between atoms: S_3  and  C_4
REMARK    4  A    between atoms: C_9  and  C_10
REMARK    5  A    between atoms: C_18  and  O_19
REMARK                            x       y       z     vdW  Elec       q    Type
REMARK                         _______ _______ _______ _____ _____    ______ ____
ROOT
ATOM      1  C   UNL     1       5.310   5.605  17.219  0.00  0.00    +0.000 A 
ATOM      2  N   UNL     1       4.657   6.579  16.510  0.00  0.00    +0.000 NA
ATOM      3  C   UNL     1       3.785   7.068  17.372  0.00  0.00    +0.000 A 
ATOM      4  N   UNL     1       3.940   6.394  18.548  0.00  0.00    +0.000 N 
ATOM      5  N   UNL     1       4.940   5.498  18.499  0.00  0.00    +0.000 NA
ATOM      6  C   UNL     1       3.091   6.569  19.715  0.00  0.00    +0.000 C 
ATOM      7  C   UNL     1       2.175   7.770  19.581  0.00  0.00    +0.000 C 
ATOM      8  C   UNL     1       1.380   8.236  20.563  0.00  0.00    +0.000 C 
ATOM      9  C   UNL     1       0.288   9.244  20.385  0.00  0.00    +0.000 C 
ATOM     10  C   UNL     1       0.210   9.966  19.052  0.00  0.00    +0.000 C 
ATOM     11  C   UNL     1       1.074   9.445  17.915  0.00  0.00    +0.000 C 
ATOM     12  C   UNL     1       2.095   8.366  18.214  0.00  0.00    +0.000 C 
ATOM     13  N   UNL     1       2.846   8.029  17.208  0.00  0.00    +0.000 NA
ENDROOT
BRANCH   6  14
ATOM     14  C   UNL     1       2.317   5.271  19.968  0.00  0.00    +0.000 A 
ATOM     15  C   UNL     1       2.339   4.672  21.239  0.00  0.00    +0.000 A 
ATOM     16  C   UNL     1       1.702   3.445  21.465  0.00  0.00    +0.000 A 
ATOM     17  C   UNL     1       1.032   2.805  20.426  0.00  0.00    +0.000 A 
ATOM     18  C   UNL     1       0.995   3.397  19.171  0.00  0.00    +0.000 A 
ATOM     19  F   UNL     1       0.350   2.785  18.170  0.00  0.00    +0.000 F 
ATOM     20  C   UNL     1       1.629   4.612  18.932  0.00  0.00    +0.000 A 
ENDBRANCH   6  14
BRANCH   8  21
ATOM     21  O   UNL     1       1.430   7.776  21.867  0.00  0.00    +0.000 OA
ATOM     22  H   UNL     1       2.304   7.427  22.105  0.00  0.00    +0.000 HD
ENDBRANCH   8  21
BRANCH   1  23
ATOM     23  S   UNL     1       6.466   4.481  16.557  0.00  0.00    +0.000 S 
BRANCH  23  25
ATOM     24  C   UNL     1       7.840   5.931  18.407  0.00  0.00    +0.000 C 
ATOM     25  C   UNL     1       7.809   4.549  17.765  0.00  0.00    +0.000 C 
ENDBRANCH  23  25
ENDBRANCH   1  23
TORSDOF 4
ENDMDL
MODEL 8
REMARK VINA RESULT:      -7.7      1.536      1.704
REMARK  Name = 
REMARK  5 active torsions:
REMARK  status: ('A' for Active; 'I' for Inactive)
REMARK    1  A    between atoms: C_1  and  C_2
REMARK    2  A    between atoms: C_2  and  S_3
REMARK    3  A    between atoms: S_3  and  C_4
REMARK    4  A    between atoms: C_9  and  C_10
REMARK    5  A    between atoms: C_18  and  O_19
REMARK                            x       y       z     vdW  Elec       q    Type
REMARK                         _______ _______ _______ _____ _____    ______ ____
ROOT
ATOM      1  C   UNL     1       5.913   5.541  15.791  0.00  0.00    +0.000 A 
ATOM      2  N   UNL     1       5.240   6.705  15.527  0.00  0.00    +0.000 NA
ATOM      3  C   UNL     1       4.458   6.865  16.578  0.00  0.00    +0.000 A 
ATOM      4  N   UNL     1       4.684   5.822  17.426  0.00  0.00    +0.000 N 
ATOM      5  N   UNL     1       5.644   4.994  16.980  0.00  0.00    +0.000 NA
ATOM      6  C   UNL     1       3.938   5.580  18.651  0.00  0.00    +0.000 C 
ATOM      7  C   UNL     1       3.057   6.757  19.025  0.00  0.00    +0.000 C 
ATOM      8  C   UNL     1       2.361   6.852  20.174  0.00  0.00    +0.000 C 
ATOM      9  C   UNL     1       1.294   7.865  20.455  0.00  0.00    +0.000 C 
ATOM     10  C   UNL     1       1.135   9.008  19.470  0.00  0.00    +0.000 C 
ATOM     11  C   UNL     1       1.885   8.915  18.152  0.00  0.00    +0.000 C 
ATOM     12  C   UNL     1       2.888   7.794  17.964  0.00  0.00    +0.000 C 
ATOM     13  N   UNL     1       3.543   7.828  16.842  0.00  0.00    +0.000 NA
ENDROOT
BRANCH   6  14
ATOM     14  C   UNL     1       3.142   4.280  18.502  0.00  0.00    +0.000 A 
ATOM     15  C   UNL     1       1.745   4.321  18.349  0.00  0.00    +0.000 A 
ATOM     16  C   UNL     1       0.996   3.139  18.290  0.00  0.00    +0.000 A 
ATOM     17  C   UNL     1       1.632   1.904  18.378  0.00  0.00    +0.000 A 
ATOM     18  C   UNL     1       3.012   1.856  18.516  0.00  0.00    +0.000 A 
ATOM     19  F   UNL     1       3.627   0.669  18.600  0.00  0.00    +0.000 F 
ATOM     20  C   UNL     1       3.768   3.021  18.583  0.00  0.00    +0.000 A 
ENDBRANCH   6  14
BRANCH   8  21
ATOM     21  O   UNL     1       2.499   5.965  21.226  0.00  0.00    +0.000 OA
ATOM     22  H   UNL     1       2.300   5.051  20.969  0.00  0.00    +0.000 HD
ENDBRANCH   8  21
BRANCH   1  23
ATOM     23  S   UNL     1       6.971   4.716  14.680  0.00  0.00    +0.000 S 
BRANCH  23  25
ATOM     24  C   UNL     1       6.521   3.499  12.287  0.00  0.00    +0.000 C 
ATOM     25  C   UNL     1       5.803   3.892  13.571  0.00  0.00    +0.000 C 
ENDBRANCH  23  25
ENDBRANCH   1  23
TORSDOF 4
ENDMDL
MODEL 9
REMARK VINA RESULT:      -6.9      1.521      1.750
REMARK  Name = 
REMARK  5 active torsions:
REMARK  status: ('A' for Active; 'I' for Inactive)
REMARK    1  A    between atoms: C_1  and  C_2
REMARK    2  A    between atoms: C_2  and  S_3
REMARK    3  A    between atoms: S_3  and  C_4
REMARK    4  A    between atoms: C_9  and  C_10
REMARK    5  A    between atoms: C_18  and  O_19
REMARK                            x       y       z     vdW  Elec       q    Type
REMARK                         _______ _______ _______ _____ _____    ______ ____
ROOT
ATOM      1  C   UNL     1       5.954   5.530  15.871  0.00  0.00    +0.000 A 
ATOM      2  N   UNL     1       5.218   6.650  15.586  0.00  0.00    +0.000 NA
ATOM      3  C   UNL     1       4.445   6.799  16.645  0.00  0.00    +0.000 A 
ATOM      4  N   UNL     1       4.736   5.792  17.518  0.00  0.00    +0.000 N 
ATOM      5  N   UNL     1       5.731   5.003  17.079  0.00  0.00    +0.000 NA
ATOM      6  C   UNL     1       4.021   5.548  18.760  0.00  0.00    +0.000 C 
ATOM      7  C   UNL     1       3.087   6.688  19.117  0.00  0.00    +0.000 C 
ATOM      8  C   UNL     1       2.404   6.780  20.273  0.00  0.00    +0.000 C 
ATOM      9  C   UNL     1       1.291   7.744  20.544  0.00  0.00    +0.000 C 
ATOM     10  C   UNL     1       1.058   8.849  19.531  0.00  0.00    +0.000 C 
ATOM     11  C   UNL     1       1.793   8.758  18.204  0.00  0.00    +0.000 C 
ATOM     12  C   UNL     1       2.850   7.685  18.031  0.00  0.00    +0.000 C 
ATOM     13  N   UNL     1       3.485   7.721  16.898  0.00  0.00    +0.000 NA
ENDROOT
BRANCH   6  14
ATOM     14  C   UNL     1       3.291   4.205  18.659  0.00  0.00    +0.000 A 
ATOM     15  C   UNL     1       4.023   3.006  18.602  0.00  0.00    +0.000 A 
ATOM     16  C   UNL     1       3.373   1.777  18.431  0.00  0.00    +0.000 A 
ATOM     17  C   UNL     1       1.986   1.730  18.320  0.00  0.00    +0.000 A 
ATOM     18  C   UNL     1       1.256   2.908  18.389  0.00  0.00    +0.000 A 
ATOM     19  F   UNL     1      -0.078   2.867  18.284  0.00  0.00    +0.000 F 
ATOM     20  C   UNL     1       1.889   4.136  18.552  0.00  0.00    +0.000 A 
ENDBRANCH   6  14
BRANCH   8  21
ATOM     21  O   UNL     1       2.602   5.930  21.347  0.00  0.00    +0.000 OA
ATOM     22  H   UNL     1       3.307   5.283  21.182  0.00  0.00    +0.000 HD
ENDBRANCH   8  21
BRANCH   1  23
ATOM     23  S   UNL     1       7.037   4.728  14.766  0.00  0.00    +0.000 S 
BRANCH  23  25
ATOM     24  C   UNL     1       6.590   3.576  12.340  0.00  0.00    +0.000 C 
ATOM     25  C   UNL     1       5.894   3.859  13.666  0.00  0.00    +0.000 C 
ENDBRANCH  23  25
ENDBRANCH   1  23
TORSDOF 4
ENDMDL
