MODEL 1
REMARK VINA RESULT:      -7.0      0.000      0.000
REMARK  Name = 
REMARK  5 active torsions:
REMARK  status: ('A' for Active; 'I' for Inactive)
REMARK    1  A    between atoms: C_1  and  C_2
REMARK    2  A    between atoms: C_2  and  O_3
REMARK    3  A    between atoms: O_3  and  C_4
REMARK    4  A    between atoms: C_10  and  C_12
REMARK    5  A    between atoms: C_18  and  C_19
REMARK                            x       y       z     vdW  Elec       q    Type
REMARK                         _______ _______ _______ _____ _____    ______ ____
ROOT
ATOM      1  C   UNL     1       0.048   9.704  19.560  0.00  0.00    +0.000 C 
ATOM      2  O   UNL     1      -0.742   9.604  20.490  0.00  0.00    +0.000 OA
ATOM      3  N   UNL     1       1.317   9.164  19.558  0.00  0.00    +0.000 N 
ATOM      4  C   UNL     1       1.747   8.290  20.649  0.00  0.00    +0.000 C 
ATOM      5  C   UNL     1       1.900   6.834  20.166  0.00  0.00    +0.000 C 
ATOM      6  N   UNL     1       2.734   6.749  18.947  0.00  0.00    +0.000 N 
ATOM      7  C   UNL     1       3.772   5.813  18.915  0.00  0.00    +0.000 C 
ATOM      8  O   UNL     1       3.994   5.078  19.878  0.00  0.00    +0.000 OA
ATOM      9  C   UNL     1       2.297   7.662  17.872  0.00  0.00    +0.000 C 
ATOM     10  C   UNL     1       2.153   9.106  18.364  0.00  0.00    +0.000 C 
ENDROOT
BRANCH   7  11
ATOM     11  C   UNL     1       4.656   5.720  17.717  0.00  0.00    +0.000 A 
ATOM     12  C   UNL     1       5.647   6.599  17.511  0.00  0.00    +0.000 A 
ATOM     13  N   UNL     1       6.597   6.522  16.533  0.00  0.00    +0.000 NA
ATOM     14  C   UNL     1       6.436   5.612  15.625  0.00  0.00    +0.000 A 
ATOM     15  C   UNL     1       7.473   5.465  14.571  0.00  0.00    +0.000 A 
ATOM     16  C   UNL     1       7.273   4.622  13.554  0.00  0.00    +0.000 A 
ATOM     17  C   UNL     1       6.059   3.839  13.476  0.00  0.00    +0.000 A 
ATOM     18  C   UNL     1       5.854   2.969  12.275  0.00  0.00    +0.000 C 
ATOM     19  C   UNL     1       5.171   3.905  14.481  0.00  0.00    +0.000 A 
ATOM     20  N   UNL     1       5.346   4.755  15.574  0.00  0.00    +0.000 N 
ATOM     21  C   UNL     1       4.402   4.757  16.606  0.00  0.00    +0.000 A 
ATOM     22  O   UNL     1       3.428   4.004  16.624  0.00  0.00    +0.000 OA
ENDBRANCH   7  11
BRANCH   1  23
ATOM     23  O   UNL     1      -0.247  10.301  18.374  0.00  0.00    +0.000 OA
BRANCH  23  25
ATOM     24  C   UNL     1      -2.315   9.980  17.227  0.00  0.00    +0.000 C 
ATOM     25  C   UNL     1      -1.574  10.823  18.249  0.00  0.00    +0.000 C 
ENDBRANCH  23  25
ENDBRANCH   1  23
TORSDOF 3
ENDMDL
MODEL 2
REMARK VINA RESULT:      -6.8      3.453      5.671
REMARK  Name = 
REMARK  5 active torsions:
REMARK  status: ('A' for Active; 'I' for Inactive)
REMARK    1  A    between atoms: C_1  and  C_2
REMARK    2  A    between atoms: C_2  and  O_3
REMARK    3  A    between atoms: O_3  and  C_4
REMARK    4  A    between atoms: C_10  and  C_12
REMARK    5  A    between atoms: C_18  and  C_19
REMARK                            x       y       z     vdW  Elec       q    Type
REMARK                         _______ _______ _______ _____ _____    ______ ____
ROOT
ATOM      1  C   UNL     1      -4.570  11.877  18.884  0.00  0.00    +0.000 C 
ATOM      2  O   UNL     1      -5.137  12.712  19.577  0.00  0.00    +0.000 OA
ATOM      3  N   UNL     1      -3.211  11.852  18.653  0.00  0.00    +0.000 N 
ATOM      4  C   UNL     1      -2.326  12.770  19.369  0.00  0.00    +0.000 C 
ATOM      5  C   UNL     1      -1.446  12.014  20.385  0.00  0.00    +0.000 C 
ATOM      6  N   UNL     1      -0.761  10.861  19.761  0.00  0.00    +0.000 N 
ATOM      7  C   UNL     1       0.613  10.710  19.973  0.00  0.00    +0.000 C 
ATOM      8  O   UNL     1       1.242  11.518  20.658  0.00  0.00    +0.000 OA
ATOM      9  C   UNL     1      -1.671   9.966  19.020  0.00  0.00    +0.000 C 
ATOM     10  C   UNL     1      -2.536  10.729  18.011  0.00  0.00    +0.000 C 
ENDROOT
BRANCH   7  11
ATOM     11  C   UNL     1       1.347   9.580  19.333  0.00  0.00    +0.000 A 
ATOM     12  C   UNL     1       1.720   9.629  18.046  0.00  0.00    +0.000 A 
ATOM     13  N   UNL     1       2.514   8.722  17.405  0.00  0.00    +0.000 NA
ATOM     14  C   UNL     1       2.801   7.634  18.047  0.00  0.00    +0.000 A 
ATOM     15  C   UNL     1       3.702   6.643  17.402  0.00  0.00    +0.000 A 
ATOM     16  C   UNL     1       3.915   5.460  17.985  0.00  0.00    +0.000 A 
ATOM     17  C   UNL     1       3.287   5.139  19.249  0.00  0.00    +0.000 A 
ATOM     18  C   UNL     1       3.500   3.770  19.817  0.00  0.00    +0.000 C 
ATOM     19  C   UNL     1       2.553   6.075  19.872  0.00  0.00    +0.000 A 
ATOM     20  N   UNL     1       2.319   7.332  19.312  0.00  0.00    +0.000 N 
ATOM     21  C   UNL     1       1.572   8.277  20.023  0.00  0.00    +0.000 A 
ATOM     22  O   UNL     1       1.138   8.072  21.157  0.00  0.00    +0.000 OA
ENDBRANCH   7  11
BRANCH   1  23
ATOM     23  O   UNL     1      -5.199  10.819  18.304  0.00  0.00    +0.000 OA
BRANCH  23  25
ATOM     24  C   UNL     1      -7.034   9.570  19.181  0.00  0.00    +0.000 C 
ATOM     25  C   UNL     1      -6.628  10.809  18.404  0.00  0.00    +0.000 C 
ENDBRANCH  23  25
ENDBRANCH   1  23
TORSDOF 3
ENDMDL
MODEL 3
REMARK VINA RESULT:      -6.5      2.741      3.983
REMARK  Name = 
REMARK  5 active torsions:
REMARK  status: ('A' for Active; 'I' for Inactive)
REMARK    1  A    between atoms: C_1  and  C_2
REMARK    2  A    between atoms: C_2  and  O_3
REMARK    3  A    between atoms: O_3  and  C_4
REMARK    4  A    between atoms: C_10  and  C_12
REMARK    5  A    between atoms: C_18  and  C_19
REMARK                            x       y       z     vdW  Elec       q    Type
REMARK                         _______ _______ _______ _____ _____    ______ ____
ROOT
ATOM      1  C   UNL     1      -2.006  12.280  19.211  0.00  0.00    +0.000 C 
ATOM      2  O   UNL     1      -2.638  12.870  20.078  0.00  0.00    +0.000 OA
ATOM      3  N   UNL     1      -0.771  11.700  19.409  0.00  0.00    +0.000 N 
ATOM      4  C   UNL     1      -0.196  11.631  20.752  0.00  0.00    +0.000 C 
ATOM      5  C   UNL     1      -0.167  10.179  21.270  0.00  0.00    +0.000 C 
ATOM      6  N   UNL     1       0.454   9.263  20.289  0.00  0.00    +0.000 N 
ATOM      7  C   UNL     1       1.444   8.382  20.736  0.00  0.00    +0.000 C 
ATOM      8  O   UNL     1       1.798   8.371  21.915  0.00  0.00    +0.000 OA
ATOM      9  C   UNL     1      -0.124   9.372  18.934  0.00  0.00    +0.000 C 
ATOM     10  C   UNL     1      -0.142  10.819  18.430  0.00  0.00    +0.000 C 
ENDROOT
BRANCH   7  11
ATOM     11  C   UNL     1       2.119   7.467  19.770  0.00  0.00    +0.000 A 
ATOM     12  C   UNL     1       2.653   7.925  18.629  0.00  0.00    +0.000 A 
ATOM     13  N   UNL     1       3.412   7.204  17.752  0.00  0.00    +0.000 NA
ATOM     14  C   UNL     1       3.491   5.927  17.953  0.00  0.00    +0.000 A 
ATOM     15  C   UNL     1       4.346   5.115  17.049  0.00  0.00    +0.000 A 
ATOM     16  C   UNL     1       4.349   3.783  17.154  0.00  0.00    +0.000 A 
ATOM     17  C   UNL     1       3.534   3.123  18.152  0.00  0.00    +0.000 A 
ATOM     18  C   UNL     1       3.517   1.626  18.173  0.00  0.00    +0.000 C 
ATOM     19  C   UNL     1       2.840   3.867  19.027  0.00  0.00    +0.000 A 
ATOM     20  N   UNL     1       2.823   5.261  18.971  0.00  0.00    +0.000 N 
ATOM     21  C   UNL     1       2.105   5.984  19.930  0.00  0.00    +0.000 A 
ATOM     22  O   UNL     1       1.513   5.448  20.867  0.00  0.00    +0.000 OA
ENDBRANCH   7  11
BRANCH   1  23
ATOM     23  O   UNL     1      -2.472  12.057  17.952  0.00  0.00    +0.000 OA
BRANCH  23  25
ATOM     24  C   UNL     1      -3.573   9.984  17.520  0.00  0.00    +0.000 C 
ATOM     25  C   UNL     1      -3.766  11.451  17.862  0.00  0.00    +0.000 C 
ENDBRANCH  23  25
ENDBRANCH   1  23
TORSDOF 3
ENDMDL
MODEL 4
REMARK VINA RESULT:      -6.4      3.015      8.830
REMARK  Name = 
REMARK  5 active torsions:
REMARK  status: ('A' for Active; 'I' for Inactive)
REMARK    1  A    between atoms: C_1  and  C_2
REMARK    2  A    between atoms: C_2  and  O_3
REMARK    3  A    between atoms: O_3  and  C_4
REMARK    4  A    between atoms: C_10  and  C_12
REMARK    5  A    between atoms: C_18  and  C_19
REMARK                            x       y       z     vdW  Elec       q    Type
REMARK                         _______ _______ _______ _____ _____    ______ ____
ROOT
ATOM      1  C   UNL     1       4.018   3.698  18.550  0.00  0.00    +0.000 C 
ATOM      2  O   UNL     1       4.553   3.298  17.524  0.00  0.00    +0.000 OA
ATOM      3  N   UNL     1       3.952   5.023  18.926  0.00  0.00    +0.000 N 
ATOM      4  C   UNL     1       4.408   6.071  18.013  0.00  0.00    +0.000 C 
ATOM      5  C   UNL     1       3.221   6.902  17.485  0.00  0.00    +0.000 C 
ATOM      6  N   UNL     1       2.358   7.380  18.586  0.00  0.00    +0.000 N 
ATOM      7  C   UNL     1       1.996   8.731  18.610  0.00  0.00    +0.000 C 
ATOM      8  O   UNL     1       2.390   9.508  17.739  0.00  0.00    +0.000 OA
ATOM      9  C   UNL     1       1.935   6.309  19.510  0.00  0.00    +0.000 C 
ATOM     10  C   UNL     1       3.124   5.494  20.031  0.00  0.00    +0.000 C 
ENDROOT
BRANCH   7  11
ATOM     11  C   UNL     1       1.155   9.259  19.722  0.00  0.00    +0.000 A 
ATOM     12  C   UNL     1       1.153   8.681  20.932  0.00  0.00    +0.000 A 
ATOM     13  N   UNL     1       0.537   9.163  22.051  0.00  0.00    +0.000 NA
ATOM     14  C   UNL     1      -0.248  10.182  21.899  0.00  0.00    +0.000 A 
ATOM     15  C   UNL     1      -0.900  10.765  23.100  0.00  0.00    +0.000 A 
ATOM     16  C   UNL     1      -1.809  11.734  22.959  0.00  0.00    +0.000 A 
ATOM     17  C   UNL     1      -2.157  12.230  21.644  0.00  0.00    +0.000 A 
ATOM     18  C   UNL     1      -3.238  13.261  21.541  0.00  0.00    +0.000 C 
ATOM     19  C   UNL     1      -1.495  11.766  20.573  0.00  0.00    +0.000 A 
ATOM     20  N   UNL     1      -0.522  10.771  20.673  0.00  0.00    +0.000 N 
ATOM     21  C   UNL     1       0.156  10.349  19.524  0.00  0.00    +0.000 A 
ATOM     22  O   UNL     1      -0.030  10.850  18.415  0.00  0.00    +0.000 OA
ENDBRANCH   7  11
BRANCH   1  23
ATOM     23  O   UNL     1       3.354   2.893  19.423  0.00  0.00    +0.000 OA
BRANCH  23  25
ATOM     24  C   UNL     1       1.073   2.657  18.762  0.00  0.00    +0.000 C 
ATOM     25  C   UNL     1       2.425   1.971  18.841  0.00  0.00    +0.000 C 
ENDBRANCH  23  25
ENDBRANCH   1  23
TORSDOF 3
ENDMDL
MODEL 5
REMARK VINA RESULT:      -6.4      3.629      6.362
REMARK  Name = 
REMARK  5 active torsions:
REMARK  status: ('A' for Active; 'I' for Inactive)
REMARK    1  A    between atoms: C_1  and  C_2
REMARK    2  A    between atoms: C_2  and  O_3
REMARK    3  A    between atoms: O_3  and  C_4
REMARK    4  A    between atoms: C_10  and  C_12
REMARK    5  A    between atoms: C_18  and  C_19
REMARK                            x       y       z     vdW  Elec       q    Type
REMARK                         _______ _______ _______ _____ _____    ______ ____
ROOT
ATOM      1  C   UNL     1       2.016  15.713  19.085  0.00  0.00    +0.000 C 
ATOM      2  O   UNL     1       1.361  16.627  18.602  0.00  0.00    +0.000 OA
ATOM      3  N   UNL     1       1.474  14.548  19.586  0.00  0.00    +0.000 N 
ATOM      4  C   UNL     1       0.046  14.274  19.429  0.00  0.00    +0.000 C 
ATOM      5  C   UNL     1      -0.191  13.116  18.439  0.00  0.00    +0.000 C 
ATOM      6  N   UNL     1       0.628  11.932  18.780  0.00  0.00    +0.000 N 
ATOM      7  C   UNL     1       0.001  10.683  18.836  0.00  0.00    +0.000 C 
ATOM      8  O   UNL     1      -1.205  10.568  18.615  0.00  0.00    +0.000 OA
ATOM      9  C   UNL     1       2.061  12.240  18.962  0.00  0.00    +0.000 C 
ATOM     10  C   UNL     1       2.282  13.389  19.951  0.00  0.00    +0.000 C 
ENDROOT
BRANCH   7  11
ATOM     11  C   UNL     1       0.785   9.471  19.209  0.00  0.00    +0.000 A 
ATOM     12  C   UNL     1       0.753   8.973  20.454  0.00  0.00    +0.000 A 
ATOM     13  N   UNL     1       1.313   7.797  20.863  0.00  0.00    +0.000 NA
ATOM     14  C   UNL     1       2.079   7.184  20.018  0.00  0.00    +0.000 A 
ATOM     15  C   UNL     1       2.669   5.877  20.408  0.00  0.00    +0.000 A 
ATOM     16  C   UNL     1       3.560   5.284  19.609  0.00  0.00    +0.000 A 
ATOM     17  C   UNL     1       3.948   5.898  18.356  0.00  0.00    +0.000 A 
ATOM     18  C   UNL     1       5.007   5.228  17.538  0.00  0.00    +0.000 C 
ATOM     19  C   UNL     1       3.339   7.029  17.966  0.00  0.00    +0.000 A 
ATOM     20  N   UNL     1       2.387   7.674  18.757  0.00  0.00    +0.000 N 
ATOM     21  C   UNL     1       1.765   8.833  18.282  0.00  0.00    +0.000 A 
ATOM     22  O   UNL     1       1.983   9.301  17.164  0.00  0.00    +0.000 OA
ENDBRANCH   7  11
BRANCH   1  23
ATOM     23  O   UNL     1       3.376  15.694  19.127  0.00  0.00    +0.000 OA
BRANCH  23  25
ATOM     24  C   UNL     1       5.375  15.078  17.977  0.00  0.00    +0.000 C 
ATOM     25  C   UNL     1       4.043  15.797  17.864  0.00  0.00    +0.000 C 
ENDBRANCH  23  25
ENDBRANCH   1  23
TORSDOF 3
ENDMDL
MODEL 6
REMARK VINA RESULT:      -6.3      3.068      5.705
REMARK  Name = 
REMARK  5 active torsions:
REMARK  status: ('A' for Active; 'I' for Inactive)
REMARK    1  A    between atoms: C_1  and  C_2
REMARK    2  A    between atoms: C_2  and  O_3
REMARK    3  A    between atoms: O_3  and  C_4
REMARK    4  A    between atoms: C_10  and  C_12
REMARK    5  A    between atoms: C_18  and  C_19
REMARK                            x       y       z     vdW  Elec       q    Type
REMARK                         _______ _______ _______ _____ _____    ______ ____
ROOT
ATOM      1  C   UNL     1      -4.571  11.325  17.754  0.00  0.00    +0.000 C 
ATOM      2  O   UNL     1      -4.989  12.472  17.659  0.00  0.00    +0.000 OA
ATOM      3  N   UNL     1      -3.267  10.951  17.507  0.00  0.00    +0.000 N 
ATOM      4  C   UNL     1      -2.246  11.966  17.249  0.00  0.00    +0.000 C 
ATOM      5  C   UNL     1      -1.246  12.056  18.419  0.00  0.00    +0.000 C 
ATOM      6  N   UNL     1      -0.711  10.726  18.783  0.00  0.00    +0.000 N 
ATOM      7  C   UNL     1       0.672  10.581  18.927  0.00  0.00    +0.000 C 
ATOM      8  O   UNL     1       1.432  11.535  18.749  0.00  0.00    +0.000 OA
ATOM      9  C   UNL     1      -1.761   9.712  19.009  0.00  0.00    +0.000 C 
ATOM     10  C   UNL     1      -2.745   9.630  17.837  0.00  0.00    +0.000 C 
ENDROOT
BRANCH   7  11
ATOM     11  C   UNL     1       1.253   9.248  19.259  0.00  0.00    +0.000 A 
ATOM     12  C   UNL     1       1.188   8.749  20.502  0.00  0.00    +0.000 A 
ATOM     13  N   UNL     1       1.555   7.490  20.881  0.00  0.00    +0.000 NA
ATOM     14  C   UNL     1       2.169   6.765  20.000  0.00  0.00    +0.000 A 
ATOM     15  C   UNL     1       2.542   5.371  20.358  0.00  0.00    +0.000 A 
ATOM     16  C   UNL     1       3.284   4.645  19.518  0.00  0.00    +0.000 A 
ATOM     17  C   UNL     1       3.717   5.198  18.252  0.00  0.00    +0.000 A 
ATOM     18  C   UNL     1       4.610   4.366  17.385  0.00  0.00    +0.000 C 
ATOM     19  C   UNL     1       3.295   6.421  17.894  0.00  0.00    +0.000 A 
ATOM     20  N   UNL     1       2.502   7.210  18.729  0.00  0.00    +0.000 N 
ATOM     21  C   UNL     1       2.068   8.464  18.287  0.00  0.00    +0.000 A 
ATOM     22  O   UNL     1       2.315   8.900  17.163  0.00  0.00    +0.000 OA
ENDBRANCH   7  11
BRANCH   1  23
ATOM     23  O   UNL     1      -5.323  10.277  18.186  0.00  0.00    +0.000 OA
BRANCH  23  25
ATOM     24  C   UNL     1      -7.078   9.526  19.618  0.00  0.00    +0.000 C 
ATOM     25  C   UNL     1      -6.645  10.597  18.633  0.00  0.00    +0.000 C 
ENDBRANCH  23  25
ENDBRANCH   1  23
TORSDOF 3
ENDMDL
MODEL 7
REMARK VINA RESULT:      -6.2      4.892      7.746
REMARK  Name = 
REMARK  5 active torsions:
REMARK  status: ('A' for Active; 'I' for Inactive)
REMARK    1  A    between atoms: C_1  and  C_2
REMARK    2  A    between atoms: C_2  and  O_3
REMARK    3  A    between atoms: O_3  and  C_4
REMARK    4  A    between atoms: C_10  and  C_12
REMARK    5  A    between atoms: C_18  and  C_19
REMARK                            x       y       z     vdW  Elec       q    Type
REMARK                         _______ _______ _______ _____ _____    ______ ____
ROOT
ATOM      1  C   UNL     1      -4.611  13.769  23.139  0.00  0.00    +0.000 C 
ATOM      2  O   UNL     1      -4.772  14.637  23.987  0.00  0.00    +0.000 OA
ATOM      3  N   UNL     1      -3.563  13.743  22.243  0.00  0.00    +0.000 N 
ATOM      4  C   UNL     1      -2.471  14.710  22.359  0.00  0.00    +0.000 C 
ATOM      5  C   UNL     1      -1.167  14.022  22.809  0.00  0.00    +0.000 C 
ATOM      6  N   UNL     1      -0.856  12.843  21.972  0.00  0.00    +0.000 N 
ATOM      7  C   UNL     1       0.437  12.717  21.453  0.00  0.00    +0.000 C 
ATOM      8  O   UNL     1       1.297  13.569  21.680  0.00  0.00    +0.000 OA
ATOM      9  C   UNL     1      -1.983  11.897  21.847  0.00  0.00    +0.000 C 
ATOM     10  C   UNL     1      -3.272  12.593  21.395  0.00  0.00    +0.000 C 
ENDROOT
BRANCH   7  11
ATOM     11  C   UNL     1       0.779  11.560  20.577  0.00  0.00    +0.000 A 
ATOM     12  C   UNL     1       0.712  11.651  19.241  0.00  0.00    +0.000 A 
ATOM     13  N   UNL     1       1.137  10.708  18.350  0.00  0.00    +0.000 NA
ATOM     14  C   UNL     1       1.489   9.558  18.832  0.00  0.00    +0.000 A 
ATOM     15  C   UNL     1       2.003   8.521  17.900  0.00  0.00    +0.000 A 
ATOM     16  C   UNL     1       2.255   7.288  18.349  0.00  0.00    +0.000 A 
ATOM     17  C   UNL     1       2.043   6.956  19.742  0.00  0.00    +0.000 A 
ATOM     18  C   UNL     1       2.267   5.540  20.173  0.00  0.00    +0.000 C 
ATOM     19  C   UNL     1       1.671   7.922  20.596  0.00  0.00    +0.000 A 
ATOM     20  N   UNL     1       1.417   9.229  20.178  0.00  0.00    +0.000 N 
ATOM     21  C   UNL     1       1.063  10.200  21.120  0.00  0.00    +0.000 A 
ATOM     22  O   UNL     1       1.005   9.970  22.329  0.00  0.00    +0.000 OA
ENDBRANCH   7  11
BRANCH   1  23
ATOM     23  O   UNL     1      -5.407  12.673  23.013  0.00  0.00    +0.000 OA
BRANCH  23  25
ATOM     24  C   UNL     1      -7.687  12.714  23.721  0.00  0.00    +0.000 C 
ATOM     25  C   UNL     1      -6.740  12.917  22.551  0.00  0.00    +0.000 C 
ENDBRANCH  23  25
ENDBRANCH   1  23
TORSDOF 3
ENDMDL
MODEL 8
REMARK VINA RESULT:      -6.1      4.694     10.771
REMARK  Name = 
REMARK  5 active torsions:
REMARK  status: ('A' for Active; 'I' for Inactive)
REMARK    1  A    between atoms: C_1  and  C_2
REMARK    2  A    between atoms: C_2  and  O_3
REMARK    3  A    between atoms: O_3  and  C_4
REMARK    4  A    between atoms: C_10  and  C_12
REMARK    5  A    between atoms: C_18  and  C_19
REMARK                            x       y       z     vdW  Elec       q    Type
REMARK                         _______ _______ _______ _____ _____    ______ ____
ROOT
ATOM      1  C   UNL     1       2.002   7.307  19.382  0.00  0.00    +0.000 C 
ATOM      2  O   UNL     1       2.377   6.805  18.330  0.00  0.00    +0.000 OA
ATOM      3  N   UNL     1       1.721   8.646  19.548  0.00  0.00    +0.000 N 
ATOM      4  C   UNL     1       1.717   9.545  18.394  0.00  0.00    +0.000 C 
ATOM      5  C   UNL     1       0.286  10.018  18.064  0.00  0.00    +0.000 C 
ATOM      6  N   UNL     1      -0.401  10.551  19.260  0.00  0.00    +0.000 N 
ATOM      7  C   UNL     1      -1.046  11.788  19.162  0.00  0.00    +0.000 C 
ATOM      8  O   UNL     1      -1.038  12.425  18.107  0.00  0.00    +0.000 OA
ATOM      9  C   UNL     1      -0.357   9.637  20.420  0.00  0.00    +0.000 C 
ATOM     10  C   UNL     1       1.070   9.179  20.739  0.00  0.00    +0.000 C 
ENDROOT
BRANCH   7  11
ATOM     11  C   UNL     1      -1.721  12.375  20.355  0.00  0.00    +0.000 A 
ATOM     12  C   UNL     1      -3.057  12.382  20.468  0.00  0.00    +0.000 A 
ATOM     13  N   UNL     1      -3.766  12.760  21.572  0.00  0.00    +0.000 NA
ATOM     14  C   UNL     1      -3.103  13.311  22.539  0.00  0.00    +0.000 A 
ATOM     15  C   UNL     1      -3.832  13.693  23.777  0.00  0.00    +0.000 A 
ATOM     16  C   UNL     1      -3.201  14.374  24.737  0.00  0.00    +0.000 A 
ATOM     17  C   UNL     1      -1.806  14.734  24.588  0.00  0.00    +0.000 A 
ATOM     18  C   UNL     1      -1.172  15.564  25.660  0.00  0.00    +0.000 C 
ATOM     19  C   UNL     1      -1.130  14.303  23.511  0.00  0.00    +0.000 A 
ATOM     20  N   UNL     1      -1.741  13.570  22.493  0.00  0.00    +0.000 N 
ATOM     21  C   UNL     1      -0.977  13.121  21.410  0.00  0.00    +0.000 A 
ATOM     22  O   UNL     1       0.238  13.303  21.328  0.00  0.00    +0.000 OA
ENDBRANCH   7  11
BRANCH   1  23
ATOM     23  O   UNL     1       1.745   6.595  20.513  0.00  0.00    +0.000 OA
BRANCH  23  25
ATOM     24  C   UNL     1       1.069   4.306  20.485  0.00  0.00    +0.000 C 
ATOM     25  C   UNL     1       2.253   5.256  20.538  0.00  0.00    +0.000 C 
ENDBRANCH  23  25
ENDBRANCH   1  23
TORSDOF 3
ENDMDL
MODEL 9
REMARK VINA RESULT:      -6.1      1.934      8.184
REMARK  Name = 
REMARK  5 active torsions:
REMARK  status: ('A' for Active; 'I' for Inactive)
REMARK    1  A    between atoms: C_1  and  C_2
REMARK    2  A    between atoms: C_2  and  O_3
REMARK    3  A    between atoms: O_3  and  C_4
REMARK    4  A    between atoms: C_10  and  C_12
REMARK    5  A    between atoms: C_18  and  C_19
REMARK                            x       y       z     vdW  Elec       q    Type
REMARK                         _______ _______ _______ _____ _____    ______ ____
ROOT
ATOM      1  C   UNL     1       7.019   4.831  16.192  0.00  0.00    +0.000 C 
ATOM      2  O   UNL     1       7.790   3.965  16.586  0.00  0.00    +0.000 OA
ATOM      3  N   UNL     1       5.716   4.965  16.623  0.00  0.00    +0.000 N 
ATOM      4  C   UNL     1       5.214   4.137  17.719  0.00  0.00    +0.000 C 
ATOM      5  C   UNL     1       4.966   4.981  18.985  0.00  0.00    +0.000 C 
ATOM      6  N   UNL     1       4.144   6.175  18.691  0.00  0.00    +0.000 N 
ATOM      7  C   UNL     1       3.044   6.444  19.512  0.00  0.00    +0.000 C 
ATOM      8  O   UNL     1       2.760   5.704  20.455  0.00  0.00    +0.000 OA
ATOM      9  C   UNL     1       4.655   6.978  17.562  0.00  0.00    +0.000 C 
ATOM     10  C   UNL     1       4.892   6.128  16.310  0.00  0.00    +0.000 C 
ENDROOT
BRANCH   7  11
ATOM     11  C   UNL     1       2.170   7.619  19.228  0.00  0.00    +0.000 A 
ATOM     12  C   UNL     1       2.068   8.131  17.993  0.00  0.00    +0.000 A 
ATOM     13  N   UNL     1       1.196   9.105  17.597  0.00  0.00    +0.000 NA
ATOM     14  C   UNL     1       0.519   9.701  18.526  0.00  0.00    +0.000 A 
ATOM     15  C   UNL     1      -0.476  10.733  18.132  0.00  0.00    +0.000 A 
ATOM     16  C   UNL     1      -1.098  11.451  19.071  0.00  0.00    +0.000 A 
ATOM     17  C   UNL     1      -0.821  11.223  20.474  0.00  0.00    +0.000 A 
ATOM     18  C   UNL     1      -1.489  12.109  21.479  0.00  0.00    +0.000 C 
ATOM     19  C   UNL     1       0.005  10.225  20.825  0.00  0.00    +0.000 A 
ATOM     20  N   UNL     1       0.661   9.434  19.880  0.00  0.00    +0.000 N 
ATOM     21  C   UNL     1       1.486   8.388  20.307  0.00  0.00    +0.000 A 
ATOM     22  O   UNL     1       1.632   8.092  21.493  0.00  0.00    +0.000 OA
ENDBRANCH   7  11
BRANCH   1  23
ATOM     23  O   UNL     1       7.369   5.823  15.329  0.00  0.00    +0.000 OA
BRANCH  23  25
ATOM     24  C   UNL     1       6.613   4.378  13.586  0.00  0.00    +0.000 C 
ATOM     25  C   UNL     1       7.649   5.413  13.986  0.00  0.00    +0.000 C 
ENDBRANCH  23  25
ENDBRANCH   1  23
TORSDOF 3
ENDMDL
