MODEL 1
REMARK VINA RESULT:      -8.5      0.000      0.000
REMARK  Name = 
REMARK  10 active torsions:
REMARK  status: ('A' for Active; 'I' for Inactive)
REMARK    1  A    between atoms: C_1  and  O_2
REMARK    2  A    between atoms: O_2  and  C_3
REMARK    3  A    between atoms: C_4  and  N_5
REMARK    4  A    between atoms: C_6  and  O_7
REMARK    5  A    between atoms: C_8  and  O_9
REMARK    6  A    between atoms: O_9  and  C_10
REMARK    7  A    between atoms: C_15  and  N_16
REMARK    8  A    between atoms: C_17  and  C_19
REMARK    9  A    between atoms: C_32  and  C_33
REMARK   10  A    between atoms: C_32  and  C_34
REMARK                            x       y       z     vdW  Elec       q    Type
REMARK                         _______ _______ _______ _____ _____    ______ ____
ROOT
ATOM      1  C   UNL     1      -1.557  11.773  22.298  0.00  0.00    +0.000 A 
ATOM      2  C   UNL     1      -1.198  10.716  23.147  0.00  0.00    +0.000 A 
ATOM      3  C   UNL     1      -0.424   9.655  22.690  0.00  0.00    +0.000 A 
ATOM      4  C   UNL     1       0.033   9.653  21.379  0.00  0.00    +0.000 A 
ATOM      5  C   UNL     1       0.883   8.580  20.917  0.00  0.00    +0.000 A 
ATOM      6  C   UNL     1       1.442   8.622  19.705  0.00  0.00    +0.000 A 
ATOM      7  C   UNL     1       1.150   9.769  18.789  0.00  0.00    +0.000 A 
ATOM      8  O   UNL     1       1.714   9.845  17.699  0.00  0.00    +0.000 OA
ATOM      9  O   UNL     1       0.220  10.710  19.213  0.00  0.00    +0.000 OA
ATOM     10  C   UNL     1      -0.304  10.697  20.525  0.00  0.00    +0.000 A 
ATOM     11  C   UNL     1      -1.116  11.750  20.963  0.00  0.00    +0.000 A 
ATOM     12 CL   UNL     1      -1.547  13.019  19.867  0.00  0.00    +0.000 Cl
ENDROOT
BRANCH   6  13
ATOM     13  N   UNL     1       2.311   7.660  19.217  0.00  0.00    +0.000 N 
ATOM     14  C   UNL     1       2.421   6.343  19.619  0.00  0.00    +0.000 C 
ATOM     15  O   UNL     1       1.731   5.783  20.465  0.00  0.00    +0.000 OA
ATOM     16  H   UNL     1       2.902   7.992  18.459  0.00  0.00    +0.000 HD
BRANCH  14  17
ATOM     17  C   UNL     1       3.451   5.542  18.917  0.00  0.00    +0.000 A 
ATOM     18  C   UNL     1       4.760   5.434  19.399  0.00  0.00    +0.000 A 
ATOM     19  C   UNL     1       5.695   4.679  18.692  0.00  0.00    +0.000 A 
ATOM     20  C   UNL     1       5.323   4.025  17.516  0.00  0.00    +0.000 A 
ATOM     21  C   UNL     1       4.011   4.109  17.049  0.00  0.00    +0.000 A 
ATOM     22  C   UNL     1       3.073   4.861  17.752  0.00  0.00    +0.000 A 
ENDBRANCH  14  17
ENDBRANCH   6  13
BRANCH   1  23
ATOM     23  O   UNL     1      -2.323  12.843  22.694  0.00  0.00    +0.000 OA
BRANCH  23  27
ATOM     24  C   UNL     1      -6.364  14.006  22.516  0.00  0.00    +0.000 C 
ATOM     25  C   UNL     1      -5.942  13.232  23.789  0.00  0.00    +0.000 C 
ATOM     26  C   UNL     1      -4.400  13.166  23.902  0.00  0.00    +0.000 C 
ATOM     27  C   UNL     1      -3.751  12.711  22.578  0.00  0.00    +0.000 C 
ATOM     28  O   UNL     1      -4.215  13.479  21.466  0.00  0.00    +0.000 OA
ATOM     29  C   UNL     1      -5.629  13.495  21.242  0.00  0.00    +0.000 C 
ATOM     30  C   UNL     1      -6.113  12.121  20.747  0.00  0.00    +0.000 C 
ATOM     31  C   UNL     1      -5.831  14.481  20.072  0.00  0.00    +0.000 C 
BRANCH  25  32
ATOM     32  N   UNL     1      -6.547  11.887  23.961  0.00  0.00    +0.000 NA
ATOM     33  H   UNL     1      -7.531  11.938  24.212  0.00  0.00    +0.000 HD
ATOM     34  H   UNL     1      -6.076  11.383  24.714  0.00  0.00    +0.000 HD
ENDBRANCH  25  32
BRANCH  24  36
ATOM     35  C   UNL     1      -6.948  16.168  23.423  0.00  0.00    +0.000 C 
ATOM     36  O   UNL     1      -6.013  15.396  22.685  0.00  0.00    +0.000 OA
ENDBRANCH  24  36
BRANCH  26  37
ATOM     37  O   UNL     1      -4.064  12.263  24.978  0.00  0.00    +0.000 OA
ATOM     38  H   UNL     1      -4.843  12.255  25.571  0.00  0.00    +0.000 HD
ENDBRANCH  26  37
ENDBRANCH  23  27
ENDBRANCH   1  23
TORSDOF 7
ENDMDL
MODEL 2
REMARK VINA RESULT:      -8.1      1.693      2.089
REMARK  Name = 
REMARK  10 active torsions:
REMARK  status: ('A' for Active; 'I' for Inactive)
REMARK    1  A    between atoms: C_1  and  O_2
REMARK    2  A    between atoms: O_2  and  C_3
REMARK    3  A    between atoms: C_4  and  N_5
REMARK    4  A    between atoms: C_6  and  O_7
REMARK    5  A    between atoms: C_8  and  O_9
REMARK    6  A    between atoms: O_9  and  C_10
REMARK    7  A    between atoms: C_15  and  N_16
REMARK    8  A    between atoms: C_17  and  C_19
REMARK    9  A    between atoms: C_32  and  C_33
REMARK   10  A    between atoms: C_32  and  C_34
REMARK                            x       y       z     vdW  Elec       q    Type
REMARK                         _______ _______ _______ _____ _____    ______ ____
ROOT
ATOM      1  C   UNL     1      -1.144  12.125  21.734  0.00  0.00    +0.000 A 
ATOM      2  C   UNL     1      -0.966  11.283  22.841  0.00  0.00    +0.000 A 
ATOM      3  C   UNL     1      -0.308  10.064  22.722  0.00  0.00    +0.000 A 
ATOM      4  C   UNL     1       0.215   9.683  21.493  0.00  0.00    +0.000 A 
ATOM      5  C   UNL     1       0.947   8.443  21.379  0.00  0.00    +0.000 A 
ATOM      6  C   UNL     1       1.570   8.118  20.244  0.00  0.00    +0.000 A 
ATOM      7  C   UNL     1       1.475   9.023  19.055  0.00  0.00    +0.000 A 
ATOM      8  O   UNL     1       2.101   8.762  18.030  0.00  0.00    +0.000 OA
ATOM      9  O   UNL     1       0.648  10.135  19.159  0.00  0.00    +0.000 OA
ATOM     10  C   UNL     1       0.058  10.509  20.386  0.00  0.00    +0.000 A 
ATOM     11  C   UNL     1      -0.638  11.720  20.486  0.00  0.00    +0.000 A 
ATOM     12 CL   UNL     1      -0.848  12.711  19.082  0.00  0.00    +0.000 Cl
ENDROOT
BRANCH   6  13
ATOM     13  N   UNL     1       2.337   6.976  20.077  0.00  0.00    +0.000 N 
ATOM     14  C   UNL     1       1.954   5.667  20.294  0.00  0.00    +0.000 C 
ATOM     15  O   UNL     1       0.841   5.284  20.640  0.00  0.00    +0.000 OA
ATOM     16  H   UNL     1       3.274   7.161  19.730  0.00  0.00    +0.000 HD
BRANCH  14  17
ATOM     17  C   UNL     1       2.994   4.643  20.037  0.00  0.00    +0.000 A 
ATOM     18  C   UNL     1       4.182   4.949  19.362  0.00  0.00    +0.000 A 
ATOM     19  C   UNL     1       5.122   3.945  19.132  0.00  0.00    +0.000 A 
ATOM     20  C   UNL     1       4.884   2.646  19.584  0.00  0.00    +0.000 A 
ATOM     21  C   UNL     1       3.714   2.346  20.282  0.00  0.00    +0.000 A 
ATOM     22  C   UNL     1       2.772   3.345  20.514  0.00  0.00    +0.000 A 
ENDBRANCH  14  17
ENDBRANCH   6  13
BRANCH   1  23
ATOM     23  O   UNL     1      -1.790  13.336  21.793  0.00  0.00    +0.000 OA
BRANCH  23  27
ATOM     24  C   UNL     1      -5.072  14.859  23.943  0.00  0.00    +0.000 C 
ATOM     25  C   UNL     1      -3.684  15.404  24.359  0.00  0.00    +0.000 C 
ATOM     26  C   UNL     1      -2.617  15.050  23.297  0.00  0.00    +0.000 C 
ATOM     27  C   UNL     1      -2.678  13.558  22.903  0.00  0.00    +0.000 C 
ATOM     28  O   UNL     1      -4.002  13.154  22.548  0.00  0.00    +0.000 OA
ATOM     29  C   UNL     1      -5.021  13.358  23.532  0.00  0.00    +0.000 C 
ATOM     30  C   UNL     1      -4.831  12.391  24.714  0.00  0.00    +0.000 C 
ATOM     31  C   UNL     1      -6.333  12.946  22.832  0.00  0.00    +0.000 C 
BRANCH  25  32
ATOM     32  N   UNL     1      -3.223  15.032  25.721  0.00  0.00    +0.000 NA
ATOM     33  H   UNL     1      -2.486  15.647  26.057  0.00  0.00    +0.000 HD
ATOM     34  H   UNL     1      -2.840  14.086  25.717  0.00  0.00    +0.000 HD
ENDBRANCH  25  32
BRANCH  24  36
ATOM     35  C   UNL     1      -5.906  16.946  23.054  0.00  0.00    +0.000 C 
ATOM     36  O   UNL     1      -5.532  15.602  22.793  0.00  0.00    +0.000 OA
ENDBRANCH  24  36
BRANCH  26  37
ATOM     37  O   UNL     1      -1.318  15.390  23.828  0.00  0.00    +0.000 OA
ATOM     38  H   UNL     1      -1.300  15.028  24.738  0.00  0.00    +0.000 HD
ENDBRANCH  26  37
ENDBRANCH  23  27
ENDBRANCH   1  23
TORSDOF 7
ENDMDL
MODEL 3
REMARK VINA RESULT:      -7.9      2.017      2.659
REMARK  Name = 
REMARK  10 active torsions:
REMARK  status: ('A' for Active; 'I' for Inactive)
REMARK    1  A    between atoms: C_1  and  O_2
REMARK    2  A    between atoms: O_2  and  C_3
REMARK    3  A    between atoms: C_4  and  N_5
REMARK    4  A    between atoms: C_6  and  O_7
REMARK    5  A    between atoms: C_8  and  O_9
REMARK    6  A    between atoms: O_9  and  C_10
REMARK    7  A    between atoms: C_15  and  N_16
REMARK    8  A    between atoms: C_17  and  C_19
REMARK    9  A    between atoms: C_32  and  C_33
REMARK   10  A    between atoms: C_32  and  C_34
REMARK                            x       y       z     vdW  Elec       q    Type
REMARK                         _______ _______ _______ _____ _____    ______ ____
ROOT
ATOM      1  C   UNL     1      -2.033  11.941  19.794  0.00  0.00    +0.000 A 
ATOM      2  C   UNL     1      -1.845  11.925  18.405  0.00  0.00    +0.000 A 
ATOM      3  C   UNL     1      -0.834  11.169  17.822  0.00  0.00    +0.000 A 
ATOM      4  C   UNL     1      -0.013  10.387  18.622  0.00  0.00    +0.000 A 
ATOM      5  C   UNL     1       1.003   9.559  18.015  0.00  0.00    +0.000 A 
ATOM      6  C   UNL     1       1.716   8.700  18.747  0.00  0.00    +0.000 A 
ATOM      7  C   UNL     1       1.499   8.624  20.227  0.00  0.00    +0.000 A 
ATOM      8  O   UNL     1       2.105   7.790  20.896  0.00  0.00    +0.000 OA
ATOM      9  O   UNL     1       0.615   9.533  20.794  0.00  0.00    +0.000 OA
ATOM     10  C   UNL     1      -0.189  10.381  20.001  0.00  0.00    +0.000 A 
ATOM     11  C   UNL     1      -1.178  11.169  20.602  0.00  0.00    +0.000 A 
ATOM     12 CL   UNL     1      -1.352  11.168  22.325  0.00  0.00    +0.000 Cl
ENDROOT
BRANCH   6  13
ATOM     13  N   UNL     1       2.664   7.835  18.228  0.00  0.00    +0.000 N 
ATOM     14  C   UNL     1       2.549   6.471  18.045  0.00  0.00    +0.000 C 
ATOM     15  O   UNL     1       1.557   5.789  18.281  0.00  0.00    +0.000 OA
ATOM     16  H   UNL     1       3.521   8.298  17.934  0.00  0.00    +0.000 HD
BRANCH  14  17
ATOM     17  C   UNL     1       3.736   5.797  17.468  0.00  0.00    +0.000 A 
ATOM     18  C   UNL     1       4.823   6.520  16.963  0.00  0.00    +0.000 A 
ATOM     19  C   UNL     1       5.910   5.837  16.418  0.00  0.00    +0.000 A 
ATOM     20  C   UNL     1       5.918   4.442  16.388  0.00  0.00    +0.000 A 
ATOM     21  C   UNL     1       4.848   3.720  16.916  0.00  0.00    +0.000 A 
ATOM     22  C   UNL     1       3.760   4.397  17.462  0.00  0.00    +0.000 A 
ENDBRANCH  14  17
ENDBRANCH   6  13
BRANCH   1  23
ATOM     23  O   UNL     1      -3.011  12.672  20.424  0.00  0.00    +0.000 OA
BRANCH  23  27
ATOM     24  C   UNL     1      -7.151  12.949  19.724  0.00  0.00    +0.000 C 
ATOM     25  C   UNL     1      -6.737  12.574  21.167  0.00  0.00    +0.000 C 
ATOM     26  C   UNL     1      -5.229  12.838  21.389  0.00  0.00    +0.000 C 
ATOM     27  C   UNL     1      -4.372  12.240  20.253  0.00  0.00    +0.000 C 
ATOM     28  O   UNL     1      -4.844  12.638  18.964  0.00  0.00    +0.000 OA
ATOM     29  C   UNL     1      -6.207  12.326  18.655  0.00  0.00    +0.000 C 
ATOM     30  C   UNL     1      -6.384  10.809  18.470  0.00  0.00    +0.000 C 
ATOM     31  C   UNL     1      -6.454  12.970  17.275  0.00  0.00    +0.000 C 
BRANCH  25  32
ATOM     32  N   UNL     1      -7.109  11.208  21.614  0.00  0.00    +0.000 NA
ATOM     33  H   UNL     1      -6.407  10.516  21.359  0.00  0.00    +0.000 HD
ATOM     34  H   UNL     1      -7.982  10.918  21.173  0.00  0.00    +0.000 HD
ENDBRANCH  25  32
BRANCH  24  36
ATOM     35  C   UNL     1      -7.917  15.124  20.449  0.00  0.00    +0.000 C 
ATOM     36  O   UNL     1      -7.072  14.384  19.581  0.00  0.00    +0.000 OA
ENDBRANCH  24  36
BRANCH  26  37
ATOM     37  O   UNL     1      -4.854  12.279  22.667  0.00  0.00    +0.000 OA
ATOM     38  H   UNL     1      -5.664  11.856  23.019  0.00  0.00    +0.000 HD
ENDBRANCH  26  37
ENDBRANCH  23  27
ENDBRANCH   1  23
TORSDOF 7
ENDMDL
MODEL 4
REMARK VINA RESULT:      -7.9      1.957      2.275
REMARK  Name = 
REMARK  10 active torsions:
REMARK  status: ('A' for Active; 'I' for Inactive)
REMARK    1  A    between atoms: C_1  and  O_2
REMARK    2  A    between atoms: O_2  and  C_3
REMARK    3  A    between atoms: C_4  and  N_5
REMARK    4  A    between atoms: C_6  and  O_7
REMARK    5  A    between atoms: C_8  and  O_9
REMARK    6  A    between atoms: O_9  and  C_10
REMARK    7  A    between atoms: C_15  and  N_16
REMARK    8  A    between atoms: C_17  and  C_19
REMARK    9  A    between atoms: C_32  and  C_33
REMARK   10  A    between atoms: C_32  and  C_34
REMARK                            x       y       z     vdW  Elec       q    Type
REMARK                         _______ _______ _______ _____ _____    ______ ____
ROOT
ATOM      1  C   UNL     1      -1.000  12.081  21.867  0.00  0.00    +0.000 A 
ATOM      2  C   UNL     1      -0.960  11.251  22.997  0.00  0.00    +0.000 A 
ATOM      3  C   UNL     1      -0.386   9.986  22.941  0.00  0.00    +0.000 A 
ATOM      4  C   UNL     1       0.190   9.544  21.758  0.00  0.00    +0.000 A 
ATOM      5  C   UNL     1       0.836   8.253  21.713  0.00  0.00    +0.000 A 
ATOM      6  C   UNL     1       1.510   7.861  20.629  0.00  0.00    +0.000 A 
ATOM      7  C   UNL     1       1.562   8.746  19.423  0.00  0.00    +0.000 A 
ATOM      8  O   UNL     1       2.236   8.420  18.448  0.00  0.00    +0.000 OA
ATOM      9  O   UNL     1       0.814   9.917  19.453  0.00  0.00    +0.000 OA
ATOM     10  C   UNL     1       0.170  10.357  20.630  0.00  0.00    +0.000 A 
ATOM     11  C   UNL     1      -0.441  11.616  20.664  0.00  0.00    +0.000 A 
ATOM     12 CL   UNL     1      -0.482  12.592  19.234  0.00  0.00    +0.000 Cl
ENDROOT
BRANCH   6  13
ATOM     13  N   UNL     1       2.201   6.664  20.534  0.00  0.00    +0.000 N 
ATOM     14  C   UNL     1       1.671   5.391  20.450  0.00  0.00    +0.000 C 
ATOM     15  O   UNL     1       0.479   5.103  20.408  0.00  0.00    +0.000 OA
ATOM     16  H   UNL     1       3.211   6.778  20.498  0.00  0.00    +0.000 HD
BRANCH  14  17
ATOM     17  C   UNL     1       2.659   4.289  20.363  0.00  0.00    +0.000 A 
ATOM     18  C   UNL     1       2.556   3.140  21.155  0.00  0.00    +0.000 A 
ATOM     19  C   UNL     1       3.521   2.139  21.044  0.00  0.00    +0.000 A 
ATOM     20  C   UNL     1       4.575   2.279  20.139  0.00  0.00    +0.000 A 
ATOM     21  C   UNL     1       4.662   3.411  19.330  0.00  0.00    +0.000 A 
ATOM     22  C   UNL     1       3.702   4.414  19.436  0.00  0.00    +0.000 A 
ENDBRANCH  14  17
ENDBRANCH   6  13
BRANCH   1  23
ATOM     23  O   UNL     1      -1.558  13.337  21.863  0.00  0.00    +0.000 OA
BRANCH  23  27
ATOM     24  C   UNL     1      -4.616  15.415  23.874  0.00  0.00    +0.000 C 
ATOM     25  C   UNL     1      -3.239  15.395  24.581  0.00  0.00    +0.000 C 
ATOM     26  C   UNL     1      -2.133  14.917  23.609  0.00  0.00    +0.000 C 
ATOM     27  C   UNL     1      -2.543  13.625  22.871  0.00  0.00    +0.000 C 
ATOM     28  O   UNL     1      -3.832  13.744  22.265  0.00  0.00    +0.000 OA
ATOM     29  C   UNL     1      -4.920  14.081  23.132  0.00  0.00    +0.000 C 
ATOM     30  C   UNL     1      -5.250  12.904  24.066  0.00  0.00    +0.000 C 
ATOM     31  C   UNL     1      -6.132  14.251  22.192  0.00  0.00    +0.000 C 
BRANCH  25  32
ATOM     32  N   UNL     1      -3.178  14.651  25.864  0.00  0.00    +0.000 NA
ATOM     33  H   UNL     1      -2.479  13.911  25.845  0.00  0.00    +0.000 HD
ATOM     34  H   UNL     1      -4.076  14.204  26.054  0.00  0.00    +0.000 HD
ENDBRANCH  25  32
BRANCH  24  36
ATOM     35  C   UNL     1      -4.793  17.776  23.393  0.00  0.00    +0.000 C 
ATOM     36  O   UNL     1      -4.610  16.465  22.883  0.00  0.00    +0.000 OA
ENDBRANCH  24  36
BRANCH  26  37
ATOM     37  O   UNL     1      -0.921  14.716  24.367  0.00  0.00    +0.000 OA
ATOM     38  H   UNL     1      -0.908  13.765  24.601  0.00  0.00    +0.000 HD
ENDBRANCH  26  37
ENDBRANCH  23  27
ENDBRANCH   1  23
TORSDOF 7
ENDMDL
MODEL 5
REMARK VINA RESULT:      -7.9      1.216      1.288
REMARK  Name = 
REMARK  10 active torsions:
REMARK  status: ('A' for Active; 'I' for Inactive)
REMARK    1  A    between atoms: C_1  and  O_2
REMARK    2  A    between atoms: O_2  and  C_3
REMARK    3  A    between atoms: C_4  and  N_5
REMARK    4  A    between atoms: C_6  and  O_7
REMARK    5  A    between atoms: C_8  and  O_9
REMARK    6  A    between atoms: O_9  and  C_10
REMARK    7  A    between atoms: C_15  and  N_16
REMARK    8  A    between atoms: C_17  and  C_19
REMARK    9  A    between atoms: C_32  and  C_33
REMARK   10  A    between atoms: C_32  and  C_34
REMARK                            x       y       z     vdW  Elec       q    Type
REMARK                         _______ _______ _______ _____ _____    ______ ____
ROOT
ATOM      1  C   UNL     1      -1.373  12.144  21.829  0.00  0.00    +0.000 A 
ATOM      2  C   UNL     1      -1.183  11.298  22.931  0.00  0.00    +0.000 A 
ATOM      3  C   UNL     1      -0.494  10.097  22.808  0.00  0.00    +0.000 A 
ATOM      4  C   UNL     1       0.047   9.738  21.581  0.00  0.00    +0.000 A 
ATOM      5  C   UNL     1       0.810   8.517  21.463  0.00  0.00    +0.000 A 
ATOM      6  C   UNL     1       1.450   8.215  20.330  0.00  0.00    +0.000 A 
ATOM      7  C   UNL     1       1.340   9.126  19.147  0.00  0.00    +0.000 A 
ATOM      8  O   UNL     1       1.980   8.888  18.125  0.00  0.00    +0.000 OA
ATOM      9  O   UNL     1       0.486  10.217  19.253  0.00  0.00    +0.000 OA
ATOM     10  C   UNL     1      -0.122  10.568  20.478  0.00  0.00    +0.000 A 
ATOM     11  C   UNL     1      -0.849  11.760  20.581  0.00  0.00    +0.000 A 
ATOM     12 CL   UNL     1      -1.073  12.756  19.183  0.00  0.00    +0.000 Cl
ENDROOT
BRANCH   6  13
ATOM     13  N   UNL     1       2.246   7.094  20.162  0.00  0.00    +0.000 N 
ATOM     14  C   UNL     1       1.864   5.770  20.253  0.00  0.00    +0.000 C 
ATOM     15  O   UNL     1       0.729   5.355  20.465  0.00  0.00    +0.000 OA
ATOM     16  H   UNL     1       3.209   7.311  19.919  0.00  0.00    +0.000 HD
BRANCH  14  17
ATOM     17  C   UNL     1       2.939   4.775  20.028  0.00  0.00    +0.000 A 
ATOM     18  C   UNL     1       4.140   5.115  19.396  0.00  0.00    +0.000 A 
ATOM     19  C   UNL     1       5.114   4.137  19.195  0.00  0.00    +0.000 A 
ATOM     20  C   UNL     1       4.895   2.830  19.634  0.00  0.00    +0.000 A 
ATOM     21  C   UNL     1       3.710   2.496  20.289  0.00  0.00    +0.000 A 
ATOM     22  C   UNL     1       2.734   3.469  20.493  0.00  0.00    +0.000 A 
ENDBRANCH  14  17
ENDBRANCH   6  13
BRANCH   1  23
ATOM     23  O   UNL     1      -2.050  13.338  21.891  0.00  0.00    +0.000 OA
BRANCH  23  27
ATOM     24  C   UNL     1      -6.032  14.668  22.191  0.00  0.00    +0.000 C 
ATOM     25  C   UNL     1      -5.321  14.364  23.532  0.00  0.00    +0.000 C 
ATOM     26  C   UNL     1      -3.794  14.225  23.323  0.00  0.00    +0.000 C 
ATOM     27  C   UNL     1      -3.465  13.283  22.145  0.00  0.00    +0.000 C 
ATOM     28  O   UNL     1      -4.180  13.642  20.960  0.00  0.00    +0.000 OA
ATOM     29  C   UNL     1      -5.607  13.685  21.060  0.00  0.00    +0.000 C 
ATOM     30  C   UNL     1      -6.181  12.266  21.214  0.00  0.00    +0.000 C 
ATOM     31  C   UNL     1      -6.082  14.206  19.688  0.00  0.00    +0.000 C 
BRANCH  25  32
ATOM     32  N   UNL     1      -5.858  13.217  24.307  0.00  0.00    +0.000 NA
ATOM     33  H   UNL     1      -6.738  13.443  24.767  0.00  0.00    +0.000 HD
ATOM     34  H   UNL     1      -5.202  12.949  25.041  0.00  0.00    +0.000 HD
ENDBRANCH  25  32
BRANCH  24  36
ATOM     35  C   UNL     1      -6.035  17.039  22.653  0.00  0.00    +0.000 C 
ATOM     36  O   UNL     1      -5.663  15.997  21.765  0.00  0.00    +0.000 OA
ENDBRANCH  24  36
BRANCH  26  37
ATOM     37  O   UNL     1      -3.211  13.738  24.551  0.00  0.00    +0.000 OA
ATOM     38  H   UNL     1      -2.995  12.796  24.387  0.00  0.00    +0.000 HD
ENDBRANCH  26  37
ENDBRANCH  23  27
ENDBRANCH   1  23
TORSDOF 7
ENDMDL
MODEL 6
REMARK VINA RESULT:      -7.9      2.841     10.756
REMARK  Name = 
REMARK  10 active torsions:
REMARK  status: ('A' for Active; 'I' for Inactive)
REMARK    1  A    between atoms: C_1  and  O_2
REMARK    2  A    between atoms: O_2  and  C_3
REMARK    3  A    between atoms: C_4  and  N_5
REMARK    4  A    between atoms: C_6  and  O_7
REMARK    5  A    between atoms: C_8  and  O_9
REMARK    6  A    between atoms: O_9  and  C_10
REMARK    7  A    between atoms: C_15  and  N_16
REMARK    8  A    between atoms: C_17  and  C_19
REMARK    9  A    between atoms: C_32  and  C_33
REMARK   10  A    between atoms: C_32  and  C_34
REMARK                            x       y       z     vdW  Elec       q    Type
REMARK                         _______ _______ _______ _____ _____    ______ ____
ROOT
ATOM      1  C   UNL     1       1.940   7.855  20.027  0.00  0.00    +0.000 A 
ATOM      2  C   UNL     1       1.257   7.829  21.251  0.00  0.00    +0.000 A 
ATOM      3  C   UNL     1       0.285   8.776  21.554  0.00  0.00    +0.000 A 
ATOM      4  C   UNL     1      -0.044   9.748  20.618  0.00  0.00    +0.000 A 
ATOM      5  C   UNL     1      -1.091  10.698  20.909  0.00  0.00    +0.000 A 
ATOM      6  C   UNL     1      -1.516  11.557  19.979  0.00  0.00    +0.000 A 
ATOM      7  C   UNL     1      -0.869  11.572  18.629  0.00  0.00    +0.000 A 
ATOM      8  O   UNL     1      -1.300  12.313  17.747  0.00  0.00    +0.000 OA
ATOM      9  O   UNL     1       0.226  10.740  18.431  0.00  0.00    +0.000 OA
ATOM     10  C   UNL     1       0.615   9.784  19.395  0.00  0.00    +0.000 A 
ATOM     11  C   UNL     1       1.624   8.860  19.095  0.00  0.00    +0.000 A 
ATOM     12 CL   UNL     1       2.451   8.951  17.577  0.00  0.00    +0.000 Cl
ENDROOT
BRANCH   6  13
ATOM     13  N   UNL     1      -2.552  12.456  20.165  0.00  0.00    +0.000 N 
ATOM     14  C   UNL     1      -3.842  12.367  19.679  0.00  0.00    +0.000 C 
ATOM     15  O   UNL     1      -4.307  11.443  19.020  0.00  0.00    +0.000 OA
ATOM     16  H   UNL     1      -2.304  13.247  20.754  0.00  0.00    +0.000 HD
BRANCH  14  17
ATOM     17  C   UNL     1      -4.742  13.489  20.037  0.00  0.00    +0.000 A 
ATOM     18  C   UNL     1      -4.385  14.447  20.993  0.00  0.00    +0.000 A 
ATOM     19  C   UNL     1      -5.275  15.475  21.304  0.00  0.00    +0.000 A 
ATOM     20  C   UNL     1      -6.509  15.553  20.656  0.00  0.00    +0.000 A 
ATOM     21  C   UNL     1      -6.854  14.615  19.683  0.00  0.00    +0.000 A 
ATOM     22  C   UNL     1      -5.969  13.587  19.368  0.00  0.00    +0.000 A 
ENDBRANCH  14  17
ENDBRANCH   6  13
BRANCH   1  23
ATOM     23  O   UNL     1       2.912   6.950  19.677  0.00  0.00    +0.000 OA
BRANCH  23  27
ATOM     24  C   UNL     1       2.961   2.744  19.511  0.00  0.00    +0.000 C 
ATOM     25  C   UNL     1       3.247   3.473  18.176  0.00  0.00    +0.000 C 
ATOM     26  C   UNL     1       3.544   4.972  18.424  0.00  0.00    +0.000 C 
ATOM     27  C   UNL     1       2.484   5.617  19.343  0.00  0.00    +0.000 C 
ATOM     28  O   UNL     1       2.287   4.862  20.540  0.00  0.00    +0.000 OA
ATOM     29  C   UNL     1       1.906   3.492  20.379  0.00  0.00    +0.000 C 
ATOM     30  C   UNL     1       0.467   3.390  19.843  0.00  0.00    +0.000 C 
ATOM     31  C   UNL     1       1.884   2.919  21.812  0.00  0.00    +0.000 C 
BRANCH  25  32
ATOM     32  N   UNL     1       2.228   3.302  17.111  0.00  0.00    +0.000 NA
ATOM     33  H   UNL     1       2.333   2.419  16.617  0.00  0.00    +0.000 HD
ATOM     34  H   UNL     1       2.318   4.043  16.414  0.00  0.00    +0.000 HD
ENDBRANCH  25  32
BRANCH  24  36
ATOM     35  C   UNL     1       4.860   1.442  20.241  0.00  0.00    +0.000 C 
ATOM     36  O   UNL     1       4.184   2.688  20.277  0.00  0.00    +0.000 OA
ENDBRANCH  24  36
BRANCH  26  37
ATOM     37  O   UNL     1       3.594   5.641  17.146  0.00  0.00    +0.000 OA
ATOM     38  H   UNL     1       2.956   6.382  17.209  0.00  0.00    +0.000 HD
ENDBRANCH  26  37
ENDBRANCH  23  27
ENDBRANCH   1  23
TORSDOF 7
ENDMDL
MODEL 7
REMARK VINA RESULT:      -7.9      2.701     10.813
REMARK  Name = 
REMARK  10 active torsions:
REMARK  status: ('A' for Active; 'I' for Inactive)
REMARK    1  A    between atoms: C_1  and  O_2
REMARK    2  A    between atoms: O_2  and  C_3
REMARK    3  A    between atoms: C_4  and  N_5
REMARK    4  A    between atoms: C_6  and  O_7
REMARK    5  A    between atoms: C_8  and  O_9
REMARK    6  A    between atoms: O_9  and  C_10
REMARK    7  A    between atoms: C_15  and  N_16
REMARK    8  A    between atoms: C_17  and  C_19
REMARK    9  A    between atoms: C_32  and  C_33
REMARK   10  A    between atoms: C_32  and  C_34
REMARK                            x       y       z     vdW  Elec       q    Type
REMARK                         _______ _______ _______ _____ _____    ______ ____
ROOT
ATOM      1  C   UNL     1       2.065   7.777  19.977  0.00  0.00    +0.000 A 
ATOM      2  C   UNL     1       1.452   7.781  21.239  0.00  0.00    +0.000 A 
ATOM      3  C   UNL     1       0.497   8.734  21.574  0.00  0.00    +0.000 A 
ATOM      4  C   UNL     1       0.114   9.682  20.635  0.00  0.00    +0.000 A 
ATOM      5  C   UNL     1      -0.917  10.639  20.962  0.00  0.00    +0.000 A 
ATOM      6  C   UNL     1      -1.396  11.474  20.036  0.00  0.00    +0.000 A 
ATOM      7  C   UNL     1      -0.827  11.456  18.651  0.00  0.00    +0.000 A 
ATOM      8  O   UNL     1      -1.309  12.176  17.778  0.00  0.00    +0.000 OA
ATOM      9  O   UNL     1       0.257  10.621  18.412  0.00  0.00    +0.000 OA
ATOM     10  C   UNL     1       0.702   9.688  19.375  0.00  0.00    +0.000 A 
ATOM     11  C   UNL     1       1.694   8.758  19.041  0.00  0.00    +0.000 A 
ATOM     12 CL   UNL     1       2.433   8.813  17.476  0.00  0.00    +0.000 Cl
ENDROOT
BRANCH   6  13
ATOM     13  N   UNL     1      -2.421  12.377  20.260  0.00  0.00    +0.000 N 
ATOM     14  C   UNL     1      -2.318  13.662  20.758  0.00  0.00    +0.000 C 
ATOM     15  O   UNL     1      -1.279  14.242  21.057  0.00  0.00    +0.000 OA
ATOM     16  H   UNL     1      -3.338  12.029  19.990  0.00  0.00    +0.000 HD
BRANCH  14  17
ATOM     17  C   UNL     1      -3.595  14.401  20.897  0.00  0.00    +0.000 A 
ATOM     18  C   UNL     1      -3.641  15.711  21.388  0.00  0.00    +0.000 A 
ATOM     19  C   UNL     1      -4.871  16.357  21.512  0.00  0.00    +0.000 A 
ATOM     20  C   UNL     1      -6.046  15.704  21.137  0.00  0.00    +0.000 A 
ATOM     21  C   UNL     1      -5.998  14.409  20.621  0.00  0.00    +0.000 A 
ATOM     22  C   UNL     1      -4.773  13.760  20.494  0.00  0.00    +0.000 A 
ENDBRANCH  14  17
ENDBRANCH   6  13
BRANCH   1  23
ATOM     23  O   UNL     1       3.017   6.864  19.594  0.00  0.00    +0.000 OA
BRANCH  23  27
ATOM     24  C   UNL     1       2.993   2.656  19.508  0.00  0.00    +0.000 C 
ATOM     25  C   UNL     1       3.302   3.354  18.161  0.00  0.00    +0.000 C 
ATOM     26  C   UNL     1       3.623   4.852  18.383  0.00  0.00    +0.000 C 
ATOM     27  C   UNL     1       2.568   5.532  19.283  0.00  0.00    +0.000 C 
ATOM     28  O   UNL     1       2.350   4.804  20.492  0.00  0.00    +0.000 OA
ATOM     29  C   UNL     1       1.946   3.437  20.354  0.00  0.00    +0.000 C 
ATOM     30  C   UNL     1       0.510   3.351  19.810  0.00  0.00    +0.000 C 
ATOM     31  C   UNL     1       1.904   2.892  21.797  0.00  0.00    +0.000 C 
BRANCH  25  32
ATOM     32  N   UNL     1       2.286   3.181  17.092  0.00  0.00    +0.000 NA
ATOM     33  H   UNL     1       1.706   4.009  16.976  0.00  0.00    +0.000 HD
ATOM     34  H   UNL     1       1.658   2.410  17.324  0.00  0.00    +0.000 HD
ENDBRANCH  25  32
BRANCH  24  36
ATOM     35  C   UNL     1       4.897   1.353  20.226  0.00  0.00    +0.000 C 
ATOM     36  O   UNL     1       4.210   2.593  20.283  0.00  0.00    +0.000 OA
ENDBRANCH  24  36
BRANCH  26  37
ATOM     37  O   UNL     1       3.693   5.497  17.093  0.00  0.00    +0.000 OA
ATOM     38  H   UNL     1       4.632   5.746  16.972  0.00  0.00    +0.000 HD
ENDBRANCH  26  37
ENDBRANCH  23  27
ENDBRANCH   1  23
TORSDOF 7
ENDMDL
MODEL 8
REMARK VINA RESULT:      -7.9      2.683     10.845
REMARK  Name = 
REMARK  10 active torsions:
REMARK  status: ('A' for Active; 'I' for Inactive)
REMARK    1  A    between atoms: C_1  and  O_2
REMARK    2  A    between atoms: O_2  and  C_3
REMARK    3  A    between atoms: C_4  and  N_5
REMARK    4  A    between atoms: C_6  and  O_7
REMARK    5  A    between atoms: C_8  and  O_9
REMARK    6  A    between atoms: O_9  and  C_10
REMARK    7  A    between atoms: C_15  and  N_16
REMARK    8  A    between atoms: C_17  and  C_19
REMARK    9  A    between atoms: C_32  and  C_33
REMARK   10  A    between atoms: C_32  and  C_34
REMARK                            x       y       z     vdW  Elec       q    Type
REMARK                         _______ _______ _______ _____ _____    ______ ____
ROOT
ATOM      1  C   UNL     1       2.172   7.449  19.669  0.00  0.00    +0.000 A 
ATOM      2  C   UNL     1       1.732   7.153  20.967  0.00  0.00    +0.000 A 
ATOM      3  C   UNL     1       0.923   8.036  21.673  0.00  0.00    +0.000 A 
ATOM      4  C   UNL     1       0.511   9.219  21.073  0.00  0.00    +0.000 A 
ATOM      5  C   UNL     1      -0.374  10.112  21.783  0.00  0.00    +0.000 A 
ATOM      6  C   UNL     1      -0.889  11.188  21.183  0.00  0.00    +0.000 A 
ATOM      7  C   UNL     1      -0.510  11.505  19.770  0.00  0.00    +0.000 A 
ATOM      8  O   UNL     1      -1.031  12.456  19.191  0.00  0.00    +0.000 OA
ATOM      9  O   UNL     1       0.451  10.703  19.167  0.00  0.00    +0.000 OA
ATOM     10  C   UNL     1       0.928   9.525  19.783  0.00  0.00    +0.000 A 
ATOM     11  C   UNL     1       1.776   8.662  19.079  0.00  0.00    +0.000 A 
ATOM     12 CL   UNL     1       2.308   9.087  17.486  0.00  0.00    +0.000 Cl
ENDROOT
BRANCH   6  13
ATOM     13  N   UNL     1      -1.787  12.057  21.780  0.00  0.00    +0.000 N 
ATOM     14  C   UNL     1      -1.530  12.981  22.773  0.00  0.00    +0.000 C 
ATOM     15  O   UNL     1      -0.438  13.220  23.277  0.00  0.00    +0.000 OA
ATOM     16  H   UNL     1      -2.728  11.995  21.399  0.00  0.00    +0.000 HD
BRANCH  14  17
ATOM     17  C   UNL     1      -2.696  13.777  23.227  0.00  0.00    +0.000 A 
ATOM     18  C   UNL     1      -2.557  14.856  24.107  0.00  0.00    +0.000 A 
ATOM     19  C   UNL     1      -3.689  15.562  24.515  0.00  0.00    +0.000 A 
ATOM     20  C   UNL     1      -4.950  15.202  24.036  0.00  0.00    +0.000 A 
ATOM     21  C   UNL     1      -5.086  14.144  23.137  0.00  0.00    +0.000 A 
ATOM     22  C   UNL     1      -3.959  13.436  22.727  0.00  0.00    +0.000 A 
ENDBRANCH  14  17
ENDBRANCH   6  13
BRANCH   1  23
ATOM     23  O   UNL     1       2.977   6.617  18.928  0.00  0.00    +0.000 OA
BRANCH  23  27
ATOM     24  C   UNL     1       3.112   2.467  19.617  0.00  0.00    +0.000 C 
ATOM     25  C   UNL     1       3.474   2.923  18.183  0.00  0.00    +0.000 C 
ATOM     26  C   UNL     1       3.726   4.449  18.142  0.00  0.00    +0.000 C 
ATOM     27  C   UNL     1       2.596   5.232  18.844  0.00  0.00    +0.000 C 
ATOM     28  O   UNL     1       2.333   4.726  20.155  0.00  0.00    +0.000 OA
ATOM     29  C   UNL     1       1.988   3.340  20.250  0.00  0.00    +0.000 C 
ATOM     30  C   UNL     1       0.591   3.089  19.658  0.00  0.00    +0.000 C 
ATOM     31  C   UNL     1       1.881   3.065  21.765  0.00  0.00    +0.000 C 
BRANCH  25  32
ATOM     32  N   UNL     1       2.531   2.511  17.113  0.00  0.00    +0.000 NA
ATOM     33  H   UNL     1       2.785   1.615  16.702  0.00  0.00    +0.000 HD
ATOM     34  H   UNL     1       2.536   3.195  16.356  0.00  0.00    +0.000 HD
ENDBRANCH  25  32
BRANCH  24  36
ATOM     35  C   UNL     1       5.011   1.405  20.668  0.00  0.00    +0.000 C 
ATOM     36  O   UNL     1       4.282   2.603  20.452  0.00  0.00    +0.000 OA
ENDBRANCH  24  36
BRANCH  26  37
ATOM     37  O   UNL     1       3.850   4.851  16.760  0.00  0.00    +0.000 OA
ATOM     38  H   UNL     1       4.022   5.815  16.778  0.00  0.00    +0.000 HD
ENDBRANCH  26  37
ENDBRANCH  23  27
ENDBRANCH   1  23
TORSDOF 7
ENDMDL
MODEL 9
REMARK VINA RESULT:      -7.8      1.680      2.074
REMARK  Name = 
REMARK  10 active torsions:
REMARK  status: ('A' for Active; 'I' for Inactive)
REMARK    1  A    between atoms: C_1  and  O_2
REMARK    2  A    between atoms: O_2  and  C_3
REMARK    3  A    between atoms: C_4  and  N_5
REMARK    4  A    between atoms: C_6  and  O_7
REMARK    5  A    between atoms: C_8  and  O_9
REMARK    6  A    between atoms: O_9  and  C_10
REMARK    7  A    between atoms: C_15  and  N_16
REMARK    8  A    between atoms: C_17  and  C_19
REMARK    9  A    between atoms: C_32  and  C_33
REMARK   10  A    between atoms: C_32  and  C_34
REMARK                            x       y       z     vdW  Elec       q    Type
REMARK                         _______ _______ _______ _____ _____    ______ ____
ROOT
ATOM      1  C   UNL     1      -0.633  12.533  21.831  0.00  0.00    +0.000 A 
ATOM      2  C   UNL     1      -0.631  11.432  22.700  0.00  0.00    +0.000 A 
ATOM      3  C   UNL     1      -0.157  10.190  22.290  0.00  0.00    +0.000 A 
ATOM      4  C   UNL     1       0.355  10.040  21.009  0.00  0.00    +0.000 A 
ATOM      5  C   UNL     1       0.898   8.766  20.599  0.00  0.00    +0.000 A 
ATOM      6  C   UNL     1       1.514   8.630  19.422  0.00  0.00    +0.000 A 
ATOM      7  C   UNL     1       1.605   9.797  18.490  0.00  0.00    +0.000 A 
ATOM      8  O   UNL     1       2.229   9.696  17.435  0.00  0.00    +0.000 OA
ATOM      9  O   UNL     1       0.951  10.967  18.858  0.00  0.00    +0.000 OA
ATOM     10  C   UNL     1       0.371  11.122  20.136  0.00  0.00    +0.000 A 
ATOM     11  C   UNL     1      -0.140  12.366  20.525  0.00  0.00    +0.000 A 
ATOM     12 CL   UNL     1      -0.140  13.686  19.404  0.00  0.00    +0.000 Cl
ENDROOT
BRANCH   6  13
ATOM     13  N   UNL     1       2.108   7.457  18.986  0.00  0.00    +0.000 N 
ATOM     14  C   UNL     1       2.201   6.258  19.666  0.00  0.00    +0.000 C 
ATOM     15  O   UNL     1       1.734   6.014  20.773  0.00  0.00    +0.000 OA
ATOM     16  H   UNL     1       2.484   7.516  18.044  0.00  0.00    +0.000 HD
BRANCH  14  17
ATOM     17  C   UNL     1       2.902   5.167  18.949  0.00  0.00    +0.000 A 
ATOM     18  C   UNL     1       4.203   4.776  19.286  0.00  0.00    +0.000 A 
ATOM     19  C   UNL     1       4.823   3.753  18.569  0.00  0.00    +0.000 A 
ATOM     20  C   UNL     1       4.144   3.115  17.530  0.00  0.00    +0.000 A 
ATOM     21  C   UNL     1       2.838   3.484  17.211  0.00  0.00    +0.000 A 
ATOM     22  C   UNL     1       2.213   4.505  17.924  0.00  0.00    +0.000 A 
ENDBRANCH  14  17
ENDBRANCH   6  13
BRANCH   1  23
ATOM     23  O   UNL     1      -1.093  13.779  22.181  0.00  0.00    +0.000 OA
BRANCH  23  27
ATOM     24  C   UNL     1      -4.507  15.091  24.263  0.00  0.00    +0.000 C 
ATOM     25  C   UNL     1      -3.147  15.459  24.903  0.00  0.00    +0.000 C 
ATOM     26  C   UNL     1      -1.992  15.237  23.897  0.00  0.00    +0.000 C 
ATOM     27  C   UNL     1      -2.081  13.850  23.225  0.00  0.00    +0.000 C 
ATOM     28  O   UNL     1      -3.378  13.606  22.677  0.00  0.00    +0.000 OA
ATOM     29  C   UNL     1      -4.483  13.691  23.583  0.00  0.00    +0.000 C 
ATOM     30  C   UNL     1      -4.462  12.513  24.572  0.00  0.00    +0.000 C 
ATOM     31  C   UNL     1      -5.732  13.501  22.697  0.00  0.00    +0.000 C 
BRANCH  25  32
ATOM     32  N   UNL     1      -2.847  14.814  26.207  0.00  0.00    +0.000 NA
ATOM     33  H   UNL     1      -3.645  14.837  26.838  0.00  0.00    +0.000 HD
ATOM     34  H   UNL     1      -2.085  15.305  26.675  0.00  0.00    +0.000 HD
ENDBRANCH  25  32
BRANCH  24  36
ATOM     35  C   UNL     1      -5.268  17.317  23.711  0.00  0.00    +0.000 C 
ATOM     36  O   UNL     1      -4.810  16.061  23.237  0.00  0.00    +0.000 OA
ENDBRANCH  24  36
BRANCH  26  37
ATOM     37  O   UNL     1      -0.741  15.389  24.603  0.00  0.00    +0.000 OA
ATOM     38  H   UNL     1      -0.591  14.538  25.063  0.00  0.00    +0.000 HD
ENDBRANCH  26  37
ENDBRANCH  23  27
ENDBRANCH   1  23
TORSDOF 7
ENDMDL
