MODEL 1
REMARK VINA RESULT:      -7.8      0.000      0.000
REMARK  Name = 
REMARK  6 active torsions:
REMARK  status: ('A' for Active; 'I' for Inactive)
REMARK    1  A    between atoms: S_2  and  N_4
REMARK    2  A    between atoms: S_2  and  C_21
REMARK    3  A    between atoms: N_4  and  C_5
REMARK    4  A    between atoms: C_5  and  C_6
REMARK    5  A    between atoms: N_9  and  S_10
REMARK    6  A    between atoms: S_10  and  C_13
REMARK                            x       y       z     vdW  Elec       q    Type
REMARK                         _______ _______ _______ _____ _____    ______ ____
ROOT
ATOM      1  C   UNL     1       3.017   6.008  18.430  0.00  0.00    +0.000 C 
ATOM      2  C   UNL     1       3.070   4.872  17.396  0.00  0.00    +0.000 C 
ATOM      3  C   UNL     1       4.483   4.535  16.923  0.00  0.00    +0.000 C 
ATOM      4  N   UNL     1       5.257   5.734  16.483  0.00  0.00    +0.000 NA
ATOM      5  C   UNL     1       5.159   6.911  17.395  0.00  0.00    +0.000 C 
ATOM      6  C   UNL     1       3.718   7.212  17.790  0.00  0.00    +0.000 C 
ENDROOT
BRANCH   4   7
ATOM      7  S   UNL     1       6.927   5.354  16.149  0.00  0.00    +0.000 S 
ATOM      8  O   UNL     1       7.693   6.582  16.217  0.00  0.00    +0.000 OA
ATOM      9  O   UNL     1       7.273   4.214  16.970  0.00  0.00    +0.000 OA
BRANCH   7  10
ATOM     10  C   UNL     1       6.894   4.841  14.451  0.00  0.00    +0.000 A 
ATOM     11  C   UNL     1       5.998   3.843  14.057  0.00  0.00    +0.000 A 
ATOM     12  C   UNL     1       5.983   3.420  12.728  0.00  0.00    +0.000 A 
ATOM     13  C   UNL     1       6.838   4.010  11.795  0.00  0.00    +0.000 A 
ATOM     14  C   UNL     1       7.713   5.025  12.188  0.00  0.00    +0.000 A 
ATOM     15  C   UNL     1       7.746   5.442  13.519  0.00  0.00    +0.000 A 
ENDBRANCH   7  10
ENDBRANCH   4   7
BRANCH   1  16
ATOM     16  C   UNL     1       3.578   5.597  19.818  0.00  0.00    +0.000 C 
BRANCH  16  17
ATOM     17  N   UNL     1       2.474   5.467  20.790  0.00  0.00    +0.000 NA
ATOM     18  H   UNL     1       2.631   5.869  21.710  0.00  0.00    +0.000 HD
BRANCH  17  20
ATOM     19  O   UNL     1       2.033   3.570  22.415  0.00  0.00    +0.000 OA
ATOM     20  S   UNL     1       1.776   3.939  21.047  0.00  0.00    +0.000 S 
ATOM     21  O   UNL     1       0.429   4.048  20.525  0.00  0.00    +0.000 OA
BRANCH  20  22
ATOM     22  C   UNL     1       2.664   2.847  19.971  0.00  0.00    +0.000 A 
ATOM     23  C   UNL     1       3.973   2.475  20.296  0.00  0.00    +0.000 A 
ATOM     24  C   UNL     1       4.672   1.600  19.462  0.00  0.00    +0.000 A 
ATOM     25  C   UNL     1       4.058   1.085  18.320  0.00  0.00    +0.000 A 
ATOM     26  C   UNL     1       2.740   1.434  18.013  0.00  0.00    +0.000 A 
ATOM     27  C   UNL     1       2.037   2.312  18.842  0.00  0.00    +0.000 A 
ENDBRANCH  20  22
ENDBRANCH  17  20
ENDBRANCH  16  17
ENDBRANCH   1  16
TORSDOF 6
ENDMDL
MODEL 2
REMARK VINA RESULT:      -7.6      2.441      7.085
REMARK  Name = 
REMARK  6 active torsions:
REMARK  status: ('A' for Active; 'I' for Inactive)
REMARK    1  A    between atoms: S_2  and  N_4
REMARK    2  A    between atoms: S_2  and  C_21
REMARK    3  A    between atoms: N_4  and  C_5
REMARK    4  A    between atoms: C_5  and  C_6
REMARK    5  A    between atoms: N_9  and  S_10
REMARK    6  A    between atoms: S_10  and  C_13
REMARK                            x       y       z     vdW  Elec       q    Type
REMARK                         _______ _______ _______ _____ _____    ______ ____
ROOT
ATOM      1  C   UNL     1       6.655   5.258  17.719  0.00  0.00    +0.000 C 
ATOM      2  C   UNL     1       6.174   4.955  19.147  0.00  0.00    +0.000 C 
ATOM      3  C   UNL     1       4.687   5.227  19.366  0.00  0.00    +0.000 C 
ATOM      4  N   UNL     1       4.262   6.582  18.905  0.00  0.00    +0.000 NA
ATOM      5  C   UNL     1       4.787   6.980  17.567  0.00  0.00    +0.000 C 
ATOM      6  C   UNL     1       6.283   6.719  17.435  0.00  0.00    +0.000 C 
ENDROOT
BRANCH   4   7
ATOM      7  S   UNL     1       2.531   6.789  18.973  0.00  0.00    +0.000 S 
ATOM      8  O   UNL     1       2.209   7.510  20.187  0.00  0.00    +0.000 OA
ATOM      9  O   UNL     1       2.114   7.285  17.679  0.00  0.00    +0.000 OA
BRANCH   7  10
ATOM     10  C   UNL     1       1.932   5.130  19.165  0.00  0.00    +0.000 A 
ATOM     11  C   UNL     1       1.891   4.287  18.051  0.00  0.00    +0.000 A 
ATOM     12  C   UNL     1       1.400   2.989  18.191  0.00  0.00    +0.000 A 
ATOM     13  C   UNL     1       0.979   2.530  19.441  0.00  0.00    +0.000 A 
ATOM     14  C   UNL     1       1.046   3.367  20.556  0.00  0.00    +0.000 A 
ATOM     15  C   UNL     1       1.520   4.673  20.421  0.00  0.00    +0.000 A 
ENDBRANCH   7  10
ENDBRANCH   4   7
BRANCH   1  16
ATOM     16  C   UNL     1       6.129   4.243  16.668  0.00  0.00    +0.000 C 
BRANCH  16  17
ATOM     17  N   UNL     1       7.076   4.152  15.538  0.00  0.00    +0.000 NA
ATOM     18  H   UNL     1       8.056   4.302  15.756  0.00  0.00    +0.000 HD
BRANCH  17  20
ATOM     19  O   UNL     1       5.610   5.866  14.377  0.00  0.00    +0.000 OA
ATOM     20  S   UNL     1       6.758   5.034  14.121  0.00  0.00    +0.000 S 
ATOM     21  O   UNL     1       8.036   5.595  13.731  0.00  0.00    +0.000 OA
BRANCH  20  22
ATOM     22  C   UNL     1       6.334   3.812  12.910  0.00  0.00    +0.000 A 
ATOM     23  C   UNL     1       4.990   3.614  12.574  0.00  0.00    +0.000 A 
ATOM     24  C   UNL     1       4.651   2.665  11.608  0.00  0.00    +0.000 A 
ATOM     25  C   UNL     1       5.651   1.933  10.966  0.00  0.00    +0.000 A 
ATOM     26  C   UNL     1       6.995   2.155  11.282  0.00  0.00    +0.000 A 
ATOM     27  C   UNL     1       7.340   3.100  12.251  0.00  0.00    +0.000 A 
ENDBRANCH  20  22
ENDBRANCH  17  20
ENDBRANCH  16  17
ENDBRANCH   1  16
TORSDOF 6
ENDMDL
MODEL 3
REMARK VINA RESULT:      -7.4      4.138      6.029
REMARK  Name = 
REMARK  6 active torsions:
REMARK  status: ('A' for Active; 'I' for Inactive)
REMARK    1  A    between atoms: S_2  and  N_4
REMARK    2  A    between atoms: S_2  and  C_21
REMARK    3  A    between atoms: N_4  and  C_5
REMARK    4  A    between atoms: C_5  and  C_6
REMARK    5  A    between atoms: N_9  and  S_10
REMARK    6  A    between atoms: S_10  and  C_13
REMARK                            x       y       z     vdW  Elec       q    Type
REMARK                         _______ _______ _______ _____ _____    ______ ____
ROOT
ATOM      1  C   UNL     1       1.362   6.469  20.054  0.00  0.00    +0.000 C 
ATOM      2  C   UNL     1       1.444   4.937  20.139  0.00  0.00    +0.000 C 
ATOM      3  C   UNL     1       2.869   4.392  20.078  0.00  0.00    +0.000 C 
ATOM      4  N   UNL     1       3.658   4.935  18.932  0.00  0.00    +0.000 NA
ATOM      5  C   UNL     1       3.535   6.408  18.731  0.00  0.00    +0.000 C 
ATOM      6  C   UNL     1       2.084   6.873  18.762  0.00  0.00    +0.000 C 
ENDROOT
BRANCH   4   7
ATOM      7  S   UNL     1       5.336   4.463  19.005  0.00  0.00    +0.000 S 
ATOM      8  O   UNL     1       6.073   5.514  19.679  0.00  0.00    +0.000 OA
ATOM      9  O   UNL     1       5.371   3.101  19.491  0.00  0.00    +0.000 OA
BRANCH   7  10
ATOM     10  C   UNL     1       5.834   4.472  17.302  0.00  0.00    +0.000 A 
ATOM     11  C   UNL     1       7.143   4.839  16.977  0.00  0.00    +0.000 A 
ATOM     12  C   UNL     1       7.534   4.870  15.638  0.00  0.00    +0.000 A 
ATOM     13  C   UNL     1       6.631   4.510  14.636  0.00  0.00    +0.000 A 
ATOM     14  C   UNL     1       5.332   4.118  14.968  0.00  0.00    +0.000 A 
ATOM     15  C   UNL     1       4.928   4.101  16.303  0.00  0.00    +0.000 A 
ENDBRANCH   7  10
ENDBRANCH   4   7
BRANCH   1  16
ATOM     16  C   UNL     1       1.882   7.181  21.332  0.00  0.00    +0.000 C 
BRANCH  16  17
ATOM     17  N   UNL     1       1.606   8.630  21.250  0.00  0.00    +0.000 NA
ATOM     18  H   UNL     1       2.353   9.250  21.549  0.00  0.00    +0.000 HD
BRANCH  17  20
ATOM     19  O   UNL     1      -0.757   8.143  22.032  0.00  0.00    +0.000 OA
ATOM     20  S   UNL     1       0.173   9.238  21.931  0.00  0.00    +0.000 S 
ATOM     21  O   UNL     1       0.598   9.989  23.095  0.00  0.00    +0.000 OA
BRANCH  20  22
ATOM     22  C   UNL     1      -0.431  10.410  20.747  0.00  0.00    +0.000 A 
ATOM     23  C   UNL     1      -0.349  10.114  19.382  0.00  0.00    +0.000 A 
ATOM     24  C   UNL     1      -0.840  11.025  18.445  0.00  0.00    +0.000 A 
ATOM     25  C   UNL     1      -1.427  12.217  18.873  0.00  0.00    +0.000 A 
ATOM     26  C   UNL     1      -1.535  12.497  20.238  0.00  0.00    +0.000 A 
ATOM     27  C   UNL     1      -1.042  11.590  21.180  0.00  0.00    +0.000 A 
ENDBRANCH  20  22
ENDBRANCH  17  20
ENDBRANCH  16  17
ENDBRANCH   1  16
TORSDOF 6
ENDMDL
MODEL 4
REMARK VINA RESULT:      -7.3      1.366      2.076
REMARK  Name = 
REMARK  6 active torsions:
REMARK  status: ('A' for Active; 'I' for Inactive)
REMARK    1  A    between atoms: S_2  and  N_4
REMARK    2  A    between atoms: S_2  and  C_21
REMARK    3  A    between atoms: N_4  and  C_5
REMARK    4  A    between atoms: C_5  and  C_6
REMARK    5  A    between atoms: N_9  and  S_10
REMARK    6  A    between atoms: S_10  and  C_13
REMARK                            x       y       z     vdW  Elec       q    Type
REMARK                         _______ _______ _______ _____ _____    ______ ____
ROOT
ATOM      1  C   UNL     1       2.799   5.912  18.402  0.00  0.00    +0.000 C 
ATOM      2  C   UNL     1       3.361   7.087  17.586  0.00  0.00    +0.000 C 
ATOM      3  C   UNL     1       4.774   6.848  17.056  0.00  0.00    +0.000 C 
ATOM      4  N   UNL     1       5.727   6.386  18.108  0.00  0.00    +0.000 NA
ATOM      5  C   UNL     1       5.198   5.317  19.004  0.00  0.00    +0.000 C 
ATOM      6  C   UNL     1       3.805   5.643  19.528  0.00  0.00    +0.000 C 
ENDROOT
BRANCH   4   7
ATOM      7  S   UNL     1       7.270   5.921  17.441  0.00  0.00    +0.000 S 
ATOM      8  O   UNL     1       7.981   7.126  17.064  0.00  0.00    +0.000 OA
ATOM      9  O   UNL     1       7.857   4.967  18.357  0.00  0.00    +0.000 OA
BRANCH   7  10
ATOM     10  C   UNL     1       6.828   5.074  15.946  0.00  0.00    +0.000 A 
ATOM     11  C   UNL     1       5.909   4.023  16.005  0.00  0.00    +0.000 A 
ATOM     12  C   UNL     1       5.575   3.338  14.837  0.00  0.00    +0.000 A 
ATOM     13  C   UNL     1       6.133   3.722  13.616  0.00  0.00    +0.000 A 
ATOM     14  C   UNL     1       7.030   4.790  13.558  0.00  0.00    +0.000 A 
ATOM     15  C   UNL     1       7.384   5.469  14.725  0.00  0.00    +0.000 A 
ENDBRANCH   7  10
ENDBRANCH   4   7
BRANCH   1  16
ATOM     16  C   UNL     1       2.457   4.672  17.532  0.00  0.00    +0.000 C 
BRANCH  16  17
ATOM     17  N   UNL     1       1.100   4.187  17.856  0.00  0.00    +0.000 NA
ATOM     18  H   UNL     1       0.366   4.887  17.888  0.00  0.00    +0.000 HD
BRANCH  17  20
ATOM     19  O   UNL     1       0.600   4.056  20.339  0.00  0.00    +0.000 OA
ATOM     20  S   UNL     1       0.881   3.196  19.218  0.00  0.00    +0.000 S 
ATOM     21  O   UNL     1      -0.048   2.169  18.792  0.00  0.00    +0.000 OA
BRANCH  20  22
ATOM     22  C   UNL     1       2.449   2.408  19.465  0.00  0.00    +0.000 A 
ATOM     23  C   UNL     1       3.016   1.663  18.425  0.00  0.00    +0.000 A 
ATOM     24  C   UNL     1       4.259   1.055  18.607  0.00  0.00    +0.000 A 
ATOM     25  C   UNL     1       4.942   1.209  19.815  0.00  0.00    +0.000 A 
ATOM     26  C   UNL     1       4.387   1.979  20.841  0.00  0.00    +0.000 A 
ATOM     27  C   UNL     1       3.141   2.586  20.666  0.00  0.00    +0.000 A 
ENDBRANCH  20  22
ENDBRANCH  17  20
ENDBRANCH  16  17
ENDBRANCH   1  16
TORSDOF 6
ENDMDL
MODEL 5
REMARK VINA RESULT:      -7.2      4.522      7.500
REMARK  Name = 
REMARK  6 active torsions:
REMARK  status: ('A' for Active; 'I' for Inactive)
REMARK    1  A    between atoms: S_2  and  N_4
REMARK    2  A    between atoms: S_2  and  C_21
REMARK    3  A    between atoms: N_4  and  C_5
REMARK    4  A    between atoms: C_5  and  C_6
REMARK    5  A    between atoms: N_9  and  S_10
REMARK    6  A    between atoms: S_10  and  C_13
REMARK                            x       y       z     vdW  Elec       q    Type
REMARK                         _______ _______ _______ _____ _____    ______ ____
ROOT
ATOM      1  C   UNL     1       2.906   6.852  18.577  0.00  0.00    +0.000 C 
ATOM      2  C   UNL     1       2.615   7.353  20.000  0.00  0.00    +0.000 C 
ATOM      3  C   UNL     1       1.373   8.238  20.099  0.00  0.00    +0.000 C 
ATOM      4  N   UNL     1       1.359   9.346  19.097  0.00  0.00    +0.000 NA
ATOM      5  C   UNL     1       1.739   8.941  17.712  0.00  0.00    +0.000 C 
ATOM      6  C   UNL     1       3.008   8.098  17.688  0.00  0.00    +0.000 C 
ENDROOT
BRANCH   4   7
ATOM      7  S   UNL     1      -0.157  10.209  19.091  0.00  0.00    +0.000 S 
ATOM      8  O   UNL     1      -0.810   9.968  17.820  0.00  0.00    +0.000 OA
ATOM      9  O   UNL     1      -0.823   9.903  20.339  0.00  0.00    +0.000 OA
BRANCH   7  10
ATOM     10  C   UNL     1       0.344  11.910  19.117  0.00  0.00    +0.000 A 
ATOM     11  C   UNL     1      -0.528  12.886  18.626  0.00  0.00    +0.000 A 
ATOM     12  C   UNL     1      -0.130  14.223  18.624  0.00  0.00    +0.000 A 
ATOM     13  C   UNL     1       1.119  14.583  19.134  0.00  0.00    +0.000 A 
ATOM     14  C   UNL     1       1.976  13.608  19.648  0.00  0.00    +0.000 A 
ATOM     15  C   UNL     1       1.593  12.266  19.639  0.00  0.00    +0.000 A 
ENDBRANCH   7  10
ENDBRANCH   4   7
BRANCH   1  16
ATOM     16  C   UNL     1       1.888   5.789  18.082  0.00  0.00    +0.000 C 
BRANCH  16  17
ATOM     17  N   UNL     1       2.067   4.531  18.835  0.00  0.00    +0.000 NA
ATOM     18  H   UNL     1       2.432   4.616  19.779  0.00  0.00    +0.000 HD
BRANCH  17  20
ATOM     19  O   UNL     1       3.112   2.237  19.116  0.00  0.00    +0.000 OA
ATOM     20  S   UNL     1       2.908   3.246  18.108  0.00  0.00    +0.000 S 
ATOM     21  O   UNL     1       2.185   2.967  16.883  0.00  0.00    +0.000 OA
BRANCH  20  22
ATOM     22  C   UNL     1       4.474   3.933  17.643  0.00  0.00    +0.000 A 
ATOM     23  C   UNL     1       5.421   4.216  18.633  0.00  0.00    +0.000 A 
ATOM     24  C   UNL     1       6.664   4.740  18.271  0.00  0.00    +0.000 A 
ATOM     25  C   UNL     1       6.964   4.961  16.926  0.00  0.00    +0.000 A 
ATOM     26  C   UNL     1       6.026   4.649  15.937  0.00  0.00    +0.000 A 
ATOM     27  C   UNL     1       4.780   4.127  16.293  0.00  0.00    +0.000 A 
ENDBRANCH  20  22
ENDBRANCH  17  20
ENDBRANCH  16  17
ENDBRANCH   1  16
TORSDOF 6
ENDMDL
MODEL 6
REMARK VINA RESULT:      -7.2      4.059      5.913
REMARK  Name = 
REMARK  6 active torsions:
REMARK  status: ('A' for Active; 'I' for Inactive)
REMARK    1  A    between atoms: S_2  and  N_4
REMARK    2  A    between atoms: S_2  and  C_21
REMARK    3  A    between atoms: N_4  and  C_5
REMARK    4  A    between atoms: C_5  and  C_6
REMARK    5  A    between atoms: N_9  and  S_10
REMARK    6  A    between atoms: S_10  and  C_13
REMARK                            x       y       z     vdW  Elec       q    Type
REMARK                         _______ _______ _______ _____ _____    ______ ____
ROOT
ATOM      1  C   UNL     1       1.387   6.502  20.041  0.00  0.00    +0.000 C 
ATOM      2  C   UNL     1       1.427   4.966  20.076  0.00  0.00    +0.000 C 
ATOM      3  C   UNL     1       2.838   4.385  20.009  0.00  0.00    +0.000 C 
ATOM      4  N   UNL     1       3.652   4.943  18.889  0.00  0.00    +0.000 NA
ATOM      5  C   UNL     1       3.570   6.425  18.735  0.00  0.00    +0.000 C 
ATOM      6  C   UNL     1       2.132   6.928  18.770  0.00  0.00    +0.000 C 
ENDROOT
BRANCH   4   7
ATOM      7  S   UNL     1       5.316   4.424  18.961  0.00  0.00    +0.000 S 
ATOM      8  O   UNL     1       6.076   5.438  19.664  0.00  0.00    +0.000 OA
ATOM      9  O   UNL     1       5.311   3.050  19.414  0.00  0.00    +0.000 OA
BRANCH   7  10
ATOM     10  C   UNL     1       5.825   4.460  17.261  0.00  0.00    +0.000 A 
ATOM     11  C   UNL     1       4.927   4.053  16.272  0.00  0.00    +0.000 A 
ATOM     12  C   UNL     1       5.329   4.058  14.936  0.00  0.00    +0.000 A 
ATOM     13  C   UNL     1       6.611   4.492  14.592  0.00  0.00    +0.000 A 
ATOM     14  C   UNL     1       7.496   4.923  15.582  0.00  0.00    +0.000 A 
ATOM     15  C   UNL     1       7.107   4.906  16.922  0.00  0.00    +0.000 A 
ENDBRANCH   7  10
ENDBRANCH   4   7
BRANCH   1  16
ATOM     16  C   UNL     1       1.913   7.157  21.346  0.00  0.00    +0.000 C 
BRANCH  16  17
ATOM     17  N   UNL     1       1.679   8.615  21.309  0.00  0.00    +0.000 NA
ATOM     18  H   UNL     1       2.401   9.200  21.718  0.00  0.00    +0.000 HD
BRANCH  17  20
ATOM     19  O   UNL     1      -0.767   8.155  21.798  0.00  0.00    +0.000 OA
ATOM     20  S   UNL     1       0.194   9.227  21.861  0.00  0.00    +0.000 S 
ATOM     21  O   UNL     1       0.503   9.903  23.105  0.00  0.00    +0.000 OA
BRANCH  20  22
ATOM     22  C   UNL     1      -0.248  10.477  20.685  0.00  0.00    +0.000 A 
ATOM     23  C   UNL     1       0.033  11.818  20.969  0.00  0.00    +0.000 A 
ATOM     24  C   UNL     1      -0.296  12.806  20.039  0.00  0.00    +0.000 A 
ATOM     25  C   UNL     1      -0.885  12.453  18.824  0.00  0.00    +0.000 A 
ATOM     26  C   UNL     1      -1.137  11.109  18.531  0.00  0.00    +0.000 A 
ATOM     27  C   UNL     1      -0.813  10.116  19.459  0.00  0.00    +0.000 A 
ENDBRANCH  20  22
ENDBRANCH  17  20
ENDBRANCH  16  17
ENDBRANCH   1  16
TORSDOF 6
ENDMDL
MODEL 7
REMARK VINA RESULT:      -7.2      3.029      7.513
REMARK  Name = 
REMARK  6 active torsions:
REMARK  status: ('A' for Active; 'I' for Inactive)
REMARK    1  A    between atoms: S_2  and  N_4
REMARK    2  A    between atoms: S_2  and  C_21
REMARK    3  A    between atoms: N_4  and  C_5
REMARK    4  A    between atoms: C_5  and  C_6
REMARK    5  A    between atoms: N_9  and  S_10
REMARK    6  A    between atoms: S_10  and  C_13
REMARK                            x       y       z     vdW  Elec       q    Type
REMARK                         _______ _______ _______ _____ _____    ______ ____
ROOT
ATOM      1  C   UNL     1       3.544   3.795  18.230  0.00  0.00    +0.000 C 
ATOM      2  C   UNL     1       2.024   4.018  18.220  0.00  0.00    +0.000 C 
ATOM      3  C   UNL     1       1.615   5.461  17.927  0.00  0.00    +0.000 C 
ATOM      4  N   UNL     1       2.326   6.458  18.782  0.00  0.00    +0.000 NA
ATOM      5  C   UNL     1       3.794   6.232  18.918  0.00  0.00    +0.000 C 
ATOM      6  C   UNL     1       4.123   4.782  19.251  0.00  0.00    +0.000 C 
ENDROOT
BRANCH   4   7
ATOM      7  S   UNL     1       2.001   8.099  18.288  0.00  0.00    +0.000 S 
ATOM      8  O   UNL     1       3.265   8.739  17.983  0.00  0.00    +0.000 OA
ATOM      9  O   UNL     1       0.939   8.043  17.306  0.00  0.00    +0.000 OA
BRANCH   7  10
ATOM     10  C   UNL     1       1.367   8.850  19.765  0.00  0.00    +0.000 A 
ATOM     11  C   UNL     1       1.445   8.150  20.972  0.00  0.00    +0.000 A 
ATOM     12  C   UNL     1       0.929   8.726  22.133  0.00  0.00    +0.000 A 
ATOM     13  C   UNL     1       0.364  10.002  22.091  0.00  0.00    +0.000 A 
ATOM     14  C   UNL     1       0.312  10.708  20.888  0.00  0.00    +0.000 A 
ATOM     15  C   UNL     1       0.811  10.133  19.718  0.00  0.00    +0.000 A 
ENDBRANCH   7  10
ENDBRANCH   4   7
BRANCH   1  16
ATOM     16  C   UNL     1       4.184   3.879  16.817  0.00  0.00    +0.000 C 
BRANCH  16  17
ATOM     17  N   UNL     1       5.638   3.634  16.906  0.00  0.00    +0.000 NA
ATOM     18  H   UNL     1       5.989   3.323  17.807  0.00  0.00    +0.000 HD
BRANCH  17  20
ATOM     19  O   UNL     1       6.115   6.111  16.637  0.00  0.00    +0.000 OA
ATOM     20  S   UNL     1       6.712   4.830  16.357  0.00  0.00    +0.000 S 
ATOM     21  O   UNL     1       8.003   4.454  16.897  0.00  0.00    +0.000 OA
BRANCH  20  22
ATOM     22  C   UNL     1       6.794   4.596  14.602  0.00  0.00    +0.000 A 
ATOM     23  C   UNL     1       7.702   5.348  13.850  0.00  0.00    +0.000 A 
ATOM     24  C   UNL     1       7.785   5.156  12.469  0.00  0.00    +0.000 A 
ATOM     25  C   UNL     1       6.977   4.202  11.848  0.00  0.00    +0.000 A 
ATOM     26  C   UNL     1       6.091   3.431  12.607  0.00  0.00    +0.000 A 
ATOM     27  C   UNL     1       6.002   3.622  13.988  0.00  0.00    +0.000 A 
ENDBRANCH  20  22
ENDBRANCH  17  20
ENDBRANCH  16  17
ENDBRANCH   1  16
TORSDOF 6
ENDMDL
MODEL 8
REMARK VINA RESULT:      -7.1      2.362      3.156
REMARK  Name = 
REMARK  6 active torsions:
REMARK  status: ('A' for Active; 'I' for Inactive)
REMARK    1  A    between atoms: S_2  and  N_4
REMARK    2  A    between atoms: S_2  and  C_21
REMARK    3  A    between atoms: N_4  and  C_5
REMARK    4  A    between atoms: C_5  and  C_6
REMARK    5  A    between atoms: N_9  and  S_10
REMARK    6  A    between atoms: S_10  and  C_13
REMARK                            x       y       z     vdW  Elec       q    Type
REMARK                         _______ _______ _______ _____ _____    ______ ____
ROOT
ATOM      1  C   UNL     1       5.766   4.525  18.386  0.00  0.00    +0.000 C 
ATOM      2  C   UNL     1       7.238   4.420  17.958  0.00  0.00    +0.000 C 
ATOM      3  C   UNL     1       7.508   4.945  16.549  0.00  0.00    +0.000 C 
ATOM      4  N   UNL     1       6.582   4.381  15.523  0.00  0.00    +0.000 NA
ATOM      5  C   UNL     1       5.145   4.356  15.924  0.00  0.00    +0.000 C 
ATOM      6  C   UNL     1       4.949   3.782  17.322  0.00  0.00    +0.000 C 
ENDROOT
BRANCH   4   7
ATOM      7  S   UNL     1       6.772   5.150  13.969  0.00  0.00    +0.000 S 
ATOM      8  O   UNL     1       5.772   6.191  13.853  0.00  0.00    +0.000 OA
ATOM      9  O   UNL     1       8.179   5.449  13.815  0.00  0.00    +0.000 OA
BRANCH   7  10
ATOM     10  C   UNL     1       6.337   3.865  12.824  0.00  0.00    +0.000 A 
ATOM     11  C   UNL     1       7.351   3.100  12.241  0.00  0.00    +0.000 A 
ATOM     12  C   UNL     1       7.016   2.104  11.324  0.00  0.00    +0.000 A 
ATOM     13  C   UNL     1       5.677   1.858  11.014  0.00  0.00    +0.000 A 
ATOM     14  C   UNL     1       4.666   2.607  11.620  0.00  0.00    +0.000 A 
ATOM     15  C   UNL     1       4.993   3.617  12.525  0.00  0.00    +0.000 A 
ENDBRANCH   7  10
ENDBRANCH   4   7
BRANCH   1  16
ATOM     16  C   UNL     1       5.307   5.985  18.648  0.00  0.00    +0.000 C 
BRANCH  16  17
ATOM     17  N   UNL     1       4.285   6.009  19.713  0.00  0.00    +0.000 NA
ATOM     18  H   UNL     1       4.300   5.237  20.373  0.00  0.00    +0.000 HD
BRANCH  17  20
ATOM     19  O   UNL     1       2.092   7.166  20.245  0.00  0.00    +0.000 OA
ATOM     20  S   UNL     1       2.657   6.249  19.290  0.00  0.00    +0.000 S 
ATOM     21  O   UNL     1       2.675   6.539  17.870  0.00  0.00    +0.000 OA
BRANCH  20  22
ATOM     22  C   UNL     1       1.898   4.659  19.487  0.00  0.00    +0.000 A 
ATOM     23  C   UNL     1       1.539   3.924  18.352  0.00  0.00    +0.000 A 
ATOM     24  C   UNL     1       0.957   2.663  18.500  0.00  0.00    +0.000 A 
ATOM     25  C   UNL     1       0.754   2.133  19.775  0.00  0.00    +0.000 A 
ATOM     26  C   UNL     1       1.142   2.858  20.906  0.00  0.00    +0.000 A 
ATOM     27  C   UNL     1       1.721   4.121  20.764  0.00  0.00    +0.000 A 
ENDBRANCH  20  22
ENDBRANCH  17  20
ENDBRANCH  16  17
ENDBRANCH   1  16
TORSDOF 6
ENDMDL
MODEL 9
REMARK VINA RESULT:      -7.1      4.446      7.442
REMARK  Name = 
REMARK  6 active torsions:
REMARK  status: ('A' for Active; 'I' for Inactive)
REMARK    1  A    between atoms: S_2  and  N_4
REMARK    2  A    between atoms: S_2  and  C_21
REMARK    3  A    between atoms: N_4  and  C_5
REMARK    4  A    between atoms: C_5  and  C_6
REMARK    5  A    between atoms: N_9  and  S_10
REMARK    6  A    between atoms: S_10  and  C_13
REMARK                            x       y       z     vdW  Elec       q    Type
REMARK                         _______ _______ _______ _____ _____    ______ ____
ROOT
ATOM      1  C   UNL     1       2.858   6.614  18.712  0.00  0.00    +0.000 C 
ATOM      2  C   UNL     1       2.542   7.216  20.091  0.00  0.00    +0.000 C 
ATOM      3  C   UNL     1       1.354   8.176  20.086  0.00  0.00    +0.000 C 
ATOM      4  N   UNL     1       1.446   9.221  19.024  0.00  0.00    +0.000 NA
ATOM      5  C   UNL     1       1.854   8.713  17.682  0.00  0.00    +0.000 C 
ATOM      6  C   UNL     1       3.069   7.797  17.759  0.00  0.00    +0.000 C 
ENDROOT
BRANCH   4   7
ATOM      7  S   UNL     1      -0.014  10.169  18.904  0.00  0.00    +0.000 S 
ATOM      8  O   UNL     1      -0.650   9.862  17.639  0.00  0.00    +0.000 OA
ATOM      9  O   UNL     1      -0.726  10.008  20.153  0.00  0.00    +0.000 OA
BRANCH   7  10
ATOM     10  C   UNL     1       0.591  11.834  18.806  0.00  0.00    +0.000 A 
ATOM     11  C   UNL     1       1.958  12.052  18.618  0.00  0.00    +0.000 A 
ATOM     12  C   UNL     1       2.443  13.359  18.563  0.00  0.00    +0.000 A 
ATOM     13  C   UNL     1       1.562  14.438  18.668  0.00  0.00    +0.000 A 
ATOM     14  C   UNL     1       0.193  14.215  18.829  0.00  0.00    +0.000 A 
ATOM     15  C   UNL     1      -0.298  12.910  18.903  0.00  0.00    +0.000 A 
ENDBRANCH   7  10
ENDBRANCH   4   7
BRANCH   1  16
ATOM     16  C   UNL     1       1.797   5.585  18.236  0.00  0.00    +0.000 C 
BRANCH  16  17
ATOM     17  N   UNL     1       2.463   4.442  17.579  0.00  0.00    +0.000 NA
ATOM     18  H   UNL     1       1.859   3.785  17.095  0.00  0.00    +0.000 HD
BRANCH  17  20
ATOM     19  O   UNL     1       3.201   3.598  19.854  0.00  0.00    +0.000 OA
ATOM     20  S   UNL     1       3.574   3.512  18.465  0.00  0.00    +0.000 S 
ATOM     21  O   UNL     1       3.643   2.243  17.770  0.00  0.00    +0.000 OA
BRANCH  20  22
ATOM     22  C   UNL     1       5.134   4.320  18.228  0.00  0.00    +0.000 A 
ATOM     23  C   UNL     1       5.673   4.410  16.941  0.00  0.00    +0.000 A 
ATOM     24  C   UNL     1       6.893   5.061  16.745  0.00  0.00    +0.000 A 
ATOM     25  C   UNL     1       7.559   5.636  17.828  0.00  0.00    +0.000 A 
ATOM     26  C   UNL     1       7.002   5.571  19.109  0.00  0.00    +0.000 A 
ATOM     27  C   UNL     1       5.784   4.918  19.312  0.00  0.00    +0.000 A 
ENDBRANCH  20  22
ENDBRANCH  17  20
ENDBRANCH  16  17
ENDBRANCH   1  16
TORSDOF 6
ENDMDL
