MODEL 1
REMARK VINA RESULT:      -8.2      0.000      0.000
REMARK  Name = 
REMARK  4 active torsions:
REMARK  status: ('A' for Active; 'I' for Inactive)
REMARK    1  A    between atoms: C_1  and  C_2
REMARK    2  A    between atoms: C_5  and  C_6
REMARK    3  A    between atoms: N_14  and  C_15
REMARK    4  A    between atoms: C_15  and  C_16
REMARK                            x       y       z     vdW  Elec       q    Type
REMARK                         _______ _______ _______ _____ _____    ______ ____
ROOT
ATOM      1  C   UNL     1       3.368   6.933  17.952  0.00  0.00    +0.000 A 
ATOM      2  N   UNL     1       4.655   7.218  17.802  0.00  0.00    +0.000 NA
ATOM      3  C   UNL     1       5.228   6.133  17.199  0.00  0.00    +0.000 A 
ATOM      4  C   UNL     1       6.565   5.945  16.816  0.00  0.00    +0.000 A 
ATOM      5  C   UNL     1       6.935   4.737  16.217  0.00  0.00    +0.000 A 
ATOM      6  C   UNL     1       5.986   3.734  16.015  0.00  0.00    +0.000 A 
ATOM      7  C   UNL     1       4.648   3.905  16.393  0.00  0.00    +0.000 A 
ATOM      8  C   UNL     1       4.289   5.129  16.984  0.00  0.00    +0.000 A 
ATOM      9  N   UNL     1       3.104   5.660  17.459  0.00  0.00    +0.000 N 
ENDROOT
BRANCH   1  14
ATOM     10  C   UNL     1      -0.343  10.429  20.550  0.00  0.00    +0.000 C 
ATOM     11  C   UNL     1       0.620   9.559  19.817  0.00  0.00    +0.000 A 
ATOM     12  C   UNL     1       0.901   9.728  18.461  0.00  0.00    +0.000 A 
ATOM     13  C   UNL     1       1.799   8.866  17.831  0.00  0.00    +0.000 A 
ATOM     14  C   UNL     1       2.406   7.860  18.572  0.00  0.00    +0.000 A 
ATOM     15  N   UNL     1       2.151   7.684  19.892  0.00  0.00    +0.000 NA
ATOM     16  C   UNL     1       1.274   8.522  20.474  0.00  0.00    +0.000 A 
ENDBRANCH   1  14
BRANCH   9  17
ATOM     17  C   UNL     1       1.828   4.946  17.527  0.00  0.00    +0.000 C 
BRANCH  17  18
ATOM     18  C   UNL     1       1.947   3.541  18.111  0.00  0.00    +0.000 C 
ATOM     19  O   UNL     1       2.111   2.544  17.404  0.00  0.00    +0.000 OA
ATOM     20  N   UNL     1       1.905   3.431  19.496  0.00  0.00    +0.000 N 
ATOM     21  C   UNL     1       1.907   2.137  20.152  0.00  0.00    +0.000 C 
ATOM     22  C   UNL     1       1.605   2.468  21.603  0.00  0.00    +0.000 C 
ATOM     23  C   UNL     1       2.291   3.815  21.809  0.00  0.00    +0.000 C 
ATOM     24  C   UNL     1       2.299   4.472  20.428  0.00  0.00    +0.000 C 
ENDBRANCH  17  18
ENDBRANCH   9  17
TORSDOF 3
ENDMDL
MODEL 2
REMARK VINA RESULT:      -7.9      1.760      6.336
REMARK  Name = 
REMARK  4 active torsions:
REMARK  status: ('A' for Active; 'I' for Inactive)
REMARK    1  A    between atoms: C_1  and  C_2
REMARK    2  A    between atoms: C_5  and  C_6
REMARK    3  A    between atoms: N_14  and  C_15
REMARK    4  A    between atoms: C_15  and  C_16
REMARK                            x       y       z     vdW  Elec       q    Type
REMARK                         _______ _______ _______ _____ _____    ______ ____
ROOT
ATOM      1  C   UNL     1       4.275   4.040  17.679  0.00  0.00    +0.000 A 
ATOM      2  N   UNL     1       3.748   2.842  17.897  0.00  0.00    +0.000 NA
ATOM      3  C   UNL     1       2.925   2.969  18.981  0.00  0.00    +0.000 A 
ATOM      4  C   UNL     1       2.129   1.993  19.600  0.00  0.00    +0.000 A 
ATOM      5  C   UNL     1       1.365   2.347  20.715  0.00  0.00    +0.000 A 
ATOM      6  C   UNL     1       1.405   3.653  21.207  0.00  0.00    +0.000 A 
ATOM      7  C   UNL     1       2.194   4.640  20.602  0.00  0.00    +0.000 A 
ATOM      8  C   UNL     1       2.949   4.270  19.475  0.00  0.00    +0.000 A 
ATOM      9  N   UNL     1       3.806   4.945  18.625  0.00  0.00    +0.000 N 
ENDROOT
BRANCH   1  14
ATOM     10  C   UNL     1       7.810   5.076  13.299  0.00  0.00    +0.000 C 
ATOM     11  C   UNL     1       6.939   4.824  14.483  0.00  0.00    +0.000 A 
ATOM     12  C   UNL     1       7.429   4.844  15.789  0.00  0.00    +0.000 A 
ATOM     13  C   UNL     1       6.564   4.581  16.852  0.00  0.00    +0.000 A 
ATOM     14  C   UNL     1       5.226   4.314  16.588  0.00  0.00    +0.000 A 
ATOM     15  N   UNL     1       4.731   4.297  15.326  0.00  0.00    +0.000 NA
ATOM     16  C   UNL     1       5.587   4.545  14.318  0.00  0.00    +0.000 A 
ENDBRANCH   1  14
BRANCH   9  17
ATOM     17  C   UNL     1       4.224   6.338  18.781  0.00  0.00    +0.000 C 
BRANCH  17  18
ATOM     18  C   UNL     1       3.457   7.307  17.885  0.00  0.00    +0.000 C 
ATOM     19  O   UNL     1       3.565   7.295  16.656  0.00  0.00    +0.000 OA
ATOM     20  N   UNL     1       2.587   8.190  18.513  0.00  0.00    +0.000 N 
ATOM     21  C   UNL     1       1.886   9.219  17.769  0.00  0.00    +0.000 C 
ATOM     22  C   UNL     1       1.263  10.085  18.850  0.00  0.00    +0.000 C 
ATOM     23  C   UNL     1       0.920   9.085  19.950  0.00  0.00    +0.000 C 
ATOM     24  C   UNL     1       1.933   7.951  19.787  0.00  0.00    +0.000 C 
ENDBRANCH  17  18
ENDBRANCH   9  17
TORSDOF 3
ENDMDL
MODEL 3
REMARK VINA RESULT:      -7.9      1.751      4.614
REMARK  Name = 
REMARK  4 active torsions:
REMARK  status: ('A' for Active; 'I' for Inactive)
REMARK    1  A    between atoms: C_1  and  C_2
REMARK    2  A    between atoms: C_5  and  C_6
REMARK    3  A    between atoms: N_14  and  C_15
REMARK    4  A    between atoms: C_15  and  C_16
REMARK                            x       y       z     vdW  Elec       q    Type
REMARK                         _______ _______ _______ _____ _____    ______ ____
ROOT
ATOM      1  C   UNL     1       2.218   6.662  19.700  0.00  0.00    +0.000 A 
ATOM      2  N   UNL     1       1.766   6.002  20.758  0.00  0.00    +0.000 NA
ATOM      3  C   UNL     1       2.315   4.751  20.701  0.00  0.00    +0.000 A 
ATOM      4  C   UNL     1       2.157   3.680  21.595  0.00  0.00    +0.000 A 
ATOM      5  C   UNL     1       2.813   2.474  21.331  0.00  0.00    +0.000 A 
ATOM      6  C   UNL     1       3.602   2.340  20.188  0.00  0.00    +0.000 A 
ATOM      7  C   UNL     1       3.769   3.398  19.284  0.00  0.00    +0.000 A 
ATOM      8  C   UNL     1       3.113   4.608  19.570  0.00  0.00    +0.000 A 
ATOM      9  N   UNL     1       3.050   5.841  18.947  0.00  0.00    +0.000 N 
ENDROOT
BRANCH   1  14
ATOM     10  C   UNL     1       0.693  12.096  18.751  0.00  0.00    +0.000 C 
ATOM     11  C   UNL     1       1.124  10.681  18.938  0.00  0.00    +0.000 A 
ATOM     12  C   UNL     1       1.751   9.950  17.929  0.00  0.00    +0.000 A 
ATOM     13  C   UNL     1       2.111   8.622  18.163  0.00  0.00    +0.000 A 
ATOM     14  C   UNL     1       1.846   8.057  19.404  0.00  0.00    +0.000 A 
ATOM     15  N   UNL     1       1.244   8.754  20.399  0.00  0.00    +0.000 NA
ATOM     16  C   UNL     1       0.898  10.029  20.145  0.00  0.00    +0.000 A 
ENDBRANCH   1  14
BRANCH   9  17
ATOM     17  C   UNL     1       3.666   6.169  17.662  0.00  0.00    +0.000 C 
BRANCH  17  18
ATOM     18  C   UNL     1       5.171   5.920  17.627  0.00  0.00    +0.000 C 
ATOM     19  O   UNL     1       5.904   6.172  18.587  0.00  0.00    +0.000 OA
ATOM     20  N   UNL     1       5.688   5.350  16.470  0.00  0.00    +0.000 N 
ATOM     21  C   UNL     1       7.115   5.163  16.290  0.00  0.00    +0.000 C 
ATOM     22  C   UNL     1       7.245   4.758  14.832  0.00  0.00    +0.000 C 
ATOM     23  C   UNL     1       5.981   3.942  14.578  0.00  0.00    +0.000 C 
ATOM     24  C   UNL     1       4.947   4.496  15.559  0.00  0.00    +0.000 C 
ENDBRANCH  17  18
ENDBRANCH   9  17
TORSDOF 3
ENDMDL
MODEL 4
REMARK VINA RESULT:      -7.7      1.467      1.729
REMARK  Name = 
REMARK  4 active torsions:
REMARK  status: ('A' for Active; 'I' for Inactive)
REMARK    1  A    between atoms: C_1  and  C_2
REMARK    2  A    between atoms: C_5  and  C_6
REMARK    3  A    between atoms: N_14  and  C_15
REMARK    4  A    between atoms: C_15  and  C_16
REMARK                            x       y       z     vdW  Elec       q    Type
REMARK                         _______ _______ _______ _____ _____    ______ ____
ROOT
ATOM      1  C   UNL     1       3.779   6.877  17.689  0.00  0.00    +0.000 A 
ATOM      2  N   UNL     1       4.146   7.131  16.440  0.00  0.00    +0.000 NA
ATOM      3  C   UNL     1       5.078   6.188  16.107  0.00  0.00    +0.000 A 
ATOM      4  C   UNL     1       5.762   6.018  14.893  0.00  0.00    +0.000 A 
ATOM      5  C   UNL     1       6.690   4.980  14.777  0.00  0.00    +0.000 A 
ATOM      6  C   UNL     1       6.936   4.134  15.860  0.00  0.00    +0.000 A 
ATOM      7  C   UNL     1       6.263   4.290  17.079  0.00  0.00    +0.000 A 
ATOM      8  C   UNL     1       5.325   5.332  17.176  0.00  0.00    +0.000 A 
ATOM      9  N   UNL     1       4.479   5.778  18.175  0.00  0.00    +0.000 N 
ENDROOT
BRANCH   1  14
ATOM     10  C   UNL     1      -0.062   9.884  20.682  0.00  0.00    +0.000 C 
ATOM     11  C   UNL     1       0.935   9.148  19.852  0.00  0.00    +0.000 A 
ATOM     12  C   UNL     1       1.227   9.509  18.537  0.00  0.00    +0.000 A 
ATOM     13  C   UNL     1       2.157   8.765  17.809  0.00  0.00    +0.000 A 
ATOM     14  C   UNL     1       2.784   7.684  18.415  0.00  0.00    +0.000 A 
ATOM     15  N   UNL     1       2.519   7.323  19.695  0.00  0.00    +0.000 NA
ATOM     16  C   UNL     1       1.612   8.050  20.372  0.00  0.00    +0.000 A 
ENDBRANCH   1  14
BRANCH   9  17
ATOM     17  C   UNL     1       4.428   5.244  19.536  0.00  0.00    +0.000 C 
BRANCH  17  18
ATOM     18  C   UNL     1       4.123   3.750  19.593  0.00  0.00    +0.000 C 
ATOM     19  O   UNL     1       4.992   2.908  19.833  0.00  0.00    +0.000 OA
ATOM     20  N   UNL     1       2.800   3.371  19.403  0.00  0.00    +0.000 N 
ATOM     21  C   UNL     1       2.416   1.973  19.337  0.00  0.00    +0.000 C 
ATOM     22  C   UNL     1       0.968   2.019  18.880  0.00  0.00    +0.000 C 
ATOM     23  C   UNL     1       0.429   3.285  19.539  0.00  0.00    +0.000 C 
ATOM     24  C   UNL     1       1.644   4.200  19.694  0.00  0.00    +0.000 C 
ENDBRANCH  17  18
ENDBRANCH   9  17
TORSDOF 3
ENDMDL
MODEL 5
REMARK VINA RESULT:      -7.6      1.224      1.507
REMARK  Name = 
REMARK  4 active torsions:
REMARK  status: ('A' for Active; 'I' for Inactive)
REMARK    1  A    between atoms: C_1  and  C_2
REMARK    2  A    between atoms: C_5  and  C_6
REMARK    3  A    between atoms: N_14  and  C_15
REMARK    4  A    between atoms: C_15  and  C_16
REMARK                            x       y       z     vdW  Elec       q    Type
REMARK                         _______ _______ _______ _____ _____    ______ ____
ROOT
ATOM      1  C   UNL     1       3.321   7.033  17.882  0.00  0.00    +0.000 A 
ATOM      2  N   UNL     1       4.527   7.433  17.500  0.00  0.00    +0.000 NA
ATOM      3  C   UNL     1       5.131   6.352  16.922  0.00  0.00    +0.000 A 
ATOM      4  C   UNL     1       6.409   6.262  16.347  0.00  0.00    +0.000 A 
ATOM      5  C   UNL     1       6.830   5.039  15.818  0.00  0.00    +0.000 A 
ATOM      6  C   UNL     1       5.991   3.924  15.871  0.00  0.00    +0.000 A 
ATOM      7  C   UNL     1       4.713   3.997  16.441  0.00  0.00    +0.000 A 
ATOM      8  C   UNL     1       4.300   5.237  16.960  0.00  0.00    +0.000 A 
ATOM      9  N   UNL     1       3.143   5.691  17.566  0.00  0.00    +0.000 N 
ENDROOT
BRANCH   1  14
ATOM     10  C   UNL     1      -0.385  10.373  20.686  0.00  0.00    +0.000 C 
ATOM     11  C   UNL     1       0.573   9.543  19.900  0.00  0.00    +0.000 A 
ATOM     12  C   UNL     1       0.771   9.724  18.532  0.00  0.00    +0.000 A 
ATOM     13  C   UNL     1       1.669   8.900  17.852  0.00  0.00    +0.000 A 
ATOM     14  C   UNL     1       2.356   7.920  18.556  0.00  0.00    +0.000 A 
ATOM     15  N   UNL     1       2.182   7.733  19.888  0.00  0.00    +0.000 NA
ATOM     16  C   UNL     1       1.304   8.535  20.518  0.00  0.00    +0.000 A 
ENDBRANCH   1  14
BRANCH   9  17
ATOM     17  C   UNL     1       1.989   4.860  17.908  0.00  0.00    +0.000 C 
BRANCH  17  18
ATOM     18  C   UNL     1       2.042   4.299  19.327  0.00  0.00    +0.000 C 
ATOM     19  O   UNL     1       1.315   4.719  20.230  0.00  0.00    +0.000 OA
ATOM     20  N   UNL     1       2.925   3.251  19.555  0.00  0.00    +0.000 N 
ATOM     21  C   UNL     1       3.130   2.710  20.885  0.00  0.00    +0.000 C 
ATOM     22  C   UNL     1       4.323   1.785  20.719  0.00  0.00    +0.000 C 
ATOM     23  C   UNL     1       4.143   1.225  19.311  0.00  0.00    +0.000 C 
ATOM     24  C   UNL     1       3.375   2.305  18.549  0.00  0.00    +0.000 C 
ENDBRANCH  17  18
ENDBRANCH   9  17
TORSDOF 3
ENDMDL
MODEL 6
REMARK VINA RESULT:      -7.6      1.987      5.599
REMARK  Name = 
REMARK  4 active torsions:
REMARK  status: ('A' for Active; 'I' for Inactive)
REMARK    1  A    between atoms: C_1  and  C_2
REMARK    2  A    between atoms: C_5  and  C_6
REMARK    3  A    between atoms: N_14  and  C_15
REMARK    4  A    between atoms: C_15  and  C_16
REMARK                            x       y       z     vdW  Elec       q    Type
REMARK                         _______ _______ _______ _____ _____    ______ ____
ROOT
ATOM      1  C   UNL     1       4.373   4.966  18.408  0.00  0.00    +0.000 A 
ATOM      2  N   UNL     1       4.326   3.751  17.879  0.00  0.00    +0.000 NA
ATOM      3  C   UNL     1       3.132   3.205  18.260  0.00  0.00    +0.000 A 
ATOM      4  C   UNL     1       2.603   1.942  17.949  0.00  0.00    +0.000 A 
ATOM      5  C   UNL     1       1.353   1.585  18.461  0.00  0.00    +0.000 A 
ATOM      6  C   UNL     1       0.650   2.472  19.278  0.00  0.00    +0.000 A 
ATOM      7  C   UNL     1       1.164   3.736  19.600  0.00  0.00    +0.000 A 
ATOM      8  C   UNL     1       2.418   4.084  19.067  0.00  0.00    +0.000 A 
ATOM      9  N   UNL     1       3.218   5.209  19.143  0.00  0.00    +0.000 N 
ENDROOT
BRANCH   1  14
ATOM     10  C   UNL     1       8.688   8.630  17.564  0.00  0.00    +0.000 C 
ATOM     11  C   UNL     1       7.601   7.645  17.834  0.00  0.00    +0.000 A 
ATOM     12  C   UNL     1       7.771   6.559  18.692  0.00  0.00    +0.000 A 
ATOM     13  C   UNL     1       6.718   5.664  18.886  0.00  0.00    +0.000 A 
ATOM     14  C   UNL     1       5.515   5.879  18.226  0.00  0.00    +0.000 A 
ATOM     15  N   UNL     1       5.329   6.933  17.393  0.00  0.00    +0.000 NA
ATOM     16  C   UNL     1       6.362   7.776  17.215  0.00  0.00    +0.000 A 
ENDBRANCH   1  14
BRANCH   9  17
ATOM     17  C   UNL     1       2.934   6.393  19.953  0.00  0.00    +0.000 C 
BRANCH  17  18
ATOM     18  C   UNL     1       2.198   7.491  19.190  0.00  0.00    +0.000 C 
ATOM     19  O   UNL     1       2.108   7.493  17.960  0.00  0.00    +0.000 OA
ATOM     20  N   UNL     1       1.588   8.483  19.948  0.00  0.00    +0.000 N 
ATOM     21  C   UNL     1       0.950   9.627  19.324  0.00  0.00    +0.000 C 
ATOM     22  C   UNL     1       0.649  10.552  20.490  0.00  0.00    +0.000 C 
ATOM     23  C   UNL     1       0.330   9.592  21.632  0.00  0.00    +0.000 C 
ATOM     24  C   UNL     1       1.113   8.318  21.310  0.00  0.00    +0.000 C 
ENDBRANCH  17  18
ENDBRANCH   9  17
TORSDOF 3
ENDMDL
MODEL 7
REMARK VINA RESULT:      -7.3      5.752      8.723
REMARK  Name = 
REMARK  4 active torsions:
REMARK  status: ('A' for Active; 'I' for Inactive)
REMARK    1  A    between atoms: C_1  and  C_2
REMARK    2  A    between atoms: C_5  and  C_6
REMARK    3  A    between atoms: N_14  and  C_15
REMARK    4  A    between atoms: C_15  and  C_16
REMARK                            x       y       z     vdW  Elec       q    Type
REMARK                         _______ _______ _______ _____ _____    ______ ____
ROOT
ATOM      1  C   UNL     1      -0.688  11.760  22.362  0.00  0.00    +0.000 A 
ATOM      2  N   UNL     1      -0.197  10.654  22.907  0.00  0.00    +0.000 NA
ATOM      3  C   UNL     1       0.378   9.942  21.892  0.00  0.00    +0.000 A 
ATOM      4  C   UNL     1       1.044   8.707  21.951  0.00  0.00    +0.000 A 
ATOM      5  C   UNL     1       1.550   8.152  20.772  0.00  0.00    +0.000 A 
ATOM      6  C   UNL     1       1.383   8.816  19.556  0.00  0.00    +0.000 A 
ATOM      7  C   UNL     1       0.720  10.048  19.478  0.00  0.00    +0.000 A 
ATOM      8  C   UNL     1       0.227  10.598  20.674  0.00  0.00    +0.000 A 
ATOM      9  N   UNL     1      -0.446  11.764  20.993  0.00  0.00    +0.000 N 
ENDROOT
BRANCH   1  14
ATOM     10  C   UNL     1      -3.250  15.894  25.378  0.00  0.00    +0.000 C 
ATOM     11  C   UNL     1      -2.644  14.785  24.587  0.00  0.00    +0.000 A 
ATOM     12  C   UNL     1      -3.352  13.631  24.251  0.00  0.00    +0.000 A 
ATOM     13  C   UNL     1      -2.718  12.623  23.524  0.00  0.00    +0.000 A 
ATOM     14  C   UNL     1      -1.394  12.793  23.139  0.00  0.00    +0.000 A 
ATOM     15  N   UNL     1      -0.692  13.911  23.450  0.00  0.00    +0.000 NA
ATOM     16  C   UNL     1      -1.323  14.865  24.160  0.00  0.00    +0.000 A 
ENDBRANCH   1  14
BRANCH   9  17
ATOM     17  C   UNL     1      -0.912  12.759  20.028  0.00  0.00    +0.000 C 
BRANCH  17  18
ATOM     18  C   UNL     1      -2.387  12.611  19.665  0.00  0.00    +0.000 C 
ATOM     19  O   UNL     1      -3.280  13.205  20.273  0.00  0.00    +0.000 OA
ATOM     20  N   UNL     1      -2.687  11.799  18.577  0.00  0.00    +0.000 N 
ATOM     21  C   UNL     1      -4.059  11.508  18.207  0.00  0.00    +0.000 C 
ATOM     22  C   UNL     1      -3.926  10.418  17.157  0.00  0.00    +0.000 C 
ATOM     23  C   UNL     1      -2.637  10.785  16.429  0.00  0.00    +0.000 C 
ATOM     24  C   UNL     1      -1.795  11.534  17.463  0.00  0.00    +0.000 C 
ENDBRANCH  17  18
ENDBRANCH   9  17
TORSDOF 3
ENDMDL
MODEL 8
REMARK VINA RESULT:      -7.3      1.853      4.577
REMARK  Name = 
REMARK  4 active torsions:
REMARK  status: ('A' for Active; 'I' for Inactive)
REMARK    1  A    between atoms: C_1  and  C_2
REMARK    2  A    between atoms: C_5  and  C_6
REMARK    3  A    between atoms: N_14  and  C_15
REMARK    4  A    between atoms: C_15  and  C_16
REMARK                            x       y       z     vdW  Elec       q    Type
REMARK                         _______ _______ _______ _____ _____    ______ ____
ROOT
ATOM      1  C   UNL     1       1.927   6.225  20.103  0.00  0.00    +0.000 A 
ATOM      2  N   UNL     1       1.043   5.256  20.304  0.00  0.00    +0.000 NA
ATOM      3  C   UNL     1       1.665   4.085  19.971  0.00  0.00    +0.000 A 
ATOM      4  C   UNL     1       1.160   2.776  20.021  0.00  0.00    +0.000 A 
ATOM      5  C   UNL     1       1.979   1.717  19.619  0.00  0.00    +0.000 A 
ATOM      6  C   UNL     1       3.276   1.966  19.167  0.00  0.00    +0.000 A 
ATOM      7  C   UNL     1       3.796   3.266  19.110  0.00  0.00    +0.000 A 
ATOM      8  C   UNL     1       2.963   4.319  19.528  0.00  0.00    +0.000 A 
ATOM      9  N   UNL     1       3.119   5.689  19.629  0.00  0.00    +0.000 N 
ENDROOT
BRANCH   1  14
ATOM     10  C   UNL     1       0.781  11.784  20.836  0.00  0.00    +0.000 C 
ATOM     11  C   UNL     1       1.068  10.326  20.713  0.00  0.00    +0.000 A 
ATOM     12  C   UNL     1       1.169   9.486  21.822  0.00  0.00    +0.000 A 
ATOM     13  C   UNL     1       1.458   8.133  21.637  0.00  0.00    +0.000 A 
ATOM     14  C   UNL     1       1.630   7.647  20.347  0.00  0.00    +0.000 A 
ATOM     15  N   UNL     1       1.529   8.446  19.256  0.00  0.00    +0.000 NA
ATOM     16  C   UNL     1       1.259   9.748  19.462  0.00  0.00    +0.000 A 
ENDBRANCH   1  14
BRANCH   9  17
ATOM     17  C   UNL     1       4.301   6.437  19.199  0.00  0.00    +0.000 C 
BRANCH  17  18
ATOM     18  C   UNL     1       4.397   6.607  17.686  0.00  0.00    +0.000 C 
ATOM     19  O   UNL     1       3.728   7.442  17.072  0.00  0.00    +0.000 OA
ATOM     20  N   UNL     1       5.312   5.801  17.020  0.00  0.00    +0.000 N 
ATOM     21  C   UNL     1       5.413   5.807  15.573  0.00  0.00    +0.000 C 
ATOM     22  C   UNL     1       6.328   4.634  15.270  0.00  0.00    +0.000 C 
ATOM     23  C   UNL     1       7.298   4.628  16.448  0.00  0.00    +0.000 C 
ATOM     24  C   UNL     1       6.516   5.243  17.609  0.00  0.00    +0.000 C 
ENDBRANCH  17  18
ENDBRANCH   9  17
TORSDOF 3
ENDMDL
MODEL 9
REMARK VINA RESULT:      -7.2      4.612      7.443
REMARK  Name = 
REMARK  4 active torsions:
REMARK  status: ('A' for Active; 'I' for Inactive)
REMARK    1  A    between atoms: C_1  and  C_2
REMARK    2  A    between atoms: C_5  and  C_6
REMARK    3  A    between atoms: N_14  and  C_15
REMARK    4  A    between atoms: C_15  and  C_16
REMARK                            x       y       z     vdW  Elec       q    Type
REMARK                         _______ _______ _______ _____ _____    ______ ____
ROOT
ATOM      1  C   UNL     1       0.282  10.771  21.040  0.00  0.00    +0.000 A 
ATOM      2  N   UNL     1       0.691   9.596  21.503  0.00  0.00    +0.000 NA
ATOM      3  C   UNL     1       1.245   8.932  20.445  0.00  0.00    +0.000 A 
ATOM      4  C   UNL     1       1.832   7.657  20.417  0.00  0.00    +0.000 A 
ATOM      5  C   UNL     1       2.332   7.166  19.207  0.00  0.00    +0.000 A 
ATOM      6  C   UNL     1       2.236   7.934  18.045  0.00  0.00    +0.000 A 
ATOM      7  C   UNL     1       1.652   9.207  18.055  0.00  0.00    +0.000 A 
ATOM      8  C   UNL     1       1.164   9.691  19.282  0.00  0.00    +0.000 A 
ATOM      9  N   UNL     1       0.557  10.868  19.681  0.00  0.00    +0.000 N 
ENDROOT
BRANCH   1  14
ATOM     10  C   UNL     1      -2.123  14.837  24.270  0.00  0.00    +0.000 C 
ATOM     11  C   UNL     1      -1.553  13.739  23.438  0.00  0.00    +0.000 A 
ATOM     12  C   UNL     1      -2.154  12.484  23.341  0.00  0.00    +0.000 A 
ATOM     13  C   UNL     1      -1.557  11.494  22.560  0.00  0.00    +0.000 A 
ATOM     14  C   UNL     1      -0.378  11.782  21.885  0.00  0.00    +0.000 A 
ATOM     15  N   UNL     1       0.217  12.997  21.961  0.00  0.00    +0.000 NA
ATOM     16  C   UNL     1      -0.372  13.932  22.728  0.00  0.00    +0.000 A 
ENDBRANCH   1  14
BRANCH   9  17
ATOM     17  C   UNL     1       0.176  11.964  18.791  0.00  0.00    +0.000 C 
BRANCH  17  18
ATOM     18  C   UNL     1      -1.318  12.275  18.812  0.00  0.00    +0.000 C 
ATOM     19  O   UNL     1      -1.771  13.305  19.317  0.00  0.00    +0.000 OA
ATOM     20  N   UNL     1      -2.159  11.358  18.193  0.00  0.00    +0.000 N 
ATOM     21  C   UNL     1      -3.602  11.502  18.242  0.00  0.00    +0.000 C 
ATOM     22  C   UNL     1      -4.115  10.190  17.675  0.00  0.00    +0.000 C 
ATOM     23  C   UNL     1      -3.073   9.828  16.621  0.00  0.00    +0.000 C 
ATOM     24  C   UNL     1      -1.775  10.474  17.107  0.00  0.00    +0.000 C 
ENDBRANCH  17  18
ENDBRANCH   9  17
TORSDOF 3
ENDMDL
