MODEL 1
REMARK VINA RESULT:      -7.6      0.000      0.000
REMARK  Name = 
REMARK  9 active torsions:
REMARK  status: ('A' for Active; 'I' for Inactive)
REMARK    1  A    between atoms: C_1  and  O_2
REMARK    2  A    between atoms: O_2  and  C_3
REMARK    3  A    between atoms: C_3  and  C_5
REMARK    4  A    between atoms: C_7  and  C_8
REMARK    5  A    between atoms: C_8  and  C_9
REMARK    6  A    between atoms: C_8  and  C_10
REMARK    7  A    between atoms: C_8  and  C_11
REMARK    8  A    between atoms: C_13  and  N_14
REMARK    9  A    between atoms: N_17  and  C_18
REMARK                            x       y       z     vdW  Elec       q    Type
REMARK                         _______ _______ _______ _____ _____    ______ ____
ROOT
ATOM      1  C   UNL     1       6.103   4.971  16.395  0.00  0.00    +0.000 A 
ATOM      2  N   UNL     1       5.387   3.912  16.919  0.00  0.00    +0.000 N 
ATOM      3  C   UNL     1       4.697   4.278  18.046  0.00  0.00    +0.000 A 
ATOM      4  C   UNL     1       4.962   5.620  18.228  0.00  0.00    +0.000 A 
ATOM      5  C   UNL     1       5.850   6.067  17.208  0.00  0.00    +0.000 A 
ATOM      6  H   UNL     1       5.397   2.983  16.517  0.00  0.00    +0.000 HD
ENDROOT
BRANCH   5   7
ATOM      7  N   UNL     1       6.366   7.354  17.040  0.00  0.00    +0.000 N 
ATOM      8  C   UNL     1       7.474   7.806  17.749  0.00  0.00    +0.000 C 
ATOM      9  O   UNL     1       8.156   7.086  18.475  0.00  0.00    +0.000 OA
ATOM     10  N   UNL     1       7.710   9.164  17.579  0.00  0.00    +0.000 N 
ATOM     11  H   UNL     1       6.035   7.881  16.242  0.00  0.00    +0.000 HD
ATOM     12  H   UNL     1       6.938   9.709  17.226  0.00  0.00    +0.000 HD
BRANCH  10  13
ATOM     13  C   UNL     1       8.759   9.874  18.226  0.00  0.00    +0.000 A 
ATOM     14  C   UNL     1       8.944   9.866  19.615  0.00  0.00    +0.000 A 
ATOM     15  C   UNL     1       9.917  10.667  20.221  0.00  0.00    +0.000 A 
ATOM     16  C   UNL     1      10.735  11.468  19.434  0.00  0.00    +0.000 A 
ATOM     17 CL   UNL     1      11.893  12.497  20.181  0.00  0.00    +0.000 Cl
ATOM     18  C   UNL     1      10.608  11.446  18.047  0.00  0.00    +0.000 A 
ATOM     19  C   UNL     1       9.630  10.641  17.442  0.00  0.00    +0.000 A 
ENDBRANCH  10  13
ENDBRANCH   5   7
BRANCH   3  20
ATOM     20  C   UNL     1       3.848   3.304  18.841  0.00  0.00    +0.000 C 
ATOM     21  C   UNL     1       3.265   2.228  17.908  0.00  0.00    +0.000 C 
ATOM     22  C   UNL     1       4.689   2.602  19.928  0.00  0.00    +0.000 C 
ATOM     23  C   UNL     1       2.694   4.055  19.529  0.00  0.00    +0.000 C 
ENDBRANCH   3  20
BRANCH   1  24
ATOM     24  C   UNL     1       6.938   4.828  15.229  0.00  0.00    +0.000 C 
ATOM     25  O   UNL     1       7.809   5.610  14.871  0.00  0.00    +0.000 OA
BRANCH  24  27
ATOM     26  C   UNL     1       5.844   3.855  13.378  0.00  0.00    +0.000 C 
ATOM     27  O   UNL     1       6.594   3.677  14.579  0.00  0.00    +0.000 OA
ENDBRANCH  24  27
ENDBRANCH   1  24
TORSDOF 5
ENDMDL
MODEL 2
REMARK VINA RESULT:      -7.5      5.197      7.194
REMARK  Name = 
REMARK  9 active torsions:
REMARK  status: ('A' for Active; 'I' for Inactive)
REMARK    1  A    between atoms: C_1  and  O_2
REMARK    2  A    between atoms: O_2  and  C_3
REMARK    3  A    between atoms: C_3  and  C_5
REMARK    4  A    between atoms: C_7  and  C_8
REMARK    5  A    between atoms: C_8  and  C_9
REMARK    6  A    between atoms: C_8  and  C_10
REMARK    7  A    between atoms: C_8  and  C_11
REMARK    8  A    between atoms: C_13  and  N_14
REMARK    9  A    between atoms: N_17  and  C_18
REMARK                            x       y       z     vdW  Elec       q    Type
REMARK                         _______ _______ _______ _____ _____    ______ ____
ROOT
ATOM      1  C   UNL     1       3.385   4.593  17.937  0.00  0.00    +0.000 A 
ATOM      2  N   UNL     1       4.551   4.497  17.202  0.00  0.00    +0.000 N 
ATOM      3  C   UNL     1       5.525   5.329  17.691  0.00  0.00    +0.000 A 
ATOM      4  C   UNL     1       4.968   5.953  18.789  0.00  0.00    +0.000 A 
ATOM      5  C   UNL     1       3.624   5.511  18.950  0.00  0.00    +0.000 A 
ATOM      6  H   UNL     1       4.650   3.895  16.394  0.00  0.00    +0.000 HD
ENDROOT
BRANCH   5   7
ATOM      7  N   UNL     1       2.715   5.906  19.934  0.00  0.00    +0.000 N 
ATOM      8  C   UNL     1       2.135   7.170  19.943  0.00  0.00    +0.000 C 
ATOM      9  O   UNL     1       2.273   7.987  19.033  0.00  0.00    +0.000 OA
ATOM     10  N   UNL     1       1.413   7.429  21.100  0.00  0.00    +0.000 N 
ATOM     11  H   UNL     1       2.336   5.179  20.528  0.00  0.00    +0.000 HD
ATOM     12  H   UNL     1       1.613   6.836  21.891  0.00  0.00    +0.000 HD
BRANCH  10  13
ATOM     13  C   UNL     1       0.757   8.662  21.367  0.00  0.00    +0.000 A 
ATOM     14  C   UNL     1       0.809   9.760  20.497  0.00  0.00    +0.000 A 
ATOM     15  C   UNL     1       0.246  10.991  20.848  0.00  0.00    +0.000 A 
ATOM     16  C   UNL     1      -0.400  11.126  22.070  0.00  0.00    +0.000 A 
ATOM     17 CL   UNL     1      -1.043  12.654  22.530  0.00  0.00    +0.000 Cl
ATOM     18  C   UNL     1      -0.516  10.032  22.925  0.00  0.00    +0.000 A 
ATOM     19  C   UNL     1       0.050   8.797  22.568  0.00  0.00    +0.000 A 
ENDBRANCH  10  13
ENDBRANCH   5   7
BRANCH   3  20
ATOM     20  C   UNL     1       6.899   5.446  17.059  0.00  0.00    +0.000 C 
ATOM     21  C   UNL     1       7.884   4.491  17.757  0.00  0.00    +0.000 C 
ATOM     22  C   UNL     1       6.847   5.081  15.561  0.00  0.00    +0.000 C 
ATOM     23  C   UNL     1       7.417   6.889  17.191  0.00  0.00    +0.000 C 
ENDBRANCH   3  20
BRANCH   1  24
ATOM     24  C   UNL     1       2.203   3.842  17.597  0.00  0.00    +0.000 C 
ATOM     25  O   UNL     1       1.084   4.307  17.421  0.00  0.00    +0.000 OA
BRANCH  24  27
ATOM     26  C   UNL     1       2.723   1.854  18.757  0.00  0.00    +0.000 C 
ATOM     27  O   UNL     1       2.530   2.518  17.509  0.00  0.00    +0.000 OA
ENDBRANCH  24  27
ENDBRANCH   1  24
TORSDOF 5
ENDMDL
MODEL 3
REMARK VINA RESULT:      -7.4      5.376      7.352
REMARK  Name = 
REMARK  9 active torsions:
REMARK  status: ('A' for Active; 'I' for Inactive)
REMARK    1  A    between atoms: C_1  and  O_2
REMARK    2  A    between atoms: O_2  and  C_3
REMARK    3  A    between atoms: C_3  and  C_5
REMARK    4  A    between atoms: C_7  and  C_8
REMARK    5  A    between atoms: C_8  and  C_9
REMARK    6  A    between atoms: C_8  and  C_10
REMARK    7  A    between atoms: C_8  and  C_11
REMARK    8  A    between atoms: C_13  and  N_14
REMARK    9  A    between atoms: N_17  and  C_18
REMARK                            x       y       z     vdW  Elec       q    Type
REMARK                         _______ _______ _______ _____ _____    ______ ____
ROOT
ATOM      1  C   UNL     1       3.211   4.701  18.164  0.00  0.00    +0.000 A 
ATOM      2  N   UNL     1       4.328   4.573  17.361  0.00  0.00    +0.000 N 
ATOM      3  C   UNL     1       5.336   5.412  17.762  0.00  0.00    +0.000 A 
ATOM      4  C   UNL     1       4.853   6.075  18.872  0.00  0.00    +0.000 A 
ATOM      5  C   UNL     1       3.519   5.649  19.130  0.00  0.00    +0.000 A 
ATOM      6  H   UNL     1       4.373   3.944  16.568  0.00  0.00    +0.000 HD
ENDROOT
BRANCH   5   7
ATOM      7  N   UNL     1       2.676   6.082  20.156  0.00  0.00    +0.000 N 
ATOM      8  C   UNL     1       2.042   7.320  20.121  0.00  0.00    +0.000 C 
ATOM      9  O   UNL     1       2.068   8.069  19.146  0.00  0.00    +0.000 OA
ATOM     10  N   UNL     1       1.405   7.638  21.313  0.00  0.00    +0.000 N 
ATOM     11  H   UNL     1       2.379   5.388  20.831  0.00  0.00    +0.000 HD
ATOM     12  H   UNL     1       1.695   7.115  22.126  0.00  0.00    +0.000 HD
BRANCH  10  13
ATOM     13  C   UNL     1       0.718   8.861  21.544  0.00  0.00    +0.000 A 
ATOM     14  C   UNL     1       0.843   9.978  20.707  0.00  0.00    +0.000 A 
ATOM     15  C   UNL     1       0.240  11.198  21.029  0.00  0.00    +0.000 A 
ATOM     16  C   UNL     1      -0.518  11.303  22.188  0.00  0.00    +0.000 A 
ATOM     17 CL   UNL     1      -1.212  12.817  22.618  0.00  0.00    +0.000 Cl
ATOM     18  C   UNL     1      -0.705  10.189  23.005  0.00  0.00    +0.000 A 
ATOM     19  C   UNL     1      -0.099   8.967  22.677  0.00  0.00    +0.000 A 
ENDBRANCH  10  13
ENDBRANCH   5   7
BRANCH   3  20
ATOM     20  C   UNL     1       6.668   5.497  17.041  0.00  0.00    +0.000 C 
ATOM     21  C   UNL     1       7.262   6.909  17.194  0.00  0.00    +0.000 C 
ATOM     22  C   UNL     1       7.673   4.481  17.623  0.00  0.00    +0.000 C 
ATOM     23  C   UNL     1       6.477   5.190  15.545  0.00  0.00    +0.000 C 
ENDBRANCH   3  20
BRANCH   1  24
ATOM     24  C   UNL     1       2.005   3.950  17.922  0.00  0.00    +0.000 C 
ATOM     25  O   UNL     1       1.042   4.330  17.268  0.00  0.00    +0.000 OA
BRANCH  24  27
ATOM     26  C   UNL     1       1.380   2.629  19.776  0.00  0.00    +0.000 C 
ATOM     27  O   UNL     1       2.105   2.741  18.551  0.00  0.00    +0.000 OA
ENDBRANCH  24  27
ENDBRANCH   1  24
TORSDOF 5
ENDMDL
MODEL 4
REMARK VINA RESULT:      -7.4      5.380      7.350
REMARK  Name = 
REMARK  9 active torsions:
REMARK  status: ('A' for Active; 'I' for Inactive)
REMARK    1  A    between atoms: C_1  and  O_2
REMARK    2  A    between atoms: O_2  and  C_3
REMARK    3  A    between atoms: C_3  and  C_5
REMARK    4  A    between atoms: C_7  and  C_8
REMARK    5  A    between atoms: C_8  and  C_9
REMARK    6  A    between atoms: C_8  and  C_10
REMARK    7  A    between atoms: C_8  and  C_11
REMARK    8  A    between atoms: C_13  and  N_14
REMARK    9  A    between atoms: N_17  and  C_18
REMARK                            x       y       z     vdW  Elec       q    Type
REMARK                         _______ _______ _______ _____ _____    ______ ____
ROOT
ATOM      1  C   UNL     1       3.279   4.626  18.165  0.00  0.00    +0.000 A 
ATOM      2  N   UNL     1       4.402   4.482  17.374  0.00  0.00    +0.000 N 
ATOM      3  C   UNL     1       5.416   5.310  17.782  0.00  0.00    +0.000 A 
ATOM      4  C   UNL     1       4.931   5.981  18.886  0.00  0.00    +0.000 A 
ATOM      5  C   UNL     1       3.589   5.572  19.132  0.00  0.00    +0.000 A 
ATOM      6  H   UNL     1       4.446   3.851  16.583  0.00  0.00    +0.000 HD
ENDROOT
BRANCH   5   7
ATOM      7  N   UNL     1       2.742   6.019  20.149  0.00  0.00    +0.000 N 
ATOM      8  C   UNL     1       2.075   7.237  20.076  0.00  0.00    +0.000 C 
ATOM      9  O   UNL     1       2.074   7.952  19.076  0.00  0.00    +0.000 OA
ATOM     10  N   UNL     1       1.438   7.580  21.262  0.00  0.00    +0.000 N 
ATOM     11  H   UNL     1       2.469   5.342  20.850  0.00  0.00    +0.000 HD
ATOM     12  H   UNL     1       1.748   7.094  22.090  0.00  0.00    +0.000 HD
BRANCH  10  13
ATOM     13  C   UNL     1       0.720   8.791  21.455  0.00  0.00    +0.000 A 
ATOM     14  C   UNL     1       0.346   9.266  22.720  0.00  0.00    +0.000 A 
ATOM     15  C   UNL     1      -0.456  10.403  22.860  0.00  0.00    +0.000 A 
ATOM     16  C   UNL     1      -0.873  11.093  21.730  0.00  0.00    +0.000 A 
ATOM     17 CL   UNL     1      -1.907  12.457  21.896  0.00  0.00    +0.000 Cl
ATOM     18  C   UNL     1      -0.464  10.674  20.465  0.00  0.00    +0.000 A 
ATOM     19  C   UNL     1       0.342   9.532  20.328  0.00  0.00    +0.000 A 
ENDBRANCH  10  13
ENDBRANCH   5   7
BRANCH   3  20
ATOM     20  C   UNL     1       6.756   5.376  17.074  0.00  0.00    +0.000 C 
ATOM     21  C   UNL     1       7.771   4.456  17.777  0.00  0.00    +0.000 C 
ATOM     22  C   UNL     1       6.625   4.923  15.605  0.00  0.00    +0.000 C 
ATOM     23  C   UNL     1       7.288   6.820  17.092  0.00  0.00    +0.000 C 
ENDBRANCH   3  20
BRANCH   1  24
ATOM     24  C   UNL     1       2.066   3.890  17.914  0.00  0.00    +0.000 C 
ATOM     25  O   UNL     1       1.112   4.283  17.255  0.00  0.00    +0.000 OA
BRANCH  24  27
ATOM     26  C   UNL     1       1.405   2.569  19.755  0.00  0.00    +0.000 C 
ATOM     27  O   UNL     1       2.147   2.678  18.541  0.00  0.00    +0.000 OA
ENDBRANCH  24  27
ENDBRANCH   1  24
TORSDOF 5
ENDMDL
MODEL 5
REMARK VINA RESULT:      -7.3      6.818      8.287
REMARK  Name = 
REMARK  9 active torsions:
REMARK  status: ('A' for Active; 'I' for Inactive)
REMARK    1  A    between atoms: C_1  and  O_2
REMARK    2  A    between atoms: O_2  and  C_3
REMARK    3  A    between atoms: C_3  and  C_5
REMARK    4  A    between atoms: C_7  and  C_8
REMARK    5  A    between atoms: C_8  and  C_9
REMARK    6  A    between atoms: C_8  and  C_10
REMARK    7  A    between atoms: C_8  and  C_11
REMARK    8  A    between atoms: C_13  and  N_14
REMARK    9  A    between atoms: N_17  and  C_18
REMARK                            x       y       z     vdW  Elec       q    Type
REMARK                         _______ _______ _______ _____ _____    ______ ____
ROOT
ATOM      1  C   UNL     1       2.360   6.605  19.061  0.00  0.00    +0.000 A 
ATOM      2  N   UNL     1       2.326   5.241  18.841  0.00  0.00    +0.000 N 
ATOM      3  C   UNL     1       1.980   4.556  19.976  0.00  0.00    +0.000 A 
ATOM      4  C   UNL     1       1.760   5.517  20.942  0.00  0.00    +0.000 A 
ATOM      5  C   UNL     1       2.004   6.805  20.388  0.00  0.00    +0.000 A 
ATOM      6  H   UNL     1       2.550   4.818  17.949  0.00  0.00    +0.000 HD
ENDROOT
BRANCH   5   7
ATOM      7  N   UNL     1       1.902   8.039  21.035  0.00  0.00    +0.000 N 
ATOM      8  C   UNL     1       0.684   8.689  21.204  0.00  0.00    +0.000 C 
ATOM      9  O   UNL     1      -0.400   8.185  20.916  0.00  0.00    +0.000 OA
ATOM     10  N   UNL     1       0.820   9.979  21.699  0.00  0.00    +0.000 N 
ATOM     11  H   UNL     1       2.711   8.353  21.557  0.00  0.00    +0.000 HD
ATOM     12  H   UNL     1       1.735  10.395  21.610  0.00  0.00    +0.000 HD
BRANCH  10  13
ATOM     13  C   UNL     1      -0.271  10.862  21.923  0.00  0.00    +0.000 A 
ATOM     14  C   UNL     1      -1.025  10.862  23.104  0.00  0.00    +0.000 A 
ATOM     15  C   UNL     1      -2.160  11.667  23.241  0.00  0.00    +0.000 A 
ATOM     16  C   UNL     1      -2.538  12.503  22.199  0.00  0.00    +0.000 A 
ATOM     17 CL   UNL     1      -3.966  13.451  22.341  0.00  0.00    +0.000 Cl
ATOM     18  C   UNL     1      -1.769  12.564  21.038  0.00  0.00    +0.000 A 
ATOM     19  C   UNL     1      -0.630  11.754  20.904  0.00  0.00    +0.000 A 
ENDBRANCH  10  13
ENDBRANCH   5   7
BRANCH   3  20
ATOM     20  C   UNL     1       1.891   3.043  20.027  0.00  0.00    +0.000 C 
ATOM     21  C   UNL     1       1.557   2.580  21.457  0.00  0.00    +0.000 C 
ATOM     22  C   UNL     1       0.790   2.525  19.078  0.00  0.00    +0.000 C 
ATOM     23  C   UNL     1       3.233   2.423  19.597  0.00  0.00    +0.000 C 
ENDBRANCH   3  20
BRANCH   1  24
ATOM     24  C   UNL     1       2.734   7.538  18.028  0.00  0.00    +0.000 C 
ATOM     25  O   UNL     1       3.808   7.565  17.440  0.00  0.00    +0.000 OA
BRANCH  24  27
ATOM     26  C   UNL     1       2.025   9.785  17.895  0.00  0.00    +0.000 C 
ATOM     27  O   UNL     1       1.695   8.399  17.814  0.00  0.00    +0.000 OA
ENDBRANCH  24  27
ENDBRANCH   1  24
TORSDOF 5
ENDMDL
MODEL 6
REMARK VINA RESULT:      -7.3      5.331      7.361
REMARK  Name = 
REMARK  9 active torsions:
REMARK  status: ('A' for Active; 'I' for Inactive)
REMARK    1  A    between atoms: C_1  and  O_2
REMARK    2  A    between atoms: O_2  and  C_3
REMARK    3  A    between atoms: C_3  and  C_5
REMARK    4  A    between atoms: C_7  and  C_8
REMARK    5  A    between atoms: C_8  and  C_9
REMARK    6  A    between atoms: C_8  and  C_10
REMARK    7  A    between atoms: C_8  and  C_11
REMARK    8  A    between atoms: C_13  and  N_14
REMARK    9  A    between atoms: N_17  and  C_18
REMARK                            x       y       z     vdW  Elec       q    Type
REMARK                         _______ _______ _______ _____ _____    ______ ____
ROOT
ATOM      1  C   UNL     1       3.651   3.729  19.170  0.00  0.00    +0.000 A 
ATOM      2  N   UNL     1       4.599   3.535  18.183  0.00  0.00    +0.000 N 
ATOM      3  C   UNL     1       5.208   4.712  17.832  0.00  0.00    +0.000 A 
ATOM      4  C   UNL     1       4.649   5.680  18.641  0.00  0.00    +0.000 A 
ATOM      5  C   UNL     1       3.664   5.083  19.477  0.00  0.00    +0.000 A 
ATOM      6  H   UNL     1       4.793   2.631  17.770  0.00  0.00    +0.000 HD
ENDROOT
BRANCH   5   7
ATOM      7  N   UNL     1       2.865   5.718  20.431  0.00  0.00    +0.000 N 
ATOM      8  C   UNL     1       2.210   6.916  20.170  0.00  0.00    +0.000 C 
ATOM      9  O   UNL     1       2.175   7.443  19.059  0.00  0.00    +0.000 OA
ATOM     10  N   UNL     1       1.628   7.475  21.299  0.00  0.00    +0.000 N 
ATOM     11  H   UNL     1       2.614   5.181  21.251  0.00  0.00    +0.000 HD
ATOM     12  H   UNL     1       1.967   7.138  22.188  0.00  0.00    +0.000 HD
BRANCH  10  13
ATOM     13  C   UNL     1       0.933   8.715  21.303  0.00  0.00    +0.000 A 
ATOM     14  C   UNL     1       0.424   9.304  22.468  0.00  0.00    +0.000 A 
ATOM     15  C   UNL     1      -0.351  10.467  22.416  0.00  0.00    +0.000 A 
ATOM     16  C   UNL     1      -0.603  11.068  21.189  0.00  0.00    +0.000 A 
ATOM     17 CL   UNL     1      -1.604  12.465  21.115  0.00  0.00    +0.000 Cl
ATOM     18  C   UNL     1      -0.058  10.534  20.023  0.00  0.00    +0.000 A 
ATOM     19  C   UNL     1       0.720   9.367  20.081  0.00  0.00    +0.000 A 
ENDBRANCH  10  13
ENDBRANCH   5   7
BRANCH   3  20
ATOM     20  C   UNL     1       6.272   4.795  16.753  0.00  0.00    +0.000 C 
ATOM     21  C   UNL     1       5.993   3.752  15.656  0.00  0.00    +0.000 C 
ATOM     22  C   UNL     1       6.286   6.194  16.102  0.00  0.00    +0.000 C 
ATOM     23  C   UNL     1       7.660   4.528  17.363  0.00  0.00    +0.000 C 
ENDBRANCH   3  20
BRANCH   1  24
ATOM     24  C   UNL     1       2.848   2.648  19.682  0.00  0.00    +0.000 C 
ATOM     25  O   UNL     1       2.287   1.791  19.012  0.00  0.00    +0.000 OA
BRANCH  24  27
ATOM     26  C   UNL     1       1.502   2.653  21.621  0.00  0.00    +0.000 C 
ATOM     27  O   UNL     1       2.805   2.738  21.045  0.00  0.00    +0.000 OA
ENDBRANCH  24  27
ENDBRANCH   1  24
TORSDOF 5
ENDMDL
MODEL 7
REMARK VINA RESULT:      -7.2      5.228      7.267
REMARK  Name = 
REMARK  9 active torsions:
REMARK  status: ('A' for Active; 'I' for Inactive)
REMARK    1  A    between atoms: C_1  and  O_2
REMARK    2  A    between atoms: O_2  and  C_3
REMARK    3  A    between atoms: C_3  and  C_5
REMARK    4  A    between atoms: C_7  and  C_8
REMARK    5  A    between atoms: C_8  and  C_9
REMARK    6  A    between atoms: C_8  and  C_10
REMARK    7  A    between atoms: C_8  and  C_11
REMARK    8  A    between atoms: C_13  and  N_14
REMARK    9  A    between atoms: N_17  and  C_18
REMARK                            x       y       z     vdW  Elec       q    Type
REMARK                         _______ _______ _______ _____ _____    ______ ____
ROOT
ATOM      1  C   UNL     1       4.289   3.863  19.217  0.00  0.00    +0.000 A 
ATOM      2  N   UNL     1       5.057   3.709  18.079  0.00  0.00    +0.000 N 
ATOM      3  C   UNL     1       5.161   4.882  17.378  0.00  0.00    +0.000 A 
ATOM      4  C   UNL     1       4.458   5.819  18.109  0.00  0.00    +0.000 A 
ATOM      5  C   UNL     1       3.897   5.194  19.258  0.00  0.00    +0.000 A 
ATOM      6  H   UNL     1       5.470   2.826  17.804  0.00  0.00    +0.000 HD
ENDROOT
BRANCH   5   7
ATOM      7  N   UNL     1       3.111   5.791  20.247  0.00  0.00    +0.000 N 
ATOM      8  C   UNL     1       2.309   6.897  19.989  0.00  0.00    +0.000 C 
ATOM      9  O   UNL     1       2.127   7.356  18.863  0.00  0.00    +0.000 OA
ATOM     10  N   UNL     1       1.760   7.450  21.138  0.00  0.00    +0.000 N 
ATOM     11  H   UNL     1       2.987   5.274  21.109  0.00  0.00    +0.000 HD
ATOM     12  H   UNL     1       2.204   7.199  22.009  0.00  0.00    +0.000 HD
BRANCH  10  13
ATOM     13  C   UNL     1       0.934   8.607  21.145  0.00  0.00    +0.000 A 
ATOM     14  C   UNL     1       0.762   9.431  20.024  0.00  0.00    +0.000 A 
ATOM     15  C   UNL     1       0.033  10.622  20.104  0.00  0.00    +0.000 A 
ATOM     16  C   UNL     1      -0.556  10.987  21.307  0.00  0.00    +0.000 A 
ATOM     17 CL   UNL     1      -1.404  12.479  21.424  0.00  0.00    +0.000 Cl
ATOM     18  C   UNL     1      -0.448  10.153  22.419  0.00  0.00    +0.000 A 
ATOM     19  C   UNL     1       0.284   8.959  22.335  0.00  0.00    +0.000 A 
ENDBRANCH  10  13
ENDBRANCH   5   7
BRANCH   3  20
ATOM     20  C   UNL     1       5.926   4.993  16.073  0.00  0.00    +0.000 C 
ATOM     21  C   UNL     1       5.784   3.691  15.265  0.00  0.00    +0.000 C 
ATOM     22  C   UNL     1       5.386   6.158  15.217  0.00  0.00    +0.000 C 
ATOM     23  C   UNL     1       7.416   5.251  16.358  0.00  0.00    +0.000 C 
ENDBRANCH   3  20
BRANCH   1  24
ATOM     24  C   UNL     1       4.003   2.762  20.102  0.00  0.00    +0.000 C 
ATOM     25  O   UNL     1       4.812   1.936  20.505  0.00  0.00    +0.000 OA
BRANCH  24  27
ATOM     26  C   UNL     1       1.811   2.163  19.463  0.00  0.00    +0.000 C 
ATOM     27  O   UNL     1       2.673   2.783  20.416  0.00  0.00    +0.000 OA
ENDBRANCH  24  27
ENDBRANCH   1  24
TORSDOF 5
ENDMDL
MODEL 8
REMARK VINA RESULT:      -7.2      5.462      7.454
REMARK  Name = 
REMARK  9 active torsions:
REMARK  status: ('A' for Active; 'I' for Inactive)
REMARK    1  A    between atoms: C_1  and  O_2
REMARK    2  A    between atoms: O_2  and  C_3
REMARK    3  A    between atoms: C_3  and  C_5
REMARK    4  A    between atoms: C_7  and  C_8
REMARK    5  A    between atoms: C_8  and  C_9
REMARK    6  A    between atoms: C_8  and  C_10
REMARK    7  A    between atoms: C_8  and  C_11
REMARK    8  A    between atoms: C_13  and  N_14
REMARK    9  A    between atoms: N_17  and  C_18
REMARK                            x       y       z     vdW  Elec       q    Type
REMARK                         _______ _______ _______ _____ _____    ______ ____
ROOT
ATOM      1  C   UNL     1       3.271   4.123  18.863  0.00  0.00    +0.000 A 
ATOM      2  N   UNL     1       4.126   3.950  17.791  0.00  0.00    +0.000 N 
ATOM      3  C   UNL     1       4.825   5.097  17.514  0.00  0.00    +0.000 A 
ATOM      4  C   UNL     1       4.421   6.019  18.458  0.00  0.00    +0.000 A 
ATOM      5  C   UNL     1       3.440   5.428  19.304  0.00  0.00    +0.000 A 
ATOM      6  H   UNL     1       4.200   3.083  17.275  0.00  0.00    +0.000 HD
ENDROOT
BRANCH   5   7
ATOM      7  N   UNL     1       2.776   6.027  20.377  0.00  0.00    +0.000 N 
ATOM      8  C   UNL     1       2.037   7.196  20.231  0.00  0.00    +0.000 C 
ATOM      9  O   UNL     1       1.804   7.722  19.143  0.00  0.00    +0.000 OA
ATOM     10  N   UNL     1       1.616   7.728  21.443  0.00  0.00    +0.000 N 
ATOM     11  H   UNL     1       2.680   5.479  21.222  0.00  0.00    +0.000 HD
ATOM     12  H   UNL     1       2.105   7.405  22.264  0.00  0.00    +0.000 HD
BRANCH  10  13
ATOM     13  C   UNL     1       0.878   8.937  21.565  0.00  0.00    +0.000 A 
ATOM     14  C   UNL     1       0.955   9.979  20.630  0.00  0.00    +0.000 A 
ATOM     15  C   UNL     1       0.302  11.196  20.844  0.00  0.00    +0.000 A 
ATOM     16  C   UNL     1      -0.461  11.373  21.991  0.00  0.00    +0.000 A 
ATOM     17 CL   UNL     1      -1.219  12.889  22.286  0.00  0.00    +0.000 Cl
ATOM     18  C   UNL     1      -0.601  10.330  22.905  0.00  0.00    +0.000 A 
ATOM     19  C   UNL     1       0.057   9.110  22.687  0.00  0.00    +0.000 A 
ENDBRANCH  10  13
ENDBRANCH   5   7
BRANCH   3  20
ATOM     20  C   UNL     1       5.815   5.198  16.370  0.00  0.00    +0.000 C 
ATOM     21  C   UNL     1       5.311   6.206  15.322  0.00  0.00    +0.000 C 
ATOM     22  C   UNL     1       7.194   5.672  16.877  0.00  0.00    +0.000 C 
ATOM     23  C   UNL     1       5.990   3.821  15.703  0.00  0.00    +0.000 C 
ENDBRANCH   3  20
BRANCH   1  24
ATOM     24  C   UNL     1       2.400   3.072  19.324  0.00  0.00    +0.000 C 
ATOM     25  O   UNL     1       2.421   1.907  18.949  0.00  0.00    +0.000 OA
BRANCH  24  27
ATOM     26  C   UNL     1       1.371   2.808  21.432  0.00  0.00    +0.000 C 
ATOM     27  O   UNL     1       1.536   3.588  20.249  0.00  0.00    +0.000 OA
ENDBRANCH  24  27
ENDBRANCH   1  24
TORSDOF 5
ENDMDL
MODEL 9
REMARK VINA RESULT:      -7.2      5.332      7.271
REMARK  Name = 
REMARK  9 active torsions:
REMARK  status: ('A' for Active; 'I' for Inactive)
REMARK    1  A    between atoms: C_1  and  O_2
REMARK    2  A    between atoms: O_2  and  C_3
REMARK    3  A    between atoms: C_3  and  C_5
REMARK    4  A    between atoms: C_7  and  C_8
REMARK    5  A    between atoms: C_8  and  C_9
REMARK    6  A    between atoms: C_8  and  C_10
REMARK    7  A    between atoms: C_8  and  C_11
REMARK    8  A    between atoms: C_13  and  N_14
REMARK    9  A    between atoms: N_17  and  C_18
REMARK                            x       y       z     vdW  Elec       q    Type
REMARK                         _______ _______ _______ _____ _____    ______ ____
ROOT
ATOM      1  C   UNL     1       3.718   3.801  19.222  0.00  0.00    +0.000 A 
ATOM      2  N   UNL     1       4.557   3.540  18.155  0.00  0.00    +0.000 N 
ATOM      3  C   UNL     1       5.094   4.692  17.643  0.00  0.00    +0.000 A 
ATOM      4  C   UNL     1       4.602   5.716  18.426  0.00  0.00    +0.000 A 
ATOM      5  C   UNL     1       3.730   5.175  19.413  0.00  0.00    +0.000 A 
ATOM      6  H   UNL     1       4.728   2.607  17.800  0.00  0.00    +0.000 HD
ENDROOT
BRANCH   5   7
ATOM      7  N   UNL     1       3.024   5.876  20.394  0.00  0.00    +0.000 N 
ATOM      8  C   UNL     1       2.212   6.963  20.089  0.00  0.00    +0.000 C 
ATOM      9  O   UNL     1       1.950   7.314  18.939  0.00  0.00    +0.000 OA
ATOM     10  N   UNL     1       1.753   7.632  21.216  0.00  0.00    +0.000 N 
ATOM     11  H   UNL     1       2.961   5.447  21.309  0.00  0.00    +0.000 HD
ATOM     12  H   UNL     1       2.259   7.460  22.072  0.00  0.00    +0.000 HD
BRANCH  10  13
ATOM     13  C   UNL     1       0.938   8.796  21.170  0.00  0.00    +0.000 A 
ATOM     14  C   UNL     1       0.859   9.631  20.047  0.00  0.00    +0.000 A 
ATOM     15  C   UNL     1       0.134  10.826  20.081  0.00  0.00    +0.000 A 
ATOM     16  C   UNL     1      -0.541  11.186  21.240  0.00  0.00    +0.000 A 
ATOM     17 CL   UNL     1      -1.385  12.684  21.305  0.00  0.00    +0.000 Cl
ATOM     18  C   UNL     1      -0.525  10.343  22.350  0.00  0.00    +0.000 A 
ATOM     19  C   UNL     1       0.203   9.143  22.311  0.00  0.00    +0.000 A 
ENDBRANCH  10  13
ENDBRANCH   5   7
BRANCH   3  20
ATOM     20  C   UNL     1       6.031   4.701  16.450  0.00  0.00    +0.000 C 
ATOM     21  C   UNL     1       5.826   5.986  15.627  0.00  0.00    +0.000 C 
ATOM     22  C   UNL     1       7.504   4.646  16.907  0.00  0.00    +0.000 C 
ATOM     23  C   UNL     1       5.754   3.480  15.555  0.00  0.00    +0.000 C 
ENDBRANCH   3  20
BRANCH   1  24
ATOM     24  C   UNL     1       3.004   2.754  19.908  0.00  0.00    +0.000 C 
ATOM     25  O   UNL     1       2.978   2.578  21.119  0.00  0.00    +0.000 OA
BRANCH  24  27
ATOM     26  C   UNL     1       0.996   2.318  18.746  0.00  0.00    +0.000 C 
ATOM     27  O   UNL     1       2.362   1.979  18.983  0.00  0.00    +0.000 OA
ENDBRANCH  24  27
ENDBRANCH   1  24
TORSDOF 5
ENDMDL
