MODEL 1
REMARK VINA RESULT:      -8.9      0.000      0.000
REMARK  Name = 
REMARK  7 active torsions:
REMARK  status: ('A' for Active; 'I' for Inactive)
REMARK    1  A    between atoms: C_1  and  C_2
REMARK    2  A    between atoms: C_2  and  C_3
REMARK    3  A    between atoms: C_2  and  C_4
REMARK    4  A    between atoms: C_8  and  N_9
REMARK    5  A    between atoms: C_10  and  C_12
REMARK    6  A    between atoms: C_14  and  N_15
REMARK    7  A    between atoms: N_20  and  C_21
REMARK                            x       y       z     vdW  Elec       q    Type
REMARK                         _______ _______ _______ _____ _____    ______ ____
ROOT
ATOM      1  C   UNL     1       4.481   4.977  19.025  0.00  0.00    +0.000 C 
ATOM      2  C   UNL     1       4.940   3.536  19.366  0.00  0.00    +0.000 C 
ATOM      3  C   UNL     1       3.673   2.685  19.303  0.00  0.00    +0.000 C 
ATOM      4  C   UNL     1       2.625   3.678  19.805  0.00  0.00    +0.000 C 
ATOM      5  N   UNL     1       3.069   5.019  19.394  0.00  0.00    +0.000 N 
ATOM      6  C   UNL     1       2.236   6.059  19.754  0.00  0.00    +0.000 C 
ATOM      7  O   UNL     1       1.113   5.718  20.135  0.00  0.00    +0.000 OA
ATOM      8  N   UNL     1       2.664   7.387  19.668  0.00  0.00    +0.000 N 
ATOM      9  H   UNL     1       3.589   7.622  19.342  0.00  0.00    +0.000 HD
ENDROOT
BRANCH   8  10
ATOM     10  C   UNL     1       1.764   8.461  19.911  0.00  0.00    +0.000 A 
ATOM     11  C   UNL     1       1.268   9.258  18.882  0.00  0.00    +0.000 A 
ATOM     12  N   UNL     1       1.056  10.480  19.458  0.00  0.00    +0.000 N 
ATOM     13  C   UNL     1       1.563  11.695  19.003  0.00  0.00    +0.000 C 
ATOM     14  N   UNL     1       2.053  12.462  20.032  0.00  0.00    +0.000 N 
ATOM     15  O   UNL     1       1.743  11.917  17.821  0.00  0.00    +0.000 OA
ATOM     16  C   UNL     1       0.450  10.194  20.657  0.00  0.00    +0.000 A 
ATOM     17  C   UNL     1      -0.522  10.935  21.341  0.00  0.00    +0.000 A 
ATOM     18  C   UNL     1      -0.842  10.521  22.620  0.00  0.00    +0.000 A 
ATOM     19  C   UNL     1      -0.129   9.470  23.195  0.00  0.00    +0.000 A 
ATOM     20  C   UNL     1       0.840   8.718  22.465  0.00  0.00    +0.000 A 
ATOM     21  C   UNL     1       1.069   9.010  21.096  0.00  0.00    +0.000 A 
ATOM     22  H   UNL     1       2.240  12.024  20.930  0.00  0.00    +0.000 HD
ATOM     23  H   UNL     1       2.689  13.200  19.764  0.00  0.00    +0.000 HD
ENDBRANCH   8  10
BRANCH   1  25
ATOM     24  N   UNL     1       5.698   4.357  16.943  0.00  0.00    +0.000 N 
ATOM     25  C   UNL     1       4.828   5.248  17.551  0.00  0.00    +0.000 C 
ATOM     26  O   UNL     1       4.370   6.268  17.031  0.00  0.00    +0.000 OA
ATOM     27  H   UNL     1       6.103   3.635  17.532  0.00  0.00    +0.000 HD
BRANCH  24  32
ATOM     28  C   UNL     1       5.739   3.665  13.258  0.00  0.00    +0.000 A 
ATOM     29  C   UNL     1       6.827   4.449  12.861  0.00  0.00    +0.000 A 
ATOM     30  C   UNL     1       7.543   5.196  13.790  0.00  0.00    +0.000 A 
ATOM     31  C   UNL     1       7.178   5.157  15.135  0.00  0.00    +0.000 A 
ATOM     32  C   UNL     1       6.094   4.395  15.576  0.00  0.00    +0.000 A 
ATOM     33  C   UNL     1       5.370   3.657  14.622  0.00  0.00    +0.000 A 
BRANCH  28  35
ATOM     34  C   UNL     1       4.183   3.687  11.259  0.00  0.00    +0.000 C 
ATOM     35  C   UNL     1       4.993   2.822  12.232  0.00  0.00    +0.000 C 
ATOM     36  C   UNL     1       5.957   1.918  11.451  0.00  0.00    +0.000 C 
ENDBRANCH  28  35
ENDBRANCH  24  32
ENDBRANCH   1  25
BRANCH   3  37
ATOM     37  N   UNL     1       3.415   2.155  17.964  0.00  0.00    +0.000 NA
ATOM     38  H   UNL     1       4.257   1.837  17.492  0.00  0.00    +0.000 HD
ATOM     39  H   UNL     1       2.984   2.866  17.372  0.00  0.00    +0.000 HD
ENDBRANCH   3  37
TORSDOF 5
ENDMDL
MODEL 2
REMARK VINA RESULT:      -8.8      2.660      9.523
REMARK  Name = 
REMARK  7 active torsions:
REMARK  status: ('A' for Active; 'I' for Inactive)
REMARK    1  A    between atoms: C_1  and  C_2
REMARK    2  A    between atoms: C_2  and  C_3
REMARK    3  A    between atoms: C_2  and  C_4
REMARK    4  A    between atoms: C_8  and  N_9
REMARK    5  A    between atoms: C_10  and  C_12
REMARK    6  A    between atoms: C_14  and  N_15
REMARK    7  A    between atoms: N_20  and  C_21
REMARK                            x       y       z     vdW  Elec       q    Type
REMARK                         _______ _______ _______ _____ _____    ______ ____
ROOT
ATOM      1  C   UNL     1       0.691   9.532  19.041  0.00  0.00    +0.000 C 
ATOM      2  C   UNL     1      -0.419  10.057  19.988  0.00  0.00    +0.000 C 
ATOM      3  C   UNL     1       0.111   9.816  21.400  0.00  0.00    +0.000 C 
ATOM      4  C   UNL     1       0.900   8.521  21.203  0.00  0.00    +0.000 C 
ATOM      5  N   UNL     1       1.413   8.535  19.824  0.00  0.00    +0.000 N 
ATOM      6  C   UNL     1       2.167   7.438  19.458  0.00  0.00    +0.000 C 
ATOM      7  O   UNL     1       2.533   6.722  20.395  0.00  0.00    +0.000 OA
ATOM      8  N   UNL     1       2.482   7.195  18.118  0.00  0.00    +0.000 N 
ATOM      9  H   UNL     1       2.169   7.812  17.384  0.00  0.00    +0.000 HD
ENDROOT
BRANCH   8  10
ATOM     10  C   UNL     1       3.367   6.143  17.756  0.00  0.00    +0.000 A 
ATOM     11  C   UNL     1       2.918   4.844  17.527  0.00  0.00    +0.000 A 
ATOM     12  N   UNL     1       3.968   4.044  17.882  0.00  0.00    +0.000 N 
ATOM     13  C   UNL     1       3.918   2.988  18.790  0.00  0.00    +0.000 C 
ATOM     14  N   UNL     1       4.995   2.997  19.644  0.00  0.00    +0.000 N 
ATOM     15  O   UNL     1       2.923   2.304  18.929  0.00  0.00    +0.000 OA
ATOM     16  C   UNL     1       5.067   4.655  17.330  0.00  0.00    +0.000 A 
ATOM     17  C   UNL     1       6.225   4.062  16.811  0.00  0.00    +0.000 A 
ATOM     18  C   UNL     1       7.266   4.906  16.476  0.00  0.00    +0.000 A 
ATOM     19  C   UNL     1       7.158   6.268  16.755  0.00  0.00    +0.000 A 
ATOM     20  C   UNL     1       5.957   6.847  17.263  0.00  0.00    +0.000 A 
ATOM     21  C   UNL     1       4.812   6.032  17.458  0.00  0.00    +0.000 A 
ATOM     22  H   UNL     1       5.555   3.841  19.724  0.00  0.00    +0.000 HD
ATOM     23  H   UNL     1       4.884   2.463  20.494  0.00  0.00    +0.000 HD
ENDBRANCH   8  10
BRANCH   1  25
ATOM     24  N   UNL     1       1.118  11.986  19.023  0.00  0.00    +0.000 N 
ATOM     25  C   UNL     1       1.495  10.743  18.536  0.00  0.00    +0.000 C 
ATOM     26  O   UNL     1       2.367  10.542  17.689  0.00  0.00    +0.000 OA
ATOM     27  H   UNL     1       0.294  12.018  19.616  0.00  0.00    +0.000 HD
BRANCH  24  32
ATOM     28  C   UNL     1       1.665  15.663  18.535  0.00  0.00    +0.000 A 
ATOM     29  C   UNL     1       3.017  15.677  18.179  0.00  0.00    +0.000 A 
ATOM     30  C   UNL     1       3.744  14.495  18.098  0.00  0.00    +0.000 A 
ATOM     31  C   UNL     1       3.117  13.279  18.365  0.00  0.00    +0.000 A 
ATOM     32  C   UNL     1       1.770  13.217  18.731  0.00  0.00    +0.000 A 
ATOM     33  C   UNL     1       1.052  14.424  18.824  0.00  0.00    +0.000 A 
BRANCH  28  35
ATOM     34  C   UNL     1       1.278  17.917  17.446  0.00  0.00    +0.000 C 
ATOM     35  C   UNL     1       0.875  16.964  18.578  0.00  0.00    +0.000 C 
ATOM     36  C   UNL     1      -0.635  16.697  18.526  0.00  0.00    +0.000 C 
ENDBRANCH  28  35
ENDBRANCH  24  32
ENDBRANCH   1  25
BRANCH   3  37
ATOM     37  N   UNL     1       0.903  10.938  21.906  0.00  0.00    +0.000 NA
ATOM     38  H   UNL     1       0.344  11.763  22.104  0.00  0.00    +0.000 HD
ATOM     39  H   UNL     1       1.617  11.209  21.228  0.00  0.00    +0.000 HD
ENDBRANCH   3  37
TORSDOF 5
ENDMDL
MODEL 3
REMARK VINA RESULT:      -8.8      2.868      9.511
REMARK  Name = 
REMARK  7 active torsions:
REMARK  status: ('A' for Active; 'I' for Inactive)
REMARK    1  A    between atoms: C_1  and  C_2
REMARK    2  A    between atoms: C_2  and  C_3
REMARK    3  A    between atoms: C_2  and  C_4
REMARK    4  A    between atoms: C_8  and  N_9
REMARK    5  A    between atoms: C_10  and  C_12
REMARK    6  A    between atoms: C_14  and  N_15
REMARK    7  A    between atoms: N_20  and  C_21
REMARK                            x       y       z     vdW  Elec       q    Type
REMARK                         _______ _______ _______ _____ _____    ______ ____
ROOT
ATOM      1  C   UNL     1       0.379  10.180  19.078  0.00  0.00    +0.000 C 
ATOM      2  C   UNL     1      -0.791  10.789  19.892  0.00  0.00    +0.000 C 
ATOM      3  C   UNL     1      -0.422  10.562  21.357  0.00  0.00    +0.000 C 
ATOM      4  C   UNL     1       0.310   9.223  21.273  0.00  0.00    +0.000 C 
ATOM      5  N   UNL     1       0.962   9.169  19.955  0.00  0.00    +0.000 N 
ATOM      6  C   UNL     1       1.688   8.024  19.696  0.00  0.00    +0.000 C 
ATOM      7  O   UNL     1       1.916   7.319  20.682  0.00  0.00    +0.000 OA
ATOM      8  N   UNL     1       2.124   7.726  18.402  0.00  0.00    +0.000 N 
ATOM      9  H   UNL     1       1.922   8.336  17.625  0.00  0.00    +0.000 HD
ENDROOT
BRANCH   8  10
ATOM     10  C   UNL     1       2.983   6.619  18.158  0.00  0.00    +0.000 A 
ATOM     11  C   UNL     1       4.371   6.735  18.203  0.00  0.00    +0.000 A 
ATOM     12  N   UNL     1       4.828   5.801  17.315  0.00  0.00    +0.000 N 
ATOM     13  C   UNL     1       5.696   6.042  16.252  0.00  0.00    +0.000 C 
ATOM     14  N   UNL     1       5.288   5.405  15.105  0.00  0.00    +0.000 N 
ATOM     15  O   UNL     1       6.563   6.892  16.308  0.00  0.00    +0.000 OA
ATOM     16  C   UNL     1       4.076   4.682  17.577  0.00  0.00    +0.000 A 
ATOM     17  C   UNL     1       4.457   3.337  17.493  0.00  0.00    +0.000 A 
ATOM     18  C   UNL     1       3.460   2.391  17.638  0.00  0.00    +0.000 A 
ATOM     19  C   UNL     1       2.135   2.810  17.759  0.00  0.00    +0.000 A 
ATOM     20  C   UNL     1       1.779   4.188  17.866  0.00  0.00    +0.000 A 
ATOM     21  C   UNL     1       2.798   5.176  17.891  0.00  0.00    +0.000 A 
ATOM     22  H   UNL     1       4.334   5.059  15.043  0.00  0.00    +0.000 HD
ATOM     23  H   UNL     1       5.682   5.759  14.244  0.00  0.00    +0.000 HD
ENDBRANCH   8  10
BRANCH   1  25
ATOM     24  N   UNL     1       0.882  12.615  18.950  0.00  0.00    +0.000 N 
ATOM     25  C   UNL     1       1.296  11.331  18.631  0.00  0.00    +0.000 C 
ATOM     26  O   UNL     1       2.293  11.047  17.964  0.00  0.00    +0.000 OA
ATOM     27  H   UNL     1      -0.030  12.710  19.388  0.00  0.00    +0.000 HD
BRANCH  24  32
ATOM     28  C   UNL     1       1.623  16.235  18.311  0.00  0.00    +0.000 A 
ATOM     29  C   UNL     1       3.014  16.192  18.174  0.00  0.00    +0.000 A 
ATOM     30  C   UNL     1       3.704  14.991  18.288  0.00  0.00    +0.000 A 
ATOM     31  C   UNL     1       3.001  13.812  18.533  0.00  0.00    +0.000 A 
ATOM     32  C   UNL     1       1.613  13.807  18.684  0.00  0.00    +0.000 A 
ATOM     33  C   UNL     1       0.930  15.034  18.582  0.00  0.00    +0.000 A 
BRANCH  28  35
ATOM     34  C   UNL     1       1.266  18.266  16.840  0.00  0.00    +0.000 C 
ATOM     35  C   UNL     1       0.881  17.554  18.142  0.00  0.00    +0.000 C 
ATOM     36  C   UNL     1      -0.639  17.345  18.195  0.00  0.00    +0.000 C 
ENDBRANCH  28  35
ENDBRANCH  24  32
ENDBRANCH   1  25
BRANCH   3  37
ATOM     37  N   UNL     1       0.375  11.656  21.915  0.00  0.00    +0.000 NA
ATOM     38  H   UNL     1      -0.180  12.475  22.147  0.00  0.00    +0.000 HD
ATOM     39  H   UNL     1       1.093  11.952  21.252  0.00  0.00    +0.000 HD
ENDBRANCH   3  37
TORSDOF 5
ENDMDL
MODEL 4
REMARK VINA RESULT:      -8.4      2.839      9.375
REMARK  Name = 
REMARK  7 active torsions:
REMARK  status: ('A' for Active; 'I' for Inactive)
REMARK    1  A    between atoms: C_1  and  C_2
REMARK    2  A    between atoms: C_2  and  C_3
REMARK    3  A    between atoms: C_2  and  C_4
REMARK    4  A    between atoms: C_8  and  N_9
REMARK    5  A    between atoms: C_10  and  C_12
REMARK    6  A    between atoms: C_14  and  N_15
REMARK    7  A    between atoms: N_20  and  C_21
REMARK                            x       y       z     vdW  Elec       q    Type
REMARK                         _______ _______ _______ _____ _____    ______ ____
ROOT
ATOM      1  C   UNL     1       0.663  10.414  18.901  0.00  0.00    +0.000 C 
ATOM      2  C   UNL     1      -0.541  11.095  19.600  0.00  0.00    +0.000 C 
ATOM      3  C   UNL     1      -0.384  10.765  21.084  0.00  0.00    +0.000 C 
ATOM      4  C   UNL     1       0.229   9.367  21.012  0.00  0.00    +0.000 C 
ATOM      5  N   UNL     1       1.036   9.312  19.782  0.00  0.00    +0.000 N 
ATOM      6  C   UNL     1       1.682   8.115  19.547  0.00  0.00    +0.000 C 
ATOM      7  O   UNL     1       1.719   7.345  20.510  0.00  0.00    +0.000 OA
ATOM      8  N   UNL     1       2.251   7.838  18.301  0.00  0.00    +0.000 N 
ATOM      9  H   UNL     1       2.206   8.500  17.542  0.00  0.00    +0.000 HD
ENDROOT
BRANCH   8  10
ATOM     10  C   UNL     1       3.030   6.665  18.099  0.00  0.00    +0.000 A 
ATOM     11  C   UNL     1       4.423   6.686  18.137  0.00  0.00    +0.000 A 
ATOM     12  N   UNL     1       4.810   5.689  17.285  0.00  0.00    +0.000 N 
ATOM     13  C   UNL     1       5.688   5.828  16.213  0.00  0.00    +0.000 C 
ATOM     14  N   UNL     1       5.233   5.177  15.092  0.00  0.00    +0.000 N 
ATOM     15  O   UNL     1       6.613   6.617  16.234  0.00  0.00    +0.000 OA
ATOM     16  C   UNL     1       3.984   4.636  17.593  0.00  0.00    +0.000 A 
ATOM     17  C   UNL     1       4.271   3.265  17.560  0.00  0.00    +0.000 A 
ATOM     18  C   UNL     1       3.211   2.397  17.743  0.00  0.00    +0.000 A 
ATOM     19  C   UNL     1       1.919   2.912  17.851  0.00  0.00    +0.000 A 
ATOM     20  C   UNL     1       1.660   4.314  17.904  0.00  0.00    +0.000 A 
ATOM     21  C   UNL     1       2.744   5.229  17.889  0.00  0.00    +0.000 A 
ATOM     22  H   UNL     1       4.257   4.896  15.045  0.00  0.00    +0.000 HD
ATOM     23  H   UNL     1       5.646   5.469  14.217  0.00  0.00    +0.000 HD
ENDBRANCH   8  10
BRANCH   1  25
ATOM     24  N   UNL     1       1.515  12.733  19.217  0.00  0.00    +0.000 N 
ATOM     25  C   UNL     1       1.730  11.491  18.638  0.00  0.00    +0.000 C 
ATOM     26  O   UNL     1       2.660  11.207  17.881  0.00  0.00    +0.000 OA
ATOM     27  H   UNL     1       0.636  12.866  19.709  0.00  0.00    +0.000 HD
BRANCH  24  32
ATOM     28  C   UNL     1       4.165  15.200  20.195  0.00  0.00    +0.000 A 
ATOM     29  C   UNL     1       4.202  16.004  19.052  0.00  0.00    +0.000 A 
ATOM     30  C   UNL     1       3.367  15.744  17.971  0.00  0.00    +0.000 A 
ATOM     31  C   UNL     1       2.475  14.674  18.029  0.00  0.00    +0.000 A 
ATOM     32  C   UNL     1       2.408  13.839  19.147  0.00  0.00    +0.000 A 
ATOM     33  C   UNL     1       3.271  14.106  20.227  0.00  0.00    +0.000 A 
BRANCH  28  35
ATOM     34  C   UNL     1       4.921  14.486  22.505  0.00  0.00    +0.000 C 
ATOM     35  C   UNL     1       5.057  15.525  21.385  0.00  0.00    +0.000 C 
ATOM     36  C   UNL     1       6.527  15.646  20.959  0.00  0.00    +0.000 C 
ENDBRANCH  28  35
ENDBRANCH  24  32
ENDBRANCH   1  25
BRANCH   3  37
ATOM     37  N   UNL     1       0.431  11.749  21.798  0.00  0.00    +0.000 NA
ATOM     38  H   UNL     1       1.337  11.385  22.082  0.00  0.00    +0.000 HD
ATOM     39  H   UNL     1      -0.046  12.068  22.642  0.00  0.00    +0.000 HD
ENDBRANCH   3  37
TORSDOF 5
ENDMDL
MODEL 5
REMARK VINA RESULT:      -8.4      2.862      9.235
REMARK  Name = 
REMARK  7 active torsions:
REMARK  status: ('A' for Active; 'I' for Inactive)
REMARK    1  A    between atoms: C_1  and  C_2
REMARK    2  A    between atoms: C_2  and  C_3
REMARK    3  A    between atoms: C_2  and  C_4
REMARK    4  A    between atoms: C_8  and  N_9
REMARK    5  A    between atoms: C_10  and  C_12
REMARK    6  A    between atoms: C_14  and  N_15
REMARK    7  A    between atoms: N_20  and  C_21
REMARK                            x       y       z     vdW  Elec       q    Type
REMARK                         _______ _______ _______ _____ _____    ______ ____
ROOT
ATOM      1  C   UNL     1       0.433  10.549  19.030  0.00  0.00    +0.000 C 
ATOM      2  C   UNL     1      -0.761  11.181  19.789  0.00  0.00    +0.000 C 
ATOM      3  C   UNL     1      -0.492  10.902  21.267  0.00  0.00    +0.000 C 
ATOM      4  C   UNL     1       0.194   9.538  21.188  0.00  0.00    +0.000 C 
ATOM      5  N   UNL     1       0.923   9.494  19.911  0.00  0.00    +0.000 N 
ATOM      6  C   UNL     1       1.620   8.329  19.663  0.00  0.00    +0.000 C 
ATOM      7  O   UNL     1       1.761   7.589  20.640  0.00  0.00    +0.000 OA
ATOM      8  N   UNL     1       2.124   8.049  18.390  0.00  0.00    +0.000 N 
ATOM      9  H   UNL     1       1.993   8.686  17.620  0.00  0.00    +0.000 HD
ENDROOT
BRANCH   8  10
ATOM     10  C   UNL     1       2.954   6.915  18.166  0.00  0.00    +0.000 A 
ATOM     11  C   UNL     1       4.343   6.989  18.245  0.00  0.00    +0.000 A 
ATOM     12  N   UNL     1       4.793   6.041  17.368  0.00  0.00    +0.000 N 
ATOM     13  C   UNL     1       5.695   6.256  16.328  0.00  0.00    +0.000 C 
ATOM     14  N   UNL     1       5.297   5.633  15.170  0.00  0.00    +0.000 N 
ATOM     15  O   UNL     1       6.586   7.079  16.406  0.00  0.00    +0.000 OA
ATOM     16  C   UNL     1       4.002   4.946  17.611  0.00  0.00    +0.000 A 
ATOM     17  C   UNL     1       4.343   3.590  17.534  0.00  0.00    +0.000 A 
ATOM     18  C   UNL     1       3.314   2.675  17.653  0.00  0.00    +0.000 A 
ATOM     19  C   UNL     1       2.000   3.135  17.742  0.00  0.00    +0.000 A 
ATOM     20  C   UNL     1       1.684   4.523  17.841  0.00  0.00    +0.000 A 
ATOM     21  C   UNL     1       2.731   5.479  17.893  0.00  0.00    +0.000 A 
ATOM     22  H   UNL     1       4.335   5.316  15.084  0.00  0.00    +0.000 HD
ATOM     23  H   UNL     1       5.722   5.975  14.320  0.00  0.00    +0.000 HD
ENDBRANCH   8  10
BRANCH   1  25
ATOM     24  N   UNL     1       1.065  12.958  19.066  0.00  0.00    +0.000 N 
ATOM     25  C   UNL     1       1.418  11.676  18.672  0.00  0.00    +0.000 C 
ATOM     26  O   UNL     1       2.412  11.381  18.005  0.00  0.00    +0.000 OA
ATOM     27  H   UNL     1       0.151  13.073  19.493  0.00  0.00    +0.000 HD
BRANCH  24  32
ATOM     28  C   UNL     1       4.085  15.171  18.849  0.00  0.00    +0.000 A 
ATOM     29  C   UNL     1       3.485  16.393  18.530  0.00  0.00    +0.000 A 
ATOM     30  C   UNL     1       2.106  16.494  18.388  0.00  0.00    +0.000 A 
ATOM     31  C   UNL     1       1.308  15.366  18.575  0.00  0.00    +0.000 A 
ATOM     32  C   UNL     1       1.863  14.123  18.888  0.00  0.00    +0.000 A 
ATOM     33  C   UNL     1       3.263  14.033  19.012  0.00  0.00    +0.000 A 
BRANCH  28  35
ATOM     34  C   UNL     1       6.302  14.569  17.783  0.00  0.00    +0.000 C 
ATOM     35  C   UNL     1       5.593  15.089  19.040  0.00  0.00    +0.000 C 
ATOM     36  C   UNL     1       6.175  16.450  19.445  0.00  0.00    +0.000 C 
ENDBRANCH  28  35
ENDBRANCH  24  32
ENDBRANCH   1  25
BRANCH   3  37
ATOM     37  N   UNL     1       0.310  11.948  21.903  0.00  0.00    +0.000 NA
ATOM     38  H   UNL     1       0.818  11.620  22.720  0.00  0.00    +0.000 HD
ATOM     39  H   UNL     1      -0.283  12.723  22.204  0.00  0.00    +0.000 HD
ENDBRANCH   3  37
TORSDOF 5
ENDMDL
MODEL 6
REMARK VINA RESULT:      -8.4      1.543      2.318
REMARK  Name = 
REMARK  7 active torsions:
REMARK  status: ('A' for Active; 'I' for Inactive)
REMARK    1  A    between atoms: C_1  and  C_2
REMARK    2  A    between atoms: C_2  and  C_3
REMARK    3  A    between atoms: C_2  and  C_4
REMARK    4  A    between atoms: C_8  and  N_9
REMARK    5  A    between atoms: C_10  and  C_12
REMARK    6  A    between atoms: C_14  and  N_15
REMARK    7  A    between atoms: N_20  and  C_21
REMARK                            x       y       z     vdW  Elec       q    Type
REMARK                         _______ _______ _______ _____ _____    ______ ____
ROOT
ATOM      1  C   UNL     1       4.124   4.601  19.189  0.00  0.00    +0.000 C 
ATOM      2  C   UNL     1       4.386   3.087  19.397  0.00  0.00    +0.000 C 
ATOM      3  C   UNL     1       3.023   2.417  19.237  0.00  0.00    +0.000 C 
ATOM      4  C   UNL     1       2.099   3.487  19.817  0.00  0.00    +0.000 C 
ATOM      5  N   UNL     1       2.721   4.792  19.542  0.00  0.00    +0.000 N 
ATOM      6  C   UNL     1       2.019   5.892  19.989  0.00  0.00    +0.000 C 
ATOM      7  O   UNL     1       0.853   5.667  20.321  0.00  0.00    +0.000 OA
ATOM      8  N   UNL     1       2.616   7.156  20.035  0.00  0.00    +0.000 N 
ATOM      9  H   UNL     1       3.571   7.298  19.745  0.00  0.00    +0.000 HD
ENDROOT
BRANCH   8  10
ATOM     10  C   UNL     1       1.855   8.310  20.368  0.00  0.00    +0.000 A 
ATOM     11  C   UNL     1       2.080   9.032  21.539  0.00  0.00    +0.000 A 
ATOM     12  N   UNL     1       0.860   9.558  21.865  0.00  0.00    +0.000 N 
ATOM     13  C   UNL     1       0.213   9.416  23.090  0.00  0.00    +0.000 C 
ATOM     14  N   UNL     1      -1.122   9.131  22.933  0.00  0.00    +0.000 N 
ATOM     15  O   UNL     1       0.825   9.335  24.137  0.00  0.00    +0.000 OA
ATOM     16  C   UNL     1       0.362  10.032  20.676  0.00  0.00    +0.000 A 
ATOM     17  C   UNL     1      -0.449  11.152  20.455  0.00  0.00    +0.000 A 
ATOM     18  C   UNL     1      -0.964  11.314  19.184  0.00  0.00    +0.000 A 
ATOM     19  C   UNL     1      -0.740  10.325  18.226  0.00  0.00    +0.000 A 
ATOM     20  C   UNL     1       0.110   9.205  18.472  0.00  0.00    +0.000 A 
ATOM     21  C   UNL     1       0.789   9.100  19.713  0.00  0.00    +0.000 A 
ATOM     22  H   UNL     1      -1.455   8.808  22.028  0.00  0.00    +0.000 HD
ATOM     23  H   UNL     1      -1.582   8.730  23.738  0.00  0.00    +0.000 HD
ENDBRANCH   8  10
BRANCH   1  25
ATOM     24  N   UNL     1       5.493   4.148  17.158  0.00  0.00    +0.000 N 
ATOM     25  C   UNL     1       4.540   4.961  17.752  0.00  0.00    +0.000 C 
ATOM     26  O   UNL     1       4.056   5.978  17.251  0.00  0.00    +0.000 OA
ATOM     27  H   UNL     1       5.904   3.421  17.738  0.00  0.00    +0.000 HD
BRANCH  24  32
ATOM     28  C   UNL     1       5.799   3.621  13.458  0.00  0.00    +0.000 A 
ATOM     29  C   UNL     1       6.849   4.494  13.160  0.00  0.00    +0.000 A 
ATOM     30  C   UNL     1       7.454   5.248  14.159  0.00  0.00    +0.000 A 
ATOM     31  C   UNL     1       7.015   5.126  15.477  0.00  0.00    +0.000 A 
ATOM     32  C   UNL     1       5.965   4.272  15.821  0.00  0.00    +0.000 A 
ATOM     33  C   UNL     1       5.352   3.528  14.795  0.00  0.00    +0.000 A 
BRANCH  28  35
ATOM     34  C   UNL     1       4.255   3.600  11.451  0.00  0.00    +0.000 C 
ATOM     35  C   UNL     1       5.176   2.774  12.357  0.00  0.00    +0.000 C 
ATOM     36  C   UNL     1       6.256   2.081  11.513  0.00  0.00    +0.000 C 
ENDBRANCH  28  35
ENDBRANCH  24  32
ENDBRANCH   1  25
BRANCH   3  37
ATOM     37  N   UNL     1       2.732   2.052  17.850  0.00  0.00    +0.000 NA
ATOM     38  H   UNL     1       2.913   2.806  17.193  0.00  0.00    +0.000 HD
ATOM     39  H   UNL     1       1.752   1.786  17.745  0.00  0.00    +0.000 HD
ENDBRANCH   3  37
TORSDOF 5
ENDMDL
MODEL 7
REMARK VINA RESULT:      -8.3      2.655      9.493
REMARK  Name = 
REMARK  7 active torsions:
REMARK  status: ('A' for Active; 'I' for Inactive)
REMARK    1  A    between atoms: C_1  and  C_2
REMARK    2  A    between atoms: C_2  and  C_3
REMARK    3  A    between atoms: C_2  and  C_4
REMARK    4  A    between atoms: C_8  and  N_9
REMARK    5  A    between atoms: C_10  and  C_12
REMARK    6  A    between atoms: C_14  and  N_15
REMARK    7  A    between atoms: N_20  and  C_21
REMARK                            x       y       z     vdW  Elec       q    Type
REMARK                         _______ _______ _______ _____ _____    ______ ____
ROOT
ATOM      1  C   UNL     1       0.730   9.558  19.158  0.00  0.00    +0.000 C 
ATOM      2  C   UNL     1      -0.427  10.051  20.064  0.00  0.00    +0.000 C 
ATOM      3  C   UNL     1      -0.010   9.680  21.486  0.00  0.00    +0.000 C 
ATOM      4  C   UNL     1       0.746   8.375  21.241  0.00  0.00    +0.000 C 
ATOM      5  N   UNL     1       1.359   8.475  19.907  0.00  0.00    +0.000 N 
ATOM      6  C   UNL     1       2.099   7.380  19.509  0.00  0.00    +0.000 C 
ATOM      7  O   UNL     1       2.371   6.580  20.409  0.00  0.00    +0.000 OA
ATOM      8  N   UNL     1       2.504   7.230  18.179  0.00  0.00    +0.000 N 
ATOM      9  H   UNL     1       2.267   7.914  17.477  0.00  0.00    +0.000 HD
ENDROOT
BRANCH   8  10
ATOM     10  C   UNL     1       3.377   6.174  17.797  0.00  0.00    +0.000 A 
ATOM     11  C   UNL     1       2.915   4.882  17.558  0.00  0.00    +0.000 A 
ATOM     12  N   UNL     1       3.962   4.069  17.895  0.00  0.00    +0.000 N 
ATOM     13  C   UNL     1       3.911   3.004  18.791  0.00  0.00    +0.000 C 
ATOM     14  N   UNL     1       4.996   2.994  19.634  0.00  0.00    +0.000 N 
ATOM     15  O   UNL     1       2.912   2.326  18.932  0.00  0.00    +0.000 OA
ATOM     16  C   UNL     1       5.060   4.677  17.339  0.00  0.00    +0.000 A 
ATOM     17  C   UNL     1       6.208   4.081  16.802  0.00  0.00    +0.000 A 
ATOM     18  C   UNL     1       7.253   4.920  16.466  0.00  0.00    +0.000 A 
ATOM     19  C   UNL     1       7.158   6.279  16.762  0.00  0.00    +0.000 A 
ATOM     20  C   UNL     1       5.967   6.863  17.288  0.00  0.00    +0.000 A 
ATOM     21  C   UNL     1       4.818   6.055  17.485  0.00  0.00    +0.000 A 
ATOM     22  H   UNL     1       5.564   3.833  19.719  0.00  0.00    +0.000 HD
ATOM     23  H   UNL     1       4.888   2.452  20.480  0.00  0.00    +0.000 HD
ENDBRANCH   8  10
BRANCH   1  25
ATOM     24  N   UNL     1       1.347  11.947  19.496  0.00  0.00    +0.000 N 
ATOM     25  C   UNL     1       1.611  10.771  18.810  0.00  0.00    +0.000 C 
ATOM     26  O   UNL     1       2.437  10.641  17.905  0.00  0.00    +0.000 OA
ATOM     27  H   UNL     1       0.547  11.946  20.122  0.00  0.00    +0.000 HD
BRANCH  24  32
ATOM     28  C   UNL     1       3.574  14.836  20.368  0.00  0.00    +0.000 A 
ATOM     29  C   UNL     1       3.569  15.538  19.159  0.00  0.00    +0.000 A 
ATOM     30  C   UNL     1       2.843  15.073  18.069  0.00  0.00    +0.000 A 
ATOM     31  C   UNL     1       2.103  13.897  18.183  0.00  0.00    +0.000 A 
ATOM     32  C   UNL     1       2.084  13.158  19.368  0.00  0.00    +0.000 A 
ATOM     33  C   UNL     1       2.837  13.633  20.458  0.00  0.00    +0.000 A 
BRANCH  28  35
ATOM     34  C   UNL     1       4.933  14.261  22.427  0.00  0.00    +0.000 C 
ATOM     35  C   UNL     1       4.342  15.382  21.564  0.00  0.00    +0.000 C 
ATOM     36  C   UNL     1       5.455  16.340  21.117  0.00  0.00    +0.000 C 
ENDBRANCH  28  35
ENDBRANCH  24  32
ENDBRANCH   1  25
BRANCH   3  37
ATOM     37  N   UNL     1       0.781  10.727  22.134  0.00  0.00    +0.000 NA
ATOM     38  H   UNL     1       0.242  11.283  22.793  0.00  0.00    +0.000 HD
ATOM     39  H   UNL     1       1.167  11.368  21.440  0.00  0.00    +0.000 HD
ENDBRANCH   3  37
TORSDOF 5
ENDMDL
MODEL 8
REMARK VINA RESULT:      -8.3      0.922      1.161
REMARK  Name = 
REMARK  7 active torsions:
REMARK  status: ('A' for Active; 'I' for Inactive)
REMARK    1  A    between atoms: C_1  and  C_2
REMARK    2  A    between atoms: C_2  and  C_3
REMARK    3  A    between atoms: C_2  and  C_4
REMARK    4  A    between atoms: C_8  and  N_9
REMARK    5  A    between atoms: C_10  and  C_12
REMARK    6  A    between atoms: C_14  and  N_15
REMARK    7  A    between atoms: N_20  and  C_21
REMARK                            x       y       z     vdW  Elec       q    Type
REMARK                         _______ _______ _______ _____ _____    ______ ____
ROOT
ATOM      1  C   UNL     1       5.008   5.219  18.173  0.00  0.00    +0.000 C 
ATOM      2  C   UNL     1       5.544   3.813  18.545  0.00  0.00    +0.000 C 
ATOM      3  C   UNL     1       4.325   2.893  18.503  0.00  0.00    +0.000 C 
ATOM      4  C   UNL     1       3.226   3.839  18.985  0.00  0.00    +0.000 C 
ATOM      5  N   UNL     1       3.596   5.193  18.544  0.00  0.00    +0.000 N 
ATOM      6  C   UNL     1       2.709   6.193  18.884  0.00  0.00    +0.000 C 
ATOM      7  O   UNL     1       1.606   5.801  19.274  0.00  0.00    +0.000 OA
ATOM      8  N   UNL     1       3.064   7.540  18.768  0.00  0.00    +0.000 N 
ATOM      9  H   UNL     1       3.975   7.818  18.435  0.00  0.00    +0.000 HD
ENDROOT
BRANCH   8  10
ATOM     10  C   UNL     1       2.107   8.569  18.990  0.00  0.00    +0.000 A 
ATOM     11  C   UNL     1       1.774   9.495  18.004  0.00  0.00    +0.000 A 
ATOM     12  N   UNL     1       1.434  10.628  18.689  0.00  0.00    +0.000 N 
ATOM     13  C   UNL     1       1.980  11.895  18.492  0.00  0.00    +0.000 C 
ATOM     14  N   UNL     1       2.265  12.520  19.682  0.00  0.00    +0.000 N 
ATOM     15  O   UNL     1       2.353  12.273  17.399  0.00  0.00    +0.000 OA
ATOM     16  C   UNL     1       0.639  10.183  19.716  0.00  0.00    +0.000 A 
ATOM     17  C   UNL     1      -0.454  10.822  20.313  0.00  0.00    +0.000 A 
ATOM     18  C   UNL     1      -0.978  10.240  21.451  0.00  0.00    +0.000 A 
ATOM     19  C   UNL     1      -0.347   9.124  21.999  0.00  0.00    +0.000 A 
ATOM     20  C   UNL     1       0.752   8.479  21.356  0.00  0.00    +0.000 A 
ATOM     21  C   UNL     1       1.205   8.953  20.098  0.00  0.00    +0.000 A 
ATOM     22  H   UNL     1       2.307  11.966  20.534  0.00  0.00    +0.000 HD
ATOM     23  H   UNL     1       2.918  13.289  19.628  0.00  0.00    +0.000 HD
ENDBRANCH   8  10
BRANCH   1  25
ATOM     24  N   UNL     1       6.223   4.595  16.091  0.00  0.00    +0.000 N 
ATOM     25  C   UNL     1       5.338   5.477  16.693  0.00  0.00    +0.000 C 
ATOM     26  O   UNL     1       4.855   6.479  16.162  0.00  0.00    +0.000 OA
ATOM     27  H   UNL     1       6.647   3.890  16.686  0.00  0.00    +0.000 HD
BRANCH  24  32
ATOM     28  C   UNL     1       6.247   3.858  12.414  0.00  0.00    +0.000 A 
ATOM     29  C   UNL     1       7.319   4.654  12.000  0.00  0.00    +0.000 A 
ATOM     30  C   UNL     1       8.030   5.423  12.913  0.00  0.00    +0.000 A 
ATOM     31  C   UNL     1       7.676   5.396  14.262  0.00  0.00    +0.000 A 
ATOM     32  C   UNL     1       6.608   4.622  14.721  0.00  0.00    +0.000 A 
ATOM     33  C   UNL     1       5.888   3.861  13.781  0.00  0.00    +0.000 A 
BRANCH  28  35
ATOM     34  C   UNL     1       5.867   1.508  11.550  0.00  0.00    +0.000 C 
ATOM     35  C   UNL     1       5.506   2.991  11.405  0.00  0.00    +0.000 C 
ATOM     36  C   UNL     1       3.987   3.175  11.526  0.00  0.00    +0.000 C 
ENDBRANCH  28  35
ENDBRANCH  24  32
ENDBRANCH   1  25
BRANCH   3  37
ATOM     37  N   UNL     1       4.095   2.321  17.176  0.00  0.00    +0.000 NA
ATOM     38  H   UNL     1       4.881   1.774  16.836  0.00  0.00    +0.000 HD
ATOM     39  H   UNL     1       3.918   3.058  16.492  0.00  0.00    +0.000 HD
ENDBRANCH   3  37
TORSDOF 5
ENDMDL
MODEL 9
REMARK VINA RESULT:      -8.2      2.601      9.291
REMARK  Name = 
REMARK  7 active torsions:
REMARK  status: ('A' for Active; 'I' for Inactive)
REMARK    1  A    between atoms: C_1  and  C_2
REMARK    2  A    between atoms: C_2  and  C_3
REMARK    3  A    between atoms: C_2  and  C_4
REMARK    4  A    between atoms: C_8  and  N_9
REMARK    5  A    between atoms: C_10  and  C_12
REMARK    6  A    between atoms: C_14  and  N_15
REMARK    7  A    between atoms: N_20  and  C_21
REMARK                            x       y       z     vdW  Elec       q    Type
REMARK                         _______ _______ _______ _____ _____    ______ ____
ROOT
ATOM      1  C   UNL     1       0.569   9.563  19.223  0.00  0.00    +0.000 C 
ATOM      2  C   UNL     1      -0.573  10.001  20.175  0.00  0.00    +0.000 C 
ATOM      3  C   UNL     1      -0.057   9.710  21.584  0.00  0.00    +0.000 C 
ATOM      4  C   UNL     1       0.780   8.455  21.337  0.00  0.00    +0.000 C 
ATOM      5  N   UNL     1       1.314   8.554  19.969  0.00  0.00    +0.000 N 
ATOM      6  C   UNL     1       2.112   7.503  19.564  0.00  0.00    +0.000 C 
ATOM      7  O   UNL     1       2.489   6.756  20.471  0.00  0.00    +0.000 OA
ATOM      8  N   UNL     1       2.457   7.338  18.220  0.00  0.00    +0.000 N 
ATOM      9  H   UNL     1       2.133   7.978  17.511  0.00  0.00    +0.000 HD
ENDROOT
BRANCH   8  10
ATOM     10  C   UNL     1       3.384   6.336  17.822  0.00  0.00    +0.000 A 
ATOM     11  C   UNL     1       2.983   5.039  17.508  0.00  0.00    +0.000 A 
ATOM     12  N   UNL     1       4.050   4.252  17.846  0.00  0.00    +0.000 N 
ATOM     13  C   UNL     1       4.012   3.146  18.691  0.00  0.00    +0.000 C 
ATOM     14  N   UNL     1       5.066   3.139  19.572  0.00  0.00    +0.000 N 
ATOM     15  O   UNL     1       3.037   2.423  18.764  0.00  0.00    +0.000 OA
ATOM     16  C   UNL     1       5.142   4.928  17.359  0.00  0.00    +0.000 A 
ATOM     17  C   UNL     1       6.331   4.402  16.837  0.00  0.00    +0.000 A 
ATOM     18  C   UNL     1       7.352   5.296  16.578  0.00  0.00    +0.000 A 
ATOM     19  C   UNL     1       7.192   6.636  16.932  0.00  0.00    +0.000 A 
ATOM     20  C   UNL     1       5.961   7.147  17.440  0.00  0.00    +0.000 A 
ATOM     21  C   UNL     1       4.839   6.287  17.557  0.00  0.00    +0.000 A 
ATOM     22  H   UNL     1       5.597   3.994  19.715  0.00  0.00    +0.000 HD
ATOM     23  H   UNL     1       4.951   2.554  20.388  0.00  0.00    +0.000 HD
ENDBRANCH   8  10
BRANCH   1  25
ATOM     24  N   UNL     1       0.902  12.029  19.322  0.00  0.00    +0.000 N 
ATOM     25  C   UNL     1       1.337  10.824  18.792  0.00  0.00    +0.000 C 
ATOM     26  O   UNL     1       2.236  10.693  17.958  0.00  0.00    +0.000 OA
ATOM     27  H   UNL     1       0.063  12.003  19.896  0.00  0.00    +0.000 HD
BRANCH  24  32
ATOM     28  C   UNL     1       3.547  14.668  19.014  0.00  0.00    +0.000 A 
ATOM     29  C   UNL     1       2.768  15.772  18.656  0.00  0.00    +0.000 A 
ATOM     30  C   UNL     1       1.390  15.657  18.518  0.00  0.00    +0.000 A 
ATOM     31  C   UNL     1       0.774  14.427  18.748  0.00  0.00    +0.000 A 
ATOM     32  C   UNL     1       1.512  13.295  19.100  0.00  0.00    +0.000 A 
ATOM     33  C   UNL     1       2.909  13.425  19.220  0.00  0.00    +0.000 A 
BRANCH  28  35
ATOM     34  C   UNL     1       5.799  14.795  17.862  0.00  0.00    +0.000 C 
ATOM     35  C   UNL     1       5.050  14.824  19.200  0.00  0.00    +0.000 C 
ATOM     36  C   UNL     1       5.384  16.117  19.959  0.00  0.00    +0.000 C 
ENDBRANCH  28  35
ENDBRANCH  24  32
ENDBRANCH   1  25
BRANCH   3  37
ATOM     37  N   UNL     1       0.687  10.832  22.156  0.00  0.00    +0.000 NA
ATOM     38  H   UNL     1       0.602  10.892  23.167  0.00  0.00    +0.000 HD
ATOM     39  H   UNL     1       0.356  11.718  21.770  0.00  0.00    +0.000 HD
ENDBRANCH   3  37
TORSDOF 5
ENDMDL
