MODEL 1
REMARK VINA RESULT:      -7.2      0.000      0.000
REMARK  Name = 
REMARK  7 active torsions:
REMARK  status: ('A' for Active; 'I' for Inactive)
REMARK    1  A    between atoms: C_1  and  N_2
REMARK    2  A    between atoms: C_5  and  N_6
REMARK    3  A    between atoms: C_10  and  C_11
REMARK    4  A    between atoms: C_11  and  C_12
REMARK    5  A    between atoms: C_12  and  N_13
REMARK    6  A    between atoms: C_14  and  C_16
REMARK    7  A    between atoms: C_16  and  O_17
REMARK                            x       y       z     vdW  Elec       q    Type
REMARK                         _______ _______ _______ _____ _____    ______ ____
ROOT
ATOM      1  N   UNL     1       5.809   4.816  17.816  0.00  0.00    +0.000 N 
ATOM      2  C   UNL     1       6.398   6.053  18.365  0.00  0.00    +0.000 C 
ATOM      3  C   UNL     1       6.909   6.966  17.235  0.00  0.00    +0.000 C 
ATOM      4  O   UNL     1       7.712   6.287  16.256  0.00  0.00    +0.000 OA
ATOM      5  C   UNL     1       7.073   5.109  15.722  0.00  0.00    +0.000 C 
ATOM      6  C   UNL     1       6.712   4.144  16.866  0.00  0.00    +0.000 C 
ENDROOT
BRANCH   1  11
ATOM      7  C   UNL     1       0.956   2.683  19.734  0.00  0.00    +0.000 C 
ATOM      8  N   UNL     1       2.180   3.226  19.186  0.00  0.00    +0.000 N 
ATOM      9  N   UNL     1       3.331   2.999  19.897  0.00  0.00    +0.000 NA
ATOM     10  C   UNL     1       4.419   3.501  19.416  0.00  0.00    +0.000 A 
ATOM     11  C   UNL     1       4.560   4.312  18.172  0.00  0.00    +0.000 A 
ATOM     12  C   UNL     1       3.415   4.457  17.496  0.00  0.00    +0.000 A 
ATOM     13  C   UNL     1       2.133   3.915  17.985  0.00  0.00    +0.000 A 
ATOM     14  O   UNL     1       1.113   4.112  17.328  0.00  0.00    +0.000 OA
ENDBRANCH   1  11
BRANCH   5  15
ATOM     15  C   UNL     1       5.855   5.450  14.849  0.00  0.00    +0.000 C 
BRANCH  15  16
ATOM     16  C   UNL     1       5.255   4.208  14.203  0.00  0.00    +0.000 C 
BRANCH  16  17
ATOM     17  N   UNL     1       6.229   3.539  13.362  0.00  0.00    +0.000 N 
ATOM     18  C   UNL     1       5.889   3.036  12.128  0.00  0.00    +0.000 C 
ATOM     19  O   UNL     1       4.755   3.103  11.651  0.00  0.00    +0.000 OA
ATOM     20  H   UNL     1       7.204   3.580  13.628  0.00  0.00    +0.000 HD
BRANCH  18  21
ATOM     21  C   UNL     1       7.026   2.324  11.394  0.00  0.00    +0.000 C 
BRANCH  21  22
ATOM     22  O   UNL     1       6.713   0.970  11.100  0.00  0.00    +0.000 OA
ATOM     23  H   UNL     1       7.545   0.470  11.227  0.00  0.00    +0.000 HD
ENDBRANCH  21  22
ENDBRANCH  18  21
ENDBRANCH  16  17
ENDBRANCH  15  16
ENDBRANCH   5  15
TORSDOF 6
ENDMDL
MODEL 2
REMARK VINA RESULT:      -7.0      1.406      1.448
REMARK  Name = 
REMARK  7 active torsions:
REMARK  status: ('A' for Active; 'I' for Inactive)
REMARK    1  A    between atoms: C_1  and  N_2
REMARK    2  A    between atoms: C_5  and  N_6
REMARK    3  A    between atoms: C_10  and  C_11
REMARK    4  A    between atoms: C_11  and  C_12
REMARK    5  A    between atoms: C_12  and  N_13
REMARK    6  A    between atoms: C_14  and  C_16
REMARK    7  A    between atoms: C_16  and  O_17
REMARK                            x       y       z     vdW  Elec       q    Type
REMARK                         _______ _______ _______ _____ _____    ______ ____
ROOT
ATOM      1  N   UNL     1       5.768   5.314  18.087  0.00  0.00    +0.000 N 
ATOM      2  C   UNL     1       5.878   6.712  17.624  0.00  0.00    +0.000 C 
ATOM      3  C   UNL     1       6.142   6.768  16.108  0.00  0.00    +0.000 C 
ATOM      4  O   UNL     1       7.191   5.891  15.666  0.00  0.00    +0.000 OA
ATOM      5  C   UNL     1       7.013   4.531  16.111  0.00  0.00    +0.000 C 
ATOM      6  C   UNL     1       6.907   4.491  17.646  0.00  0.00    +0.000 C 
ENDROOT
BRANCH   1  11
ATOM      7  C   UNL     1       1.846   2.896  21.336  0.00  0.00    +0.000 C 
ATOM      8  N   UNL     1       2.813   3.559  20.487  0.00  0.00    +0.000 N 
ATOM      9  N   UNL     1       3.772   2.769  19.906  0.00  0.00    +0.000 NA
ATOM     10  C   UNL     1       4.645   3.365  19.165  0.00  0.00    +0.000 A 
ATOM     11  C   UNL     1       4.732   4.827  18.879  0.00  0.00    +0.000 A 
ATOM     12  C   UNL     1       3.742   5.539  19.431  0.00  0.00    +0.000 A 
ATOM     13  C   UNL     1       2.711   4.927  20.291  0.00  0.00    +0.000 A 
ATOM     14  O   UNL     1       1.849   5.646  20.791  0.00  0.00    +0.000 OA
ENDBRANCH   1  11
BRANCH   5  15
ATOM     15  C   UNL     1       5.816   3.846  15.433  0.00  0.00    +0.000 C 
BRANCH  15  16
ATOM     16  C   UNL     1       5.701   4.230  13.963  0.00  0.00    +0.000 C 
BRANCH  16  17
ATOM     17  N   UNL     1       6.326   3.232  13.116  0.00  0.00    +0.000 N 
ATOM     18  C   UNL     1       5.724   2.790  11.962  0.00  0.00    +0.000 C 
ATOM     19  O   UNL     1       4.627   3.187  11.567  0.00  0.00    +0.000 OA
ATOM     20  H   UNL     1       7.286   2.974  13.303  0.00  0.00    +0.000 HD
BRANCH  18  21
ATOM     21  C   UNL     1       6.500   1.705  11.213  0.00  0.00    +0.000 C 
BRANCH  21  22
ATOM     22  O   UNL     1       6.022   0.401  11.505  0.00  0.00    +0.000 OA
ATOM     23  H   UNL     1       6.120   0.290  12.473  0.00  0.00    +0.000 HD
ENDBRANCH  21  22
ENDBRANCH  18  21
ENDBRANCH  16  17
ENDBRANCH  15  16
ENDBRANCH   5  15
TORSDOF 6
ENDMDL
MODEL 3
REMARK VINA RESULT:      -6.9      1.329      1.630
REMARK  Name = 
REMARK  7 active torsions:
REMARK  status: ('A' for Active; 'I' for Inactive)
REMARK    1  A    between atoms: C_1  and  N_2
REMARK    2  A    between atoms: C_5  and  N_6
REMARK    3  A    between atoms: C_10  and  C_11
REMARK    4  A    between atoms: C_11  and  C_12
REMARK    5  A    between atoms: C_12  and  N_13
REMARK    6  A    between atoms: C_14  and  C_16
REMARK    7  A    between atoms: C_16  and  O_17
REMARK                            x       y       z     vdW  Elec       q    Type
REMARK                         _______ _______ _______ _____ _____    ______ ____
ROOT
ATOM      1  N   UNL     1       5.409   5.075  17.891  0.00  0.00    +0.000 N 
ATOM      2  C   UNL     1       5.496   6.521  17.606  0.00  0.00    +0.000 C 
ATOM      3  C   UNL     1       6.080   6.769  16.203  0.00  0.00    +0.000 C 
ATOM      4  O   UNL     1       7.273   6.017  15.927  0.00  0.00    +0.000 OA
ATOM      5  C   UNL     1       7.120   4.605  16.183  0.00  0.00    +0.000 C 
ATOM      6  C   UNL     1       6.684   4.381  17.641  0.00  0.00    +0.000 C 
ENDROOT
BRANCH   1  11
ATOM      7  C   UNL     1       0.609   2.508  19.360  0.00  0.00    +0.000 C 
ATOM      8  N   UNL     1       1.853   3.175  19.041  0.00  0.00    +0.000 N 
ATOM      9  N   UNL     1       1.909   3.843  17.843  0.00  0.00    +0.000 NA
ATOM     10  C   UNL     1       3.026   4.421  17.552  0.00  0.00    +0.000 A 
ATOM     11  C   UNL     1       4.270   4.435  18.374  0.00  0.00    +0.000 A 
ATOM     12  C   UNL     1       4.140   3.813  19.551  0.00  0.00    +0.000 A 
ATOM     13  C   UNL     1       2.896   3.127  19.951  0.00  0.00    +0.000 A 
ATOM     14  O   UNL     1       2.856   2.549  21.034  0.00  0.00    +0.000 OA
ENDBRANCH   1  11
BRANCH   5  15
ATOM     15  C   UNL     1       6.166   3.930  15.185  0.00  0.00    +0.000 C 
BRANCH  15  16
ATOM     16  C   UNL     1       6.458   4.348  13.750  0.00  0.00    +0.000 C 
BRANCH  16  17
ATOM     17  N   UNL     1       6.568   3.188  12.885  0.00  0.00    +0.000 N 
ATOM     18  C   UNL     1       5.551   2.829  12.031  0.00  0.00    +0.000 C 
ATOM     19  O   UNL     1       4.486   3.441  11.940  0.00  0.00    +0.000 OA
ATOM     20  H   UNL     1       7.467   2.731  12.804  0.00  0.00    +0.000 HD
BRANCH  18  21
ATOM     21  C   UNL     1       5.816   1.557  11.224  0.00  0.00    +0.000 C 
BRANCH  21  22
ATOM     22  O   UNL     1       7.178   1.160  11.275  0.00  0.00    +0.000 OA
ATOM     23  H   UNL     1       7.261   0.586  12.063  0.00  0.00    +0.000 HD
ENDBRANCH  21  22
ENDBRANCH  18  21
ENDBRANCH  16  17
ENDBRANCH  15  16
ENDBRANCH   5  15
TORSDOF 6
ENDMDL
MODEL 4
REMARK VINA RESULT:      -6.7      2.221      6.923
REMARK  Name = 
REMARK  7 active torsions:
REMARK  status: ('A' for Active; 'I' for Inactive)
REMARK    1  A    between atoms: C_1  and  N_2
REMARK    2  A    between atoms: C_5  and  N_6
REMARK    3  A    between atoms: C_10  and  C_11
REMARK    4  A    between atoms: C_11  and  C_12
REMARK    5  A    between atoms: C_12  and  N_13
REMARK    6  A    between atoms: C_14  and  C_16
REMARK    7  A    between atoms: C_16  and  O_17
REMARK                            x       y       z     vdW  Elec       q    Type
REMARK                         _______ _______ _______ _____ _____    ______ ____
ROOT
ATOM      1  N   UNL     1       5.646   5.322  17.111  0.00  0.00    +0.000 N 
ATOM      2  C   UNL     1       6.264   4.820  18.353  0.00  0.00    +0.000 C 
ATOM      3  C   UNL     1       5.201   4.217  19.291  0.00  0.00    +0.000 C 
ATOM      4  O   UNL     1       4.046   5.052  19.475  0.00  0.00    +0.000 OA
ATOM      5  C   UNL     1       3.457   5.480  18.229  0.00  0.00    +0.000 C 
ATOM      6  C   UNL     1       4.506   6.217  17.379  0.00  0.00    +0.000 C 
ENDROOT
BRANCH   1  11
ATOM      7  C   UNL     1       7.028   3.851  11.847  0.00  0.00    +0.000 C 
ATOM      8  N   UNL     1       6.730   4.244  13.207  0.00  0.00    +0.000 N 
ATOM      9  N   UNL     1       5.689   3.598  13.825  0.00  0.00    +0.000 NA
ATOM     10  C   UNL     1       5.412   3.963  15.032  0.00  0.00    +0.000 A 
ATOM     11  C   UNL     1       6.098   5.021  15.829  0.00  0.00    +0.000 A 
ATOM     12  C   UNL     1       7.136   5.579  15.195  0.00  0.00    +0.000 A 
ATOM     13  C   UNL     1       7.510   5.216  13.814  0.00  0.00    +0.000 A 
ATOM     14  O   UNL     1       8.456   5.790  13.281  0.00  0.00    +0.000 OA
ENDBRANCH   1  11
BRANCH   5  15
ATOM     15  C   UNL     1       2.804   4.320  17.462  0.00  0.00    +0.000 C 
BRANCH  15  16
ATOM     16  C   UNL     1       1.425   3.980  18.013  0.00  0.00    +0.000 C 
BRANCH  16  17
ATOM     17  N   UNL     1       1.530   3.151  19.198  0.00  0.00    +0.000 N 
ATOM     18  C   UNL     1       1.242   3.643  20.449  0.00  0.00    +0.000 C 
ATOM     19  O   UNL     1       0.888   4.804  20.662  0.00  0.00    +0.000 OA
ATOM     20  H   UNL     1       1.673   2.156  19.079  0.00  0.00    +0.000 HD
BRANCH  18  21
ATOM     21  C   UNL     1       1.447   2.646  21.590  0.00  0.00    +0.000 C 
BRANCH  21  22
ATOM     22  O   UNL     1       2.811   2.533  21.968  0.00  0.00    +0.000 OA
ATOM     23  H   UNL     1       3.074   3.419  22.292  0.00  0.00    +0.000 HD
ENDBRANCH  21  22
ENDBRANCH  18  21
ENDBRANCH  16  17
ENDBRANCH  15  16
ENDBRANCH   5  15
TORSDOF 6
ENDMDL
MODEL 5
REMARK VINA RESULT:      -6.7      3.481      6.171
REMARK  Name = 
REMARK  7 active torsions:
REMARK  status: ('A' for Active; 'I' for Inactive)
REMARK    1  A    between atoms: C_1  and  N_2
REMARK    2  A    between atoms: C_5  and  N_6
REMARK    3  A    between atoms: C_10  and  C_11
REMARK    4  A    between atoms: C_11  and  C_12
REMARK    5  A    between atoms: C_12  and  N_13
REMARK    6  A    between atoms: C_14  and  C_16
REMARK    7  A    between atoms: C_16  and  O_17
REMARK                            x       y       z     vdW  Elec       q    Type
REMARK                         _______ _______ _______ _____ _____    ______ ____
ROOT
ATOM      1  N   UNL     1       4.211   6.026  17.985  0.00  0.00    +0.000 N 
ATOM      2  C   UNL     1       5.090   6.125  16.802  0.00  0.00    +0.000 C 
ATOM      3  C   UNL     1       5.017   4.840  15.956  0.00  0.00    +0.000 C 
ATOM      4  O   UNL     1       5.152   3.630  16.720  0.00  0.00    +0.000 OA
ATOM      5  C   UNL     1       4.242   3.567  17.839  0.00  0.00    +0.000 C 
ATOM      6  C   UNL     1       4.447   4.789  18.751  0.00  0.00    +0.000 C 
ENDROOT
BRANCH   1  11
ATOM      7  C   UNL     1       0.488   9.750  19.997  0.00  0.00    +0.000 C 
ATOM      8  N   UNL     1       1.428   8.811  19.425  0.00  0.00    +0.000 N 
ATOM      9  N   UNL     1       1.691   7.676  20.151  0.00  0.00    +0.000 NA
ATOM     10  C   UNL     1       2.545   6.849  19.648  0.00  0.00    +0.000 A 
ATOM     11  C   UNL     1       3.288   6.997  18.363  0.00  0.00    +0.000 A 
ATOM     12  C   UNL     1       2.954   8.095  17.676  0.00  0.00    +0.000 A 
ATOM     13  C   UNL     1       1.989   9.087  18.188  0.00  0.00    +0.000 A 
ATOM     14  O   UNL     1       1.752  10.089  17.518  0.00  0.00    +0.000 OA
ENDBRANCH   1  11
BRANCH   5  15
ATOM     15  C   UNL     1       2.779   3.417  17.394  0.00  0.00    +0.000 C 
BRANCH  15  16
ATOM     16  C   UNL     1       2.166   2.114  17.891  0.00  0.00    +0.000 C 
BRANCH  16  17
ATOM     17  N   UNL     1       2.190   2.049  19.340  0.00  0.00    +0.000 N 
ATOM     18  C   UNL     1       1.376   2.846  20.110  0.00  0.00    +0.000 C 
ATOM     19  O   UNL     1       0.586   3.668  19.643  0.00  0.00    +0.000 OA
ATOM     20  H   UNL     1       2.706   1.298  19.780  0.00  0.00    +0.000 HD
BRANCH  18  21
ATOM     21  C   UNL     1       1.562   2.680  21.618  0.00  0.00    +0.000 C 
BRANCH  21  22
ATOM     22  O   UNL     1       2.923   2.497  21.977  0.00  0.00    +0.000 OA
ATOM     23  H   UNL     1       3.077   3.079  22.749  0.00  0.00    +0.000 HD
ENDBRANCH  21  22
ENDBRANCH  18  21
ENDBRANCH  16  17
ENDBRANCH  15  16
ENDBRANCH   5  15
TORSDOF 6
ENDMDL
MODEL 6
REMARK VINA RESULT:      -6.7      3.416      6.019
REMARK  Name = 
REMARK  7 active torsions:
REMARK  status: ('A' for Active; 'I' for Inactive)
REMARK    1  A    between atoms: C_1  and  N_2
REMARK    2  A    between atoms: C_5  and  N_6
REMARK    3  A    between atoms: C_10  and  C_11
REMARK    4  A    between atoms: C_11  and  C_12
REMARK    5  A    between atoms: C_12  and  N_13
REMARK    6  A    between atoms: C_14  and  C_16
REMARK    7  A    between atoms: C_16  and  O_17
REMARK                            x       y       z     vdW  Elec       q    Type
REMARK                         _______ _______ _______ _____ _____    ______ ____
ROOT
ATOM      1  N   UNL     1       4.565   5.994  17.492  0.00  0.00    +0.000 N 
ATOM      2  C   UNL     1       5.269   6.193  16.209  0.00  0.00    +0.000 C 
ATOM      3  C   UNL     1       5.201   4.921  15.344  0.00  0.00    +0.000 C 
ATOM      4  O   UNL     1       5.542   3.716  16.050  0.00  0.00    +0.000 OA
ATOM      5  C   UNL     1       4.797   3.551  17.274  0.00  0.00    +0.000 C 
ATOM      6  C   UNL     1       5.009   4.772  18.186  0.00  0.00    +0.000 C 
ENDROOT
BRANCH   1  11
ATOM      7  C   UNL     1       0.777   9.286  20.060  0.00  0.00    +0.000 C 
ATOM      8  N   UNL     1       1.731   8.462  19.348  0.00  0.00    +0.000 N 
ATOM      9  N   UNL     1       2.094   7.280  19.943  0.00  0.00    +0.000 NA
ATOM     10  C   UNL     1       2.959   6.556  19.315  0.00  0.00    +0.000 A 
ATOM     11  C   UNL     1       3.617   6.869  18.014  0.00  0.00    +0.000 A 
ATOM     12  C   UNL     1       3.186   8.008  17.458  0.00  0.00    +0.000 A 
ATOM     13  C   UNL     1       2.202   8.888  18.117  0.00  0.00    +0.000 A 
ATOM     14  O   UNL     1       1.874   9.935  17.563  0.00  0.00    +0.000 OA
ENDBRANCH   1  11
BRANCH   5  15
ATOM     15  C   UNL     1       3.308   3.273  17.019  0.00  0.00    +0.000 C 
BRANCH  15  16
ATOM     16  C   UNL     1       2.764   2.194  17.946  0.00  0.00    +0.000 C 
BRANCH  16  17
ATOM     17  N   UNL     1       2.141   2.782  19.117  0.00  0.00    +0.000 N 
ATOM     18  C   UNL     1       2.781   2.810  20.334  0.00  0.00    +0.000 C 
ATOM     19  O   UNL     1       3.903   2.342  20.527  0.00  0.00    +0.000 OA
ATOM     20  H   UNL     1       1.288   3.311  18.994  0.00  0.00    +0.000 HD
BRANCH  18  21
ATOM     21  C   UNL     1       1.963   3.427  21.469  0.00  0.00    +0.000 C 
BRANCH  21  22
ATOM     22  O   UNL     1       1.431   2.445  22.346  0.00  0.00    +0.000 OA
ATOM     23  H   UNL     1       2.110   1.742  22.404  0.00  0.00    +0.000 HD
ENDBRANCH  21  22
ENDBRANCH  18  21
ENDBRANCH  16  17
ENDBRANCH  15  16
ENDBRANCH   5  15
TORSDOF 6
ENDMDL
MODEL 7
REMARK VINA RESULT:      -6.7      1.455      1.562
REMARK  Name = 
REMARK  7 active torsions:
REMARK  status: ('A' for Active; 'I' for Inactive)
REMARK    1  A    between atoms: C_1  and  N_2
REMARK    2  A    between atoms: C_5  and  N_6
REMARK    3  A    between atoms: C_10  and  C_11
REMARK    4  A    between atoms: C_11  and  C_12
REMARK    5  A    between atoms: C_12  and  N_13
REMARK    6  A    between atoms: C_14  and  C_16
REMARK    7  A    between atoms: C_16  and  O_17
REMARK                            x       y       z     vdW  Elec       q    Type
REMARK                         _______ _______ _______ _____ _____    ______ ____
ROOT
ATOM      1  N   UNL     1       5.520   5.348  18.334  0.00  0.00    +0.000 N 
ATOM      2  C   UNL     1       5.445   6.743  17.859  0.00  0.00    +0.000 C 
ATOM      3  C   UNL     1       6.035   6.873  16.442  0.00  0.00    +0.000 C 
ATOM      4  O   UNL     1       7.316   6.240  16.284  0.00  0.00    +0.000 OA
ATOM      5  C   UNL     1       7.323   4.866  16.726  0.00  0.00    +0.000 C 
ATOM      6  C   UNL     1       6.875   4.786  18.196  0.00  0.00    +0.000 C 
ENDROOT
BRANCH   1  11
ATOM      7  C   UNL     1       1.005   2.961  20.721  0.00  0.00    +0.000 C 
ATOM      8  N   UNL     1       2.190   3.519  20.105  0.00  0.00    +0.000 N 
ATOM      9  N   UNL     1       2.504   4.815  20.428  0.00  0.00    +0.000 NA
ATOM     10  C   UNL     1       3.549   5.318  19.862  0.00  0.00    +0.000 A 
ATOM     11  C   UNL     1       4.452   4.644  18.885  0.00  0.00    +0.000 A 
ATOM     12  C   UNL     1       4.127   3.368  18.648  0.00  0.00    +0.000 A 
ATOM     13  C   UNL     1       2.945   2.727  19.255  0.00  0.00    +0.000 A 
ATOM     14  O   UNL     1       2.687   1.560  18.969  0.00  0.00    +0.000 OA
ENDBRANCH   1  11
BRANCH   5  15
ATOM     15  C   UNL     1       6.484   3.956  15.816  0.00  0.00    +0.000 C 
BRANCH  15  16
ATOM     16  C   UNL     1       6.646   4.318  14.346  0.00  0.00    +0.000 C 
BRANCH  16  17
ATOM     17  N   UNL     1       6.052   3.305  13.494  0.00  0.00    +0.000 N 
ATOM     18  C   UNL     1       6.377   3.205  12.162  0.00  0.00    +0.000 C 
ATOM     19  O   UNL     1       7.172   3.955  11.594  0.00  0.00    +0.000 OA
ATOM     20  H   UNL     1       5.507   2.570  13.927  0.00  0.00    +0.000 HD
BRANCH  18  21
ATOM     21  C   UNL     1       5.626   2.110  11.403  0.00  0.00    +0.000 C 
BRANCH  21  22
ATOM     22  O   UNL     1       6.436   0.970  11.159  0.00  0.00    +0.000 OA
ATOM     23  H   UNL     1       6.072   0.550  10.354  0.00  0.00    +0.000 HD
ENDBRANCH  21  22
ENDBRANCH  18  21
ENDBRANCH  16  17
ENDBRANCH  15  16
ENDBRANCH   5  15
TORSDOF 6
ENDMDL
MODEL 8
REMARK VINA RESULT:      -6.6      2.015      6.757
REMARK  Name = 
REMARK  7 active torsions:
REMARK  status: ('A' for Active; 'I' for Inactive)
REMARK    1  A    between atoms: C_1  and  N_2
REMARK    2  A    between atoms: C_5  and  N_6
REMARK    3  A    between atoms: C_10  and  C_11
REMARK    4  A    between atoms: C_11  and  C_12
REMARK    5  A    between atoms: C_12  and  N_13
REMARK    6  A    between atoms: C_14  and  C_16
REMARK    7  A    between atoms: C_16  and  O_17
REMARK                            x       y       z     vdW  Elec       q    Type
REMARK                         _______ _______ _______ _____ _____    ______ ____
ROOT
ATOM      1  N   UNL     1       5.490   5.245  17.196  0.00  0.00    +0.000 N 
ATOM      2  C   UNL     1       6.099   4.609  18.381  0.00  0.00    +0.000 C 
ATOM      3  C   UNL     1       5.016   4.022  19.306  0.00  0.00    +0.000 C 
ATOM      4  O   UNL     1       3.934   4.925  19.583  0.00  0.00    +0.000 OA
ATOM      5  C   UNL     1       3.348   5.485  18.389  0.00  0.00    +0.000 C 
ATOM      6  C   UNL     1       4.430   6.201  17.561  0.00  0.00    +0.000 C 
ENDROOT
BRANCH   1  11
ATOM      7  C   UNL     1       7.576   4.416  12.025  0.00  0.00    +0.000 C 
ATOM      8  N   UNL     1       6.985   4.626  13.329  0.00  0.00    +0.000 N 
ATOM      9  N   UNL     1       7.719   5.354  14.231  0.00  0.00    +0.000 NA
ATOM     10  C   UNL     1       7.199   5.523  15.401  0.00  0.00    +0.000 A 
ATOM     11  C   UNL     1       5.886   5.005  15.883  0.00  0.00    +0.000 A 
ATOM     12  C   UNL     1       5.194   4.347  14.945  0.00  0.00    +0.000 A 
ATOM     13  C   UNL     1       5.725   4.112  13.589  0.00  0.00    +0.000 A 
ATOM     14  O   UNL     1       5.049   3.473  12.787  0.00  0.00    +0.000 OA
ENDBRANCH   1  11
BRANCH   5  15
ATOM     15  C   UNL     1       2.589   4.436  17.562  0.00  0.00    +0.000 C 
BRANCH  15  16
ATOM     16  C   UNL     1       1.191   4.185  18.111  0.00  0.00    +0.000 C 
BRANCH  16  17
ATOM     17  N   UNL     1       1.231   3.942  19.541  0.00  0.00    +0.000 N 
ATOM     18  C   UNL     1       1.432   2.681  20.051  0.00  0.00    +0.000 C 
ATOM     19  O   UNL     1       1.582   1.677  19.353  0.00  0.00    +0.000 OA
ATOM     20  H   UNL     1       1.261   4.739  20.164  0.00  0.00    +0.000 HD
BRANCH  18  21
ATOM     21  C   UNL     1       1.402   2.599  21.578  0.00  0.00    +0.000 C 
BRANCH  21  22
ATOM     22  O   UNL     1       2.702   2.651  22.147  0.00  0.00    +0.000 OA
ATOM     23  H   UNL     1       2.890   1.747  22.470  0.00  0.00    +0.000 HD
ENDBRANCH  21  22
ENDBRANCH  18  21
ENDBRANCH  16  17
ENDBRANCH  15  16
ENDBRANCH   5  15
TORSDOF 6
ENDMDL
MODEL 9
REMARK VINA RESULT:      -6.6      1.685      2.031
REMARK  Name = 
REMARK  7 active torsions:
REMARK  status: ('A' for Active; 'I' for Inactive)
REMARK    1  A    between atoms: C_1  and  N_2
REMARK    2  A    between atoms: C_5  and  N_6
REMARK    3  A    between atoms: C_10  and  C_11
REMARK    4  A    between atoms: C_11  and  C_12
REMARK    5  A    between atoms: C_12  and  N_13
REMARK    6  A    between atoms: C_14  and  C_16
REMARK    7  A    between atoms: C_16  and  O_17
REMARK                            x       y       z     vdW  Elec       q    Type
REMARK                         _______ _______ _______ _____ _____    ______ ____
ROOT
ATOM      1  N   UNL     1       4.752   5.841  18.225  0.00  0.00    +0.000 N 
ATOM      2  C   UNL     1       4.226   6.945  17.397  0.00  0.00    +0.000 C 
ATOM      3  C   UNL     1       4.902   6.962  16.013  0.00  0.00    +0.000 C 
ATOM      4  O   UNL     1       6.335   6.862  16.063  0.00  0.00    +0.000 OA
ATOM      5  C   UNL     1       6.794   5.744  16.850  0.00  0.00    +0.000 C 
ATOM      6  C   UNL     1       6.224   5.838  18.277  0.00  0.00    +0.000 C 
ENDROOT
BRANCH   1  11
ATOM      7  C   UNL     1       1.325   2.539  21.247  0.00  0.00    +0.000 C 
ATOM      8  N   UNL     1       2.237   3.338  20.456  0.00  0.00    +0.000 N 
ATOM      9  N   UNL     1       2.410   4.644  20.842  0.00  0.00    +0.000 NA
ATOM     10  C   UNL     1       3.209   5.360  20.124  0.00  0.00    +0.000 A 
ATOM     11  C   UNL     1       3.960   4.925  18.911  0.00  0.00    +0.000 A 
ATOM     12  C   UNL     1       3.791   3.631  18.614  0.00  0.00    +0.000 A 
ATOM     13  C   UNL     1       2.892   2.752  19.386  0.00  0.00    +0.000 A 
ATOM     14  O   UNL     1       2.761   1.581  19.039  0.00  0.00    +0.000 OA
ENDBRANCH   1  11
BRANCH   5  15
ATOM     15  C   UNL     1       6.475   4.394  16.190  0.00  0.00    +0.000 C 
BRANCH  15  16
ATOM     16  C   UNL     1       7.036   4.308  14.776  0.00  0.00    +0.000 C 
BRANCH  16  17
ATOM     17  N   UNL     1       6.181   3.499  13.928  0.00  0.00    +0.000 N 
ATOM     18  C   UNL     1       6.310   3.508  12.559  0.00  0.00    +0.000 C 
ATOM     19  O   UNL     1       7.135   4.195  11.955  0.00  0.00    +0.000 OA
ATOM     20  H   UNL     1       5.586   2.807  14.364  0.00  0.00    +0.000 HD
BRANCH  18  21
ATOM     21  C   UNL     1       5.301   2.631  11.817  0.00  0.00    +0.000 C 
BRANCH  21  22
ATOM     22  O   UNL     1       4.224   3.385  11.280  0.00  0.00    +0.000 OA
ATOM     23  H   UNL     1       3.579   3.487  12.009  0.00  0.00    +0.000 HD
ENDBRANCH  21  22
ENDBRANCH  18  21
ENDBRANCH  16  17
ENDBRANCH  15  16
ENDBRANCH   5  15
TORSDOF 6
ENDMDL
