MODEL 1
REMARK VINA RESULT:     -10.4      0.000      0.000
REMARK  Name = 
REMARK  8 active torsions:
REMARK  status: ('A' for Active; 'I' for Inactive)
REMARK    1  A    between atoms: C_2  and  C_3
REMARK    2  A    between atoms: N_5  and  C_6
REMARK    3  A    between atoms: C_6  and  C_7
REMARK    4  A    between atoms: C_10  and  C_11
REMARK    5  A    between atoms: C_17  and  N_18
REMARK    6  A    between atoms: N_18  and  C_19
REMARK    7  A    between atoms: C_22  and  O_23
REMARK    8  A    between atoms: O_23  and  C_24
REMARK                            x       y       z     vdW  Elec       q    Type
REMARK                         _______ _______ _______ _____ _____    ______ ____
ROOT
ATOM      1  C   UNL     1       3.116   3.859  19.039  0.00  0.00    +0.000 A 
ATOM      2  C   UNL     1       2.494   2.607  19.078  0.00  0.00    +0.000 A 
ATOM      3  N   UNL     1       2.875   1.553  18.248  0.00  0.00    +0.000 N 
ATOM      4  N   UNL     1       1.542   2.281  19.965  0.00  0.00    +0.000 NA
ATOM      5  C   UNL     1       1.191   3.235  20.823  0.00  0.00    +0.000 A 
ATOM      6  N   UNL     1       1.690   4.471  20.855  0.00  0.00    +0.000 NA
ATOM      7  C   UNL     1       2.645   4.798  19.960  0.00  0.00    +0.000 A 
ATOM      8  H   UNL     1       2.989   1.856  17.282  0.00  0.00    +0.000 HD
ATOM      9  H   UNL     1       2.201   0.799  18.365  0.00  0.00    +0.000 HD
ENDROOT
BRANCH   1  13
ATOM     10  C   UNL     1       5.891   4.697  16.957  0.00  0.00    +0.000 A 
ATOM     11  C   UNL     1       4.885   4.457  16.049  0.00  0.00    +0.000 A 
ATOM     12  O   UNL     1       3.766   4.092  16.735  0.00  0.00    +0.000 OA
ATOM     13  C   UNL     1       4.147   4.139  18.054  0.00  0.00    +0.000 A 
ATOM     14  N   UNL     1       5.412   4.483  18.234  0.00  0.00    +0.000 NA
BRANCH  10  15
ATOM     15  C   UNL     1       7.292   5.121  16.706  0.00  0.00    +0.000 C 
BRANCH  15  18
ATOM     16  C   UNL     1       7.799   7.253  17.788  0.00  0.00    +0.000 C 
ATOM     17  O   UNL     1       8.191   6.720  18.822  0.00  0.00    +0.000 OA
ATOM     18  N   UNL     1       7.363   6.564  16.692  0.00  0.00    +0.000 N 
ATOM     19  H   UNL     1       6.937   7.048  15.911  0.00  0.00    +0.000 HD
BRANCH  16  21
ATOM     20  C   UNL     1       8.571   9.513  18.326  0.00  0.00    +0.000 C 
ATOM     21  C   UNL     1       7.749   8.727  17.619  0.00  0.00    +0.000 C 
ENDBRANCH  16  21
ENDBRANCH  15  18
ENDBRANCH  10  15
ENDBRANCH   1  13
BRANCH   7  22
ATOM     22  N   UNL     1       3.047   6.156  19.866  0.00  0.00    +0.000 N 
ATOM     23  H   UNL     1       3.905   6.335  20.384  0.00  0.00    +0.000 HD
BRANCH  22  24
ATOM     24  C   UNL     1       2.307   7.332  19.623  0.00  0.00    +0.000 A 
ATOM     25  C   UNL     1       2.207   7.798  18.305  0.00  0.00    +0.000 A 
ATOM     26  C   UNL     1       1.475   8.952  17.998  0.00  0.00    +0.000 A 
ATOM     27  C   UNL     1       0.803   9.656  19.001  0.00  0.00    +0.000 A 
ATOM     28  C   UNL     1       0.755   9.107  20.284  0.00  0.00    +0.000 A 
ATOM     29 CL   UNL     1      -0.283   9.693  21.541  0.00  0.00    +0.000 Cl
ATOM     30  C   UNL     1       1.535   7.985  20.590  0.00  0.00    +0.000 A 
BRANCH  27  31
ATOM     31  O   UNL     1       0.179  10.808  18.584  0.00  0.00    +0.000 OA
BRANCH  31  32
ATOM     32  C   UNL     1      -1.144  10.779  18.197  0.00  0.00    +0.000 A 
ATOM     33  C   UNL     1      -1.663  10.051  17.118  0.00  0.00    +0.000 A 
ATOM     34  C   UNL     1      -2.990  10.240  16.717  0.00  0.00    +0.000 A 
ATOM     35  C   UNL     1      -3.821  11.088  17.444  0.00  0.00    +0.000 A 
ATOM     36  C   UNL     1      -3.327  11.717  18.582  0.00  0.00    +0.000 A 
ATOM     37  F   UNL     1      -4.138  12.498  19.307  0.00  0.00    +0.000 F 
ATOM     38  C   UNL     1      -1.999  11.569  18.964  0.00  0.00    +0.000 A 
ENDBRANCH  31  32
ENDBRANCH  27  31
ENDBRANCH  22  24
ENDBRANCH   7  22
TORSDOF 8
ENDMDL
MODEL 2
REMARK VINA RESULT:     -10.2      1.844      2.757
REMARK  Name = 
REMARK  8 active torsions:
REMARK  status: ('A' for Active; 'I' for Inactive)
REMARK    1  A    between atoms: C_2  and  C_3
REMARK    2  A    between atoms: N_5  and  C_6
REMARK    3  A    between atoms: C_6  and  C_7
REMARK    4  A    between atoms: C_10  and  C_11
REMARK    5  A    between atoms: C_17  and  N_18
REMARK    6  A    between atoms: N_18  and  C_19
REMARK    7  A    between atoms: C_22  and  O_23
REMARK    8  A    between atoms: O_23  and  C_24
REMARK                            x       y       z     vdW  Elec       q    Type
REMARK                         _______ _______ _______ _____ _____    ______ ____
ROOT
ATOM      1  C   UNL     1       3.201   4.088  19.402  0.00  0.00    +0.000 A 
ATOM      2  C   UNL     1       2.665   2.836  19.082  0.00  0.00    +0.000 A 
ATOM      3  N   UNL     1       3.363   1.891  18.330  0.00  0.00    +0.000 N 
ATOM      4  N   UNL     1       1.480   2.401  19.534  0.00  0.00    +0.000 NA
ATOM      5  C   UNL     1       0.805   3.244  20.311  0.00  0.00    +0.000 A 
ATOM      6  N   UNL     1       1.201   4.471  20.651  0.00  0.00    +0.000 NA
ATOM      7  C   UNL     1       2.393   4.908  20.193  0.00  0.00    +0.000 A 
ATOM      8  H   UNL     1       3.793   2.307  17.506  0.00  0.00    +0.000 HD
ATOM      9  H   UNL     1       2.727   1.124  18.118  0.00  0.00    +0.000 HD
ENDROOT
BRANCH   1  13
ATOM     10  C   UNL     1       6.302   4.800  17.786  0.00  0.00    +0.000 A 
ATOM     11  C   UNL     1       6.468   5.360  19.032  0.00  0.00    +0.000 A 
ATOM     12  O   UNL     1       5.319   5.177  19.741  0.00  0.00    +0.000 OA
ATOM     13  C   UNL     1       4.497   4.490  18.881  0.00  0.00    +0.000 A 
ATOM     14  N   UNL     1       5.037   4.255  17.696  0.00  0.00    +0.000 NA
BRANCH  10  15
ATOM     15  C   UNL     1       7.264   4.740  16.655  0.00  0.00    +0.000 C 
BRANCH  15  18
ATOM     16  C   UNL     1       6.903   4.472  14.252  0.00  0.00    +0.000 C 
ATOM     17  O   UNL     1       7.685   5.372  13.959  0.00  0.00    +0.000 OA
ATOM     18  N   UNL     1       6.646   4.072  15.533  0.00  0.00    +0.000 N 
ATOM     19  H   UNL     1       5.905   3.410  15.730  0.00  0.00    +0.000 HD
BRANCH  16  21
ATOM     20  C   UNL     1       6.658   3.513  12.013  0.00  0.00    +0.000 C 
ATOM     21  C   UNL     1       6.137   3.716  13.230  0.00  0.00    +0.000 C 
ENDBRANCH  16  21
ENDBRANCH  15  18
ENDBRANCH  10  15
ENDBRANCH   1  13
BRANCH   7  22
ATOM     22  N   UNL     1       2.737   6.270  20.396  0.00  0.00    +0.000 N 
ATOM     23  H   UNL     1       3.333   6.394  21.212  0.00  0.00    +0.000 HD
BRANCH  22  24
ATOM     24  C   UNL     1       2.084   7.462  20.017  0.00  0.00    +0.000 A 
ATOM     25  C   UNL     1       2.092   7.827  18.664  0.00  0.00    +0.000 A 
ATOM     26  C   UNL     1       1.451   8.992  18.224  0.00  0.00    +0.000 A 
ATOM     27  C   UNL     1       0.763   9.808  19.126  0.00  0.00    +0.000 A 
ATOM     28  C   UNL     1       0.605   9.366  20.441  0.00  0.00    +0.000 A 
ATOM     29 CL   UNL     1      -0.471  10.106  21.579  0.00  0.00    +0.000 Cl
ATOM     30  C   UNL     1       1.296   8.231  20.880  0.00  0.00    +0.000 A 
BRANCH  27  31
ATOM     31  O   UNL     1       0.235  10.956  18.583  0.00  0.00    +0.000 OA
BRANCH  31  32
ATOM     32  C   UNL     1      -1.100  11.013  18.245  0.00  0.00    +0.000 A 
ATOM     33  C   UNL     1      -2.067  11.812  18.870  0.00  0.00    +0.000 A 
ATOM     34  C   UNL     1      -3.421  11.652  18.555  0.00  0.00    +0.000 A 
ATOM     35  C   UNL     1      -3.800  10.759  17.556  0.00  0.00    +0.000 A 
ATOM     36  C   UNL     1      -2.822  10.056  16.863  0.00  0.00    +0.000 A 
ATOM     37  F   UNL     1      -3.183   9.229  15.872  0.00  0.00    +0.000 F 
ATOM     38  C   UNL     1      -1.478  10.175  17.197  0.00  0.00    +0.000 A 
ENDBRANCH  31  32
ENDBRANCH  27  31
ENDBRANCH  22  24
ENDBRANCH   7  22
TORSDOF 8
ENDMDL
MODEL 3
REMARK VINA RESULT:     -10.0      1.125      1.414
REMARK  Name = 
REMARK  8 active torsions:
REMARK  status: ('A' for Active; 'I' for Inactive)
REMARK    1  A    between atoms: C_2  and  C_3
REMARK    2  A    between atoms: N_5  and  C_6
REMARK    3  A    between atoms: C_6  and  C_7
REMARK    4  A    between atoms: C_10  and  C_11
REMARK    5  A    between atoms: C_17  and  N_18
REMARK    6  A    between atoms: N_18  and  C_19
REMARK    7  A    between atoms: C_22  and  O_23
REMARK    8  A    between atoms: O_23  and  C_24
REMARK                            x       y       z     vdW  Elec       q    Type
REMARK                         _______ _______ _______ _____ _____    ______ ____
ROOT
ATOM      1  C   UNL     1       3.185   3.753  19.211  0.00  0.00    +0.000 A 
ATOM      2  C   UNL     1       2.560   2.535  18.925  0.00  0.00    +0.000 A 
ATOM      3  N   UNL     1       3.174   1.536  18.171  0.00  0.00    +0.000 N 
ATOM      4  N   UNL     1       1.360   2.185  19.414  0.00  0.00    +0.000 NA
ATOM      5  C   UNL     1       0.763   3.081  20.195  0.00  0.00    +0.000 A 
ATOM      6  N   UNL     1       1.248   4.284  20.506  0.00  0.00    +0.000 NA
ATOM      7  C   UNL     1       2.453   4.635  20.010  0.00  0.00    +0.000 A 
ATOM      8  H   UNL     1       3.608   1.911  17.329  0.00  0.00    +0.000 HD
ATOM      9  H   UNL     1       2.484   0.809  17.987  0.00  0.00    +0.000 HD
ENDROOT
BRANCH   1  13
ATOM     10  C   UNL     1       6.476   4.713  18.220  0.00  0.00    +0.000 A 
ATOM     11  C   UNL     1       5.909   4.291  17.039  0.00  0.00    +0.000 A 
ATOM     12  O   UNL     1       4.641   3.865  17.301  0.00  0.00    +0.000 OA
ATOM     13  C   UNL     1       4.490   4.061  18.652  0.00  0.00    +0.000 A 
ATOM     14  N   UNL     1       5.565   4.554  19.245  0.00  0.00    +0.000 NA
BRANCH  10  15
ATOM     15  C   UNL     1       7.835   5.264  18.457  0.00  0.00    +0.000 C 
BRANCH  15  18
ATOM     16  C   UNL     1       7.765   7.543  17.577  0.00  0.00    +0.000 C 
ATOM     17  O   UNL     1       7.813   7.172  16.408  0.00  0.00    +0.000 OA
ATOM     18  N   UNL     1       7.748   6.694  18.647  0.00  0.00    +0.000 N 
ATOM     19  H   UNL     1       7.831   7.048  19.591  0.00  0.00    +0.000 HD
BRANCH  16  21
ATOM     20  C   UNL     1       8.849   9.595  18.355  0.00  0.00    +0.000 C 
ATOM     21  C   UNL     1       7.729   8.977  17.959  0.00  0.00    +0.000 C 
ENDBRANCH  16  21
ENDBRANCH  15  18
ENDBRANCH  10  15
ENDBRANCH   1  13
BRANCH   7  22
ATOM     22  N   UNL     1       2.891   5.975  20.183  0.00  0.00    +0.000 N 
ATOM     23  H   UNL     1       3.572   6.058  20.935  0.00  0.00    +0.000 HD
BRANCH  22  24
ATOM     24  C   UNL     1       2.271   7.204  19.877  0.00  0.00    +0.000 A 
ATOM     25  C   UNL     1       2.311   7.661  18.553  0.00  0.00    +0.000 A 
ATOM     26  C   UNL     1       1.703   8.867  18.184  0.00  0.00    +0.000 A 
ATOM     27  C   UNL     1       1.016   9.635  19.128  0.00  0.00    +0.000 A 
ATOM     28  C   UNL     1       0.825   9.107  20.407  0.00  0.00    +0.000 A 
ATOM     29 CL   UNL     1      -0.255   9.792  21.576  0.00  0.00    +0.000 Cl
ATOM     30  C   UNL     1       1.484   7.930  20.778  0.00  0.00    +0.000 A 
BRANCH  27  31
ATOM     31  O   UNL     1       0.522  10.829  18.658  0.00  0.00    +0.000 OA
BRANCH  31  32
ATOM     32  C   UNL     1      -0.825  10.971  18.404  0.00  0.00    +0.000 A 
ATOM     33  C   UNL     1      -1.692  11.854  19.063  0.00  0.00    +0.000 A 
ATOM     34  C   UNL     1      -3.071  11.781  18.840  0.00  0.00    +0.000 A 
ATOM     35  C   UNL     1      -3.576  10.889  17.898  0.00  0.00    +0.000 A 
ATOM     36  C   UNL     1      -2.696  10.099  17.167  0.00  0.00    +0.000 A 
ATOM     37  F   UNL     1      -3.178   9.272  16.229  0.00  0.00    +0.000 F 
ATOM     38  C   UNL     1      -1.328  10.132  17.410  0.00  0.00    +0.000 A 
ENDBRANCH  31  32
ENDBRANCH  27  31
ENDBRANCH  22  24
ENDBRANCH   7  22
TORSDOF 8
ENDMDL
MODEL 4
REMARK VINA RESULT:      -9.9      1.811      2.594
REMARK  Name = 
REMARK  8 active torsions:
REMARK  status: ('A' for Active; 'I' for Inactive)
REMARK    1  A    between atoms: C_2  and  C_3
REMARK    2  A    between atoms: N_5  and  C_6
REMARK    3  A    between atoms: C_6  and  C_7
REMARK    4  A    between atoms: C_10  and  C_11
REMARK    5  A    between atoms: C_17  and  N_18
REMARK    6  A    between atoms: N_18  and  C_19
REMARK    7  A    between atoms: C_22  and  O_23
REMARK    8  A    between atoms: O_23  and  C_24
REMARK                            x       y       z     vdW  Elec       q    Type
REMARK                         _______ _______ _______ _____ _____    ______ ____
ROOT
ATOM      1  C   UNL     1       3.006   4.030  18.985  0.00  0.00    +0.000 A 
ATOM      2  C   UNL     1       2.394   2.772  19.003  0.00  0.00    +0.000 A 
ATOM      3  N   UNL     1       2.714   1.768  18.090  0.00  0.00    +0.000 N 
ATOM      4  N   UNL     1       1.512   2.390  19.939  0.00  0.00    +0.000 NA
ATOM      5  C   UNL     1       1.224   3.293  20.872  0.00  0.00    +0.000 A 
ATOM      6  N   UNL     1       1.719   4.530  20.934  0.00  0.00    +0.000 NA
ATOM      7  C   UNL     1       2.602   4.913  19.988  0.00  0.00    +0.000 A 
ATOM      8  H   UNL     1       2.754   2.123  17.136  0.00  0.00    +0.000 HD
ATOM      9  H   UNL     1       2.054   1.003  18.215  0.00  0.00    +0.000 HD
ENDROOT
BRANCH   1  13
ATOM     10  C   UNL     1       5.595   4.542  16.583  0.00  0.00    +0.000 A 
ATOM     11  C   UNL     1       4.808   5.661  16.432  0.00  0.00    +0.000 A 
ATOM     12  O   UNL     1       3.753   5.562  17.288  0.00  0.00    +0.000 OA
ATOM     13  C   UNL     1       3.958   4.371  17.941  0.00  0.00    +0.000 A 
ATOM     14  N   UNL     1       5.039   3.721  17.543  0.00  0.00    +0.000 NA
BRANCH  10  15
ATOM     15  C   UNL     1       6.853   4.185  15.878  0.00  0.00    +0.000 C 
BRANCH  15  18
ATOM     16  C   UNL     1       6.931   4.349  13.440  0.00  0.00    +0.000 C 
ATOM     17  O   UNL     1       7.592   5.383  13.457  0.00  0.00    +0.000 OA
ATOM     18  N   UNL     1       6.539   3.676  14.563  0.00  0.00    +0.000 N 
ATOM     19  H   UNL     1       5.894   2.898  14.501  0.00  0.00    +0.000 HD
BRANCH  16  21
ATOM     20  C   UNL     1       5.249   3.171  12.107  0.00  0.00    +0.000 C 
ATOM     21  C   UNL     1       6.471   3.716  12.179  0.00  0.00    +0.000 C 
ENDBRANCH  16  21
ENDBRANCH  15  18
ENDBRANCH  10  15
ENDBRANCH   1  13
BRANCH   7  22
ATOM     22  N   UNL     1       2.990   6.278  19.939  0.00  0.00    +0.000 N 
ATOM     23  H   UNL     1       3.865   6.442  20.435  0.00  0.00    +0.000 HD
BRANCH  22  24
ATOM     24  C   UNL     1       2.234   7.456  19.773  0.00  0.00    +0.000 A 
ATOM     25  C   UNL     1       2.135   8.011  18.490  0.00  0.00    +0.000 A 
ATOM     26  C   UNL     1       1.388   9.173  18.258  0.00  0.00    +0.000 A 
ATOM     27  C   UNL     1       0.697   9.794  19.302  0.00  0.00    +0.000 A 
ATOM     28  C   UNL     1       0.650   9.156  20.543  0.00  0.00    +0.000 A 
ATOM     29 CL   UNL     1      -0.407   9.638  21.829  0.00  0.00    +0.000 Cl
ATOM     30  C   UNL     1       1.445   8.028  20.776  0.00  0.00    +0.000 A 
BRANCH  27  31
ATOM     31  O   UNL     1       0.058  10.963  18.961  0.00  0.00    +0.000 OA
BRANCH  31  32
ATOM     32  C   UNL     1      -1.271  10.946  18.598  0.00  0.00    +0.000 A 
ATOM     33  C   UNL     1      -1.828  10.170  17.572  0.00  0.00    +0.000 A 
ATOM     34  C   UNL     1      -3.156  10.370  17.182  0.00  0.00    +0.000 A 
ATOM     35  C   UNL     1      -3.953  11.280  17.872  0.00  0.00    +0.000 A 
ATOM     36  C   UNL     1      -3.423  11.960  18.963  0.00  0.00    +0.000 A 
ATOM     37  F   UNL     1      -4.202  12.803  19.654  0.00  0.00    +0.000 F 
ATOM     38  C   UNL     1      -2.093  11.801  19.332  0.00  0.00    +0.000 A 
ENDBRANCH  31  32
ENDBRANCH  27  31
ENDBRANCH  22  24
ENDBRANCH   7  22
TORSDOF 8
ENDMDL
MODEL 5
REMARK VINA RESULT:      -9.8      2.286      2.842
REMARK  Name = 
REMARK  8 active torsions:
REMARK  status: ('A' for Active; 'I' for Inactive)
REMARK    1  A    between atoms: C_2  and  C_3
REMARK    2  A    between atoms: N_5  and  C_6
REMARK    3  A    between atoms: C_6  and  C_7
REMARK    4  A    between atoms: C_10  and  C_11
REMARK    5  A    between atoms: C_17  and  N_18
REMARK    6  A    between atoms: N_18  and  C_19
REMARK    7  A    between atoms: C_22  and  O_23
REMARK    8  A    between atoms: O_23  and  C_24
REMARK                            x       y       z     vdW  Elec       q    Type
REMARK                         _______ _______ _______ _____ _____    ______ ____
ROOT
ATOM      1  C   UNL     1       2.913   3.779  18.980  0.00  0.00    +0.000 A 
ATOM      2  C   UNL     1       2.186   2.589  18.878  0.00  0.00    +0.000 A 
ATOM      3  N   UNL     1       2.534   1.570  17.993  0.00  0.00    +0.000 N 
ATOM      4  N   UNL     1       1.147   2.286  19.671  0.00  0.00    +0.000 NA
ATOM      5  C   UNL     1       0.818   3.202  20.578  0.00  0.00    +0.000 A 
ATOM      6  N   UNL     1       1.417   4.383  20.741  0.00  0.00    +0.000 NA
ATOM      7  C   UNL     1       2.459   4.686  19.939  0.00  0.00    +0.000 A 
ATOM      8  H   UNL     1       2.743   1.931  17.064  0.00  0.00    +0.000 HD
ATOM      9  H   UNL     1       1.791   0.873  18.004  0.00  0.00    +0.000 HD
ENDROOT
BRANCH   1  13
ATOM     10  C   UNL     1       5.882   4.546  17.153  0.00  0.00    +0.000 A 
ATOM     11  C   UNL     1       4.948   4.358  16.160  0.00  0.00    +0.000 A 
ATOM     12  O   UNL     1       3.763   4.024  16.743  0.00  0.00    +0.000 OA
ATOM     13  C   UNL     1       4.033   4.037  18.089  0.00  0.00    +0.000 A 
ATOM     14  N   UNL     1       5.290   4.330  18.381  0.00  0.00    +0.000 NA
BRANCH  10  15
ATOM     15  C   UNL     1       7.314   4.922  17.028  0.00  0.00    +0.000 C 
BRANCH  15  18
ATOM     16  C   UNL     1       7.832   7.141  17.912  0.00  0.00    +0.000 C 
ATOM     17  O   UNL     1       8.165   6.707  19.011  0.00  0.00    +0.000 OA
ATOM     18  N   UNL     1       7.424   6.354  16.873  0.00  0.00    +0.000 N 
ATOM     19  H   UNL     1       7.044   6.766  16.029  0.00  0.00    +0.000 HD
BRANCH  16  21
ATOM     20  C   UNL     1       8.569   9.440  18.317  0.00  0.00    +0.000 C 
ATOM     21  C   UNL     1       7.827   8.591  17.594  0.00  0.00    +0.000 C 
ENDBRANCH  16  21
ENDBRANCH  15  18
ENDBRANCH  10  15
ENDBRANCH   1  13
BRANCH   7  22
ATOM     22  N   UNL     1       2.981   6.006  19.981  0.00  0.00    +0.000 N 
ATOM     23  H   UNL     1       3.763   6.085  20.629  0.00  0.00    +0.000 HD
BRANCH  22  24
ATOM     24  C   UNL     1       2.386   7.253  19.697  0.00  0.00    +0.000 A 
ATOM     25  C   UNL     1       2.478   7.755  18.392  0.00  0.00    +0.000 A 
ATOM     26  C   UNL     1       1.897   8.981  18.045  0.00  0.00    +0.000 A 
ATOM     27  C   UNL     1       1.185   9.724  18.992  0.00  0.00    +0.000 A 
ATOM     28  C   UNL     1       0.944   9.154  20.243  0.00  0.00    +0.000 A 
ATOM     29 CL   UNL     1      -0.168   9.811  21.398  0.00  0.00    +0.000 Cl
ATOM     30  C   UNL     1       1.576   7.956  20.595  0.00  0.00    +0.000 A 
BRANCH  27  31
ATOM     31  O   UNL     1       0.722  10.940  18.547  0.00  0.00    +0.000 OA
BRANCH  31  32
ATOM     32  C   UNL     1       1.310  12.108  18.985  0.00  0.00    +0.000 A 
ATOM     33  C   UNL     1       0.895  12.866  20.088  0.00  0.00    +0.000 A 
ATOM     34  C   UNL     1       1.459  14.123  20.328  0.00  0.00    +0.000 A 
ATOM     35  C   UNL     1       2.495  14.585  19.520  0.00  0.00    +0.000 A 
ATOM     36  C   UNL     1       2.976  13.775  18.498  0.00  0.00    +0.000 A 
ATOM     37  F   UNL     1       4.001  14.200  17.748  0.00  0.00    +0.000 F 
ATOM     38  C   UNL     1       2.395  12.542  18.224  0.00  0.00    +0.000 A 
ENDBRANCH  31  32
ENDBRANCH  27  31
ENDBRANCH  22  24
ENDBRANCH   7  22
TORSDOF 8
ENDMDL
MODEL 6
REMARK VINA RESULT:      -9.8      2.086      3.166
REMARK  Name = 
REMARK  8 active torsions:
REMARK  status: ('A' for Active; 'I' for Inactive)
REMARK    1  A    between atoms: C_2  and  C_3
REMARK    2  A    between atoms: N_5  and  C_6
REMARK    3  A    between atoms: C_6  and  C_7
REMARK    4  A    between atoms: C_10  and  C_11
REMARK    5  A    between atoms: C_17  and  N_18
REMARK    6  A    between atoms: N_18  and  C_19
REMARK    7  A    between atoms: C_22  and  O_23
REMARK    8  A    between atoms: O_23  and  C_24
REMARK                            x       y       z     vdW  Elec       q    Type
REMARK                         _______ _______ _______ _____ _____    ______ ____
ROOT
ATOM      1  C   UNL     1       4.229   4.074  19.165  0.00  0.00    +0.000 A 
ATOM      2  C   UNL     1       4.155   2.871  19.874  0.00  0.00    +0.000 A 
ATOM      3  N   UNL     1       5.133   1.882  19.780  0.00  0.00    +0.000 N 
ATOM      4  N   UNL     1       3.190   2.595  20.765  0.00  0.00    +0.000 NA
ATOM      5  C   UNL     1       2.268   3.538  20.938  0.00  0.00    +0.000 A 
ATOM      6  N   UNL     1       2.220   4.704  20.293  0.00  0.00    +0.000 NA
ATOM      7  C   UNL     1       3.190   4.977  19.395  0.00  0.00    +0.000 A 
ATOM      8  H   UNL     1       5.395   1.700  18.813  0.00  0.00    +0.000 HD
ATOM      9  H   UNL     1       4.799   1.057  20.276  0.00  0.00    +0.000 HD
ENDROOT
BRANCH   1  13
ATOM     10  C   UNL     1       6.585   4.555  16.528  0.00  0.00    +0.000 A 
ATOM     11  C   UNL     1       7.381   4.519  17.651  0.00  0.00    +0.000 A 
ATOM     12  O   UNL     1       6.578   4.369  18.741  0.00  0.00    +0.000 OA
ATOM     13  C   UNL     1       5.309   4.306  18.220  0.00  0.00    +0.000 A 
ATOM     14  N   UNL     1       5.263   4.427  16.903  0.00  0.00    +0.000 NA
BRANCH  10  15
ATOM     15  C   UNL     1       6.987   4.702  15.105  0.00  0.00    +0.000 C 
BRANCH  15  18
ATOM     16  C   UNL     1       6.379   3.754  12.935  0.00  0.00    +0.000 C 
ATOM     17  O   UNL     1       7.227   4.404  12.331  0.00  0.00    +0.000 OA
ATOM     18  N   UNL     1       6.196   3.810  14.288  0.00  0.00    +0.000 N 
ATOM     19  H   UNL     1       5.407   3.349  14.724  0.00  0.00    +0.000 HD
BRANCH  16  21
ATOM     20  C   UNL     1       4.438   3.319  11.508  0.00  0.00    +0.000 C 
ATOM     21  C   UNL     1       5.442   2.831  12.249  0.00  0.00    +0.000 C 
ENDBRANCH  16  21
ENDBRANCH  15  18
ENDBRANCH  10  15
ENDBRANCH   1  13
BRANCH   7  22
ATOM     22  N   UNL     1       3.046   6.128  18.576  0.00  0.00    +0.000 N 
ATOM     23  H   UNL     1       3.786   6.193  17.879  0.00  0.00    +0.000 HD
BRANCH  22  24
ATOM     24  C   UNL     1       2.415   7.367  18.811  0.00  0.00    +0.000 A 
ATOM     25  C   UNL     1       2.238   8.242  17.732  0.00  0.00    +0.000 A 
ATOM     26  C   UNL     1       1.608   9.482  17.900  0.00  0.00    +0.000 A 
ATOM     27  C   UNL     1       1.114   9.865  19.150  0.00  0.00    +0.000 A 
ATOM     28  C   UNL     1       1.133   8.932  20.189  0.00  0.00    +0.000 A 
ATOM     29 CL   UNL     1       0.289   9.148  21.687  0.00  0.00    +0.000 Cl
ATOM     30  C   UNL     1       1.815   7.721  20.024  0.00  0.00    +0.000 A 
BRANCH  27  31
ATOM     31  O   UNL     1       0.579  11.130  19.200  0.00  0.00    +0.000 OA
BRANCH  31  32
ATOM     32  C   UNL     1      -0.784  11.312  19.091  0.00  0.00    +0.000 A 
ATOM     33  C   UNL     1      -1.583  10.872  18.027  0.00  0.00    +0.000 A 
ATOM     34  C   UNL     1      -2.922  11.270  17.944  0.00  0.00    +0.000 A 
ATOM     35  C   UNL     1      -3.484  12.032  18.965  0.00  0.00    +0.000 A 
ATOM     36  C   UNL     1      -2.713  12.365  20.072  0.00  0.00    +0.000 A 
ATOM     37  F   UNL     1      -3.265  13.061  21.074  0.00  0.00    +0.000 F 
ATOM     38  C   UNL     1      -1.370  12.012  20.145  0.00  0.00    +0.000 A 
ENDBRANCH  31  32
ENDBRANCH  27  31
ENDBRANCH  22  24
ENDBRANCH   7  22
TORSDOF 8
ENDMDL
MODEL 7
REMARK VINA RESULT:      -9.7      1.672      2.540
REMARK  Name = 
REMARK  8 active torsions:
REMARK  status: ('A' for Active; 'I' for Inactive)
REMARK    1  A    between atoms: C_2  and  C_3
REMARK    2  A    between atoms: N_5  and  C_6
REMARK    3  A    between atoms: C_6  and  C_7
REMARK    4  A    between atoms: C_10  and  C_11
REMARK    5  A    between atoms: C_17  and  N_18
REMARK    6  A    between atoms: N_18  and  C_19
REMARK    7  A    between atoms: C_22  and  O_23
REMARK    8  A    between atoms: O_23  and  C_24
REMARK                            x       y       z     vdW  Elec       q    Type
REMARK                         _______ _______ _______ _____ _____    ______ ____
ROOT
ATOM      1  C   UNL     1       3.536   4.349  19.625  0.00  0.00    +0.000 A 
ATOM      2  C   UNL     1       3.059   3.036  19.706  0.00  0.00    +0.000 A 
ATOM      3  N   UNL     1       3.820   1.935  19.315  0.00  0.00    +0.000 N 
ATOM      4  N   UNL     1       1.871   2.712  20.238  0.00  0.00    +0.000 NA
ATOM      5  C   UNL     1       1.135   3.725  20.686  0.00  0.00    +0.000 A 
ATOM      6  N   UNL     1       1.474   5.014  20.629  0.00  0.00    +0.000 NA
ATOM      7  C   UNL     1       2.667   5.338  20.090  0.00  0.00    +0.000 A 
ATOM      8  H   UNL     1       4.270   2.088  18.414  0.00  0.00    +0.000 HD
ATOM      9  H   UNL     1       3.222   1.111  19.340  0.00  0.00    +0.000 HD
ENDROOT
BRANCH   1  13
ATOM     10  C   UNL     1       6.618   4.743  17.870  0.00  0.00    +0.000 A 
ATOM     11  C   UNL     1       6.873   5.348  19.080  0.00  0.00    +0.000 A 
ATOM     12  O   UNL     1       5.741   5.287  19.836  0.00  0.00    +0.000 OA
ATOM     13  C   UNL     1       4.838   4.625  19.041  0.00  0.00    +0.000 A 
ATOM     14  N   UNL     1       5.314   4.292  17.852  0.00  0.00    +0.000 NA
BRANCH  10  15
ATOM     15  C   UNL     1       7.530   4.555  16.712  0.00  0.00    +0.000 C 
BRANCH  15  18
ATOM     16  C   UNL     1       6.898   4.489  14.351  0.00  0.00    +0.000 C 
ATOM     17  O   UNL     1       7.626   5.431  14.054  0.00  0.00    +0.000 OA
ATOM     18  N   UNL     1       6.796   3.972  15.612  0.00  0.00    +0.000 N 
ATOM     19  H   UNL     1       6.094   3.277  15.832  0.00  0.00    +0.000 HD
BRANCH  16  21
ATOM     20  C   UNL     1       6.450   3.641  12.099  0.00  0.00    +0.000 C 
ATOM     21  C   UNL     1       6.030   3.806  13.360  0.00  0.00    +0.000 C 
ENDBRANCH  16  21
ENDBRANCH  15  18
ENDBRANCH  10  15
ENDBRANCH   1  13
BRANCH   7  22
ATOM     22  N   UNL     1       2.954   6.709  19.858  0.00  0.00    +0.000 N 
ATOM     23  H   UNL     1       3.856   6.979  20.243  0.00  0.00    +0.000 HD
BRANCH  22  24
ATOM     24  C   UNL     1       2.105   7.815  19.643  0.00  0.00    +0.000 A 
ATOM     25  C   UNL     1       1.883   8.241  18.326  0.00  0.00    +0.000 A 
ATOM     26  C   UNL     1       1.041   9.324  18.048  0.00  0.00    +0.000 A 
ATOM     27  C   UNL     1       0.377   9.993  19.080  0.00  0.00    +0.000 A 
ATOM     28  C   UNL     1       0.457   9.471  20.373  0.00  0.00    +0.000 A 
ATOM     29 CL   UNL     1      -0.544  10.000  21.684  0.00  0.00    +0.000 Cl
ATOM     30  C   UNL     1       1.345   8.425  20.647  0.00  0.00    +0.000 A 
BRANCH  27  31
ATOM     31  O   UNL     1      -0.365  11.081  18.685  0.00  0.00    +0.000 OA
BRANCH  31  32
ATOM     32  C   UNL     1      -1.699  10.932  18.370  0.00  0.00    +0.000 A 
ATOM     33  C   UNL     1      -2.228   9.984  17.483  0.00  0.00    +0.000 A 
ATOM     34  C   UNL     1      -3.575  10.047  17.110  0.00  0.00    +0.000 A 
ATOM     35  C   UNL     1      -4.412  10.998  17.687  0.00  0.00    +0.000 A 
ATOM     36  C   UNL     1      -3.902  11.860  18.652  0.00  0.00    +0.000 A 
ATOM     37  F   UNL     1      -4.717  12.747  19.238  0.00  0.00    +0.000 F 
ATOM     38  C   UNL     1      -2.556  11.835  18.998  0.00  0.00    +0.000 A 
ENDBRANCH  31  32
ENDBRANCH  27  31
ENDBRANCH  22  24
ENDBRANCH   7  22
TORSDOF 8
ENDMDL
MODEL 8
REMARK VINA RESULT:      -9.7      2.688      3.878
REMARK  Name = 
REMARK  8 active torsions:
REMARK  status: ('A' for Active; 'I' for Inactive)
REMARK    1  A    between atoms: C_2  and  C_3
REMARK    2  A    between atoms: N_5  and  C_6
REMARK    3  A    between atoms: C_6  and  C_7
REMARK    4  A    between atoms: C_10  and  C_11
REMARK    5  A    between atoms: C_17  and  N_18
REMARK    6  A    between atoms: N_18  and  C_19
REMARK    7  A    between atoms: C_22  and  O_23
REMARK    8  A    between atoms: O_23  and  C_24
REMARK                            x       y       z     vdW  Elec       q    Type
REMARK                         _______ _______ _______ _____ _____    ______ ____
ROOT
ATOM      1  C   UNL     1       3.694   3.636  18.786  0.00  0.00    +0.000 A 
ATOM      2  C   UNL     1       3.101   2.379  18.633  0.00  0.00    +0.000 A 
ATOM      3  N   UNL     1       3.631   1.395  17.799  0.00  0.00    +0.000 N 
ATOM      4  N   UNL     1       2.028   1.976  19.330  0.00  0.00    +0.000 NA
ATOM      5  C   UNL     1       1.525   2.858  20.190  0.00  0.00    +0.000 A 
ATOM      6  N   UNL     1       1.986   4.094  20.392  0.00  0.00    +0.000 NA
ATOM      7  C   UNL     1       3.063   4.497  19.686  0.00  0.00    +0.000 A 
ATOM      8  H   UNL     1       3.890   1.771  16.888  0.00  0.00    +0.000 HD
ATOM      9  H   UNL     1       2.963   0.627  17.750  0.00  0.00    +0.000 HD
ENDROOT
BRANCH   1  13
ATOM     10  C   UNL     1       6.338   4.377  16.507  0.00  0.00    +0.000 A 
ATOM     11  C   UNL     1       6.938   4.533  17.736  0.00  0.00    +0.000 A 
ATOM     12  O   UNL     1       6.003   4.303  18.701  0.00  0.00    +0.000 OA
ATOM     13  C   UNL     1       4.861   4.001  18.001  0.00  0.00    +0.000 A 
ATOM     14  N   UNL     1       5.011   4.045  16.687  0.00  0.00    +0.000 NA
BRANCH  10  15
ATOM     15  C   UNL     1       6.935   4.519  15.154  0.00  0.00    +0.000 C 
BRANCH  15  18
ATOM     16  C   UNL     1       6.442   3.768  12.881  0.00  0.00    +0.000 C 
ATOM     17  O   UNL     1       7.242   4.546  12.370  0.00  0.00    +0.000 OA
ATOM     18  N   UNL     1       6.234   3.660  14.227  0.00  0.00    +0.000 N 
ATOM     19  H   UNL     1       5.479   3.093  14.591  0.00  0.00    +0.000 HD
BRANCH  16  21
ATOM     20  C   UNL     1       4.457   3.297  11.527  0.00  0.00    +0.000 C 
ATOM     21  C   UNL     1       5.595   2.852  12.076  0.00  0.00    +0.000 C 
ENDBRANCH  16  21
ENDBRANCH  15  18
ENDBRANCH  10  15
ENDBRANCH   1  13
BRANCH   7  22
ATOM     22  N   UNL     1       3.445   5.863  19.759  0.00  0.00    +0.000 N 
ATOM     23  H   UNL     1       4.255   5.999  20.360  0.00  0.00    +0.000 HD
BRANCH  22  24
ATOM     24  C   UNL     1       2.704   7.049  19.571  0.00  0.00    +0.000 A 
ATOM     25  C   UNL     1       2.708   7.645  18.303  0.00  0.00    +0.000 A 
ATOM     26  C   UNL     1       1.982   8.816  18.052  0.00  0.00    +0.000 A 
ATOM     27  C   UNL     1       1.212   9.405  19.058  0.00  0.00    +0.000 A 
ATOM     28  C   UNL     1       1.066   8.727  20.270  0.00  0.00    +0.000 A 
ATOM     29 CL   UNL     1      -0.089   9.171  21.483  0.00  0.00    +0.000 Cl
ATOM     30  C   UNL     1       1.839   7.590  20.528  0.00  0.00    +0.000 A 
BRANCH  27  31
ATOM     31  O   UNL     1       0.602  10.586  18.706  0.00  0.00    +0.000 OA
BRANCH  31  32
ATOM     32  C   UNL     1       1.209  11.791  18.991  0.00  0.00    +0.000 A 
ATOM     33  C   UNL     1       2.156  12.439  18.186  0.00  0.00    +0.000 A 
ATOM     34  C   UNL     1       2.830  13.567  18.666  0.00  0.00    +0.000 A 
ATOM     35  C   UNL     1       2.497  14.099  19.909  0.00  0.00    +0.000 A 
ATOM     36  C   UNL     1       1.475  13.516  20.648  0.00  0.00    +0.000 A 
ATOM     37  F   UNL     1       1.125  14.052  21.825  0.00  0.00    +0.000 F 
ATOM     38  C   UNL     1       0.828  12.369  20.201  0.00  0.00    +0.000 A 
ENDBRANCH  31  32
ENDBRANCH  27  31
ENDBRANCH  22  24
ENDBRANCH   7  22
TORSDOF 8
ENDMDL
MODEL 9
REMARK VINA RESULT:      -9.5      2.136      3.318
REMARK  Name = 
REMARK  8 active torsions:
REMARK  status: ('A' for Active; 'I' for Inactive)
REMARK    1  A    between atoms: C_2  and  C_3
REMARK    2  A    between atoms: N_5  and  C_6
REMARK    3  A    between atoms: C_6  and  C_7
REMARK    4  A    between atoms: C_10  and  C_11
REMARK    5  A    between atoms: C_17  and  N_18
REMARK    6  A    between atoms: N_18  and  C_19
REMARK    7  A    between atoms: C_22  and  O_23
REMARK    8  A    between atoms: O_23  and  C_24
REMARK                            x       y       z     vdW  Elec       q    Type
REMARK                         _______ _______ _______ _____ _____    ______ ____
ROOT
ATOM      1  C   UNL     1       4.256   4.178  19.272  0.00  0.00    +0.000 A 
ATOM      2  C   UNL     1       4.112   2.963  19.951  0.00  0.00    +0.000 A 
ATOM      3  N   UNL     1       5.005   1.904  19.791  0.00  0.00    +0.000 N 
ATOM      4  N   UNL     1       3.162   2.736  20.869  0.00  0.00    +0.000 NA
ATOM      5  C   UNL     1       2.324   3.742  21.105  0.00  0.00    +0.000 A 
ATOM      6  N   UNL     1       2.346   4.928  20.495  0.00  0.00    +0.000 NA
ATOM      7  C   UNL     1       3.301   5.153  19.568  0.00  0.00    +0.000 A 
ATOM      8  H   UNL     1       5.216   1.732  18.809  0.00  0.00    +0.000 HD
ATOM      9  H   UNL     1       4.625   1.093  20.276  0.00  0.00    +0.000 HD
ENDROOT
BRANCH   1  13
ATOM     10  C   UNL     1       6.560   4.494  16.565  0.00  0.00    +0.000 A 
ATOM     11  C   UNL     1       7.375   4.553  17.672  0.00  0.00    +0.000 A 
ATOM     12  O   UNL     1       6.593   4.473  18.785  0.00  0.00    +0.000 OA
ATOM     13  C   UNL     1       5.316   4.354  18.294  0.00  0.00    +0.000 A 
ATOM     14  N   UNL     1       5.246   4.375  16.973  0.00  0.00    +0.000 NA
BRANCH  10  15
ATOM     15  C   UNL     1       6.934   4.540  15.128  0.00  0.00    +0.000 C 
BRANCH  15  18
ATOM     16  C   UNL     1       5.970   3.820  13.000  0.00  0.00    +0.000 C 
ATOM     17  O   UNL     1       7.049   3.851  12.416  0.00  0.00    +0.000 OA
ATOM     18  N   UNL     1       5.811   4.115  14.325  0.00  0.00    +0.000 N 
ATOM     19  H   UNL     1       4.886   4.193  14.730  0.00  0.00    +0.000 HD
BRANCH  16  21
ATOM     20  C   UNL     1       4.728   2.769  11.171  0.00  0.00    +0.000 C 
ATOM     21  C   UNL     1       4.702   3.461  12.317  0.00  0.00    +0.000 C 
ENDBRANCH  16  21
ENDBRANCH  15  18
ENDBRANCH  10  15
ENDBRANCH   1  13
BRANCH   7  22
ATOM     22  N   UNL     1       3.219   6.335  18.787  0.00  0.00    +0.000 N 
ATOM     23  H   UNL     1       4.064   6.488  18.239  0.00  0.00    +0.000 HD
BRANCH  22  24
ATOM     24  C   UNL     1       2.466   7.516  18.959  0.00  0.00    +0.000 A 
ATOM     25  C   UNL     1       2.279   8.355  17.853  0.00  0.00    +0.000 A 
ATOM     26  C   UNL     1       1.530   9.534  17.957  0.00  0.00    +0.000 A 
ATOM     27  C   UNL     1       0.927   9.889  19.167  0.00  0.00    +0.000 A 
ATOM     28  C   UNL     1       0.965   8.977  20.224  0.00  0.00    +0.000 A 
ATOM     29 CL   UNL     1       0.014   9.137  21.663  0.00  0.00    +0.000 Cl
ATOM     30  C   UNL     1       1.762   7.831  20.126  0.00  0.00    +0.000 A 
BRANCH  27  31
ATOM     31  O   UNL     1       0.278  11.101  19.159  0.00  0.00    +0.000 OA
BRANCH  31  32
ATOM     32  C   UNL     1      -1.046  11.176  18.780  0.00  0.00    +0.000 A 
ATOM     33  C   UNL     1      -2.003  12.043  19.325  0.00  0.00    +0.000 A 
ATOM     34  C   UNL     1      -3.352  11.903  18.983  0.00  0.00    +0.000 A 
ATOM     35  C   UNL     1      -3.733  10.959  18.033  0.00  0.00    +0.000 A 
ATOM     36  C   UNL     1      -2.760  10.183  17.414  0.00  0.00    +0.000 A 
ATOM     37  F   UNL     1      -3.121   9.305  16.469  0.00  0.00    +0.000 F 
ATOM     38  C   UNL     1      -1.422  10.283  17.778  0.00  0.00    +0.000 A 
ENDBRANCH  31  32
ENDBRANCH  27  31
ENDBRANCH  22  24
ENDBRANCH   7  22
TORSDOF 8
ENDMDL
