MODEL 1
REMARK VINA RESULT:      -8.7      0.000      0.000
REMARK  Name = 
REMARK  3 active torsions:
REMARK  status: ('A' for Active; 'I' for Inactive)
REMARK    1  A    between atoms: C_2  and  C_3
REMARK    2  A    between atoms: N_5  and  C_6
REMARK    3  A    between atoms: C_10  and  C_11
REMARK                            x       y       z     vdW  Elec       q    Type
REMARK                         _______ _______ _______ _____ _____    ______ ____
ROOT
ATOM      1  C   UNL     1       6.415   6.097  16.406  0.00  0.00    +0.000 A 
ATOM      2  C   UNL     1       6.908   5.274  15.391  0.00  0.00    +0.000 A 
ATOM      3  C   UNL     1       6.341   4.033  15.135  0.00  0.00    +0.000 A 
ATOM      4  C   UNL     1       5.269   3.595  15.902  0.00  0.00    +0.000 A 
ATOM      5  C   UNL     1       4.761   4.377  16.958  0.00  0.00    +0.000 A 
ATOM      6  C   UNL     1       5.355   5.634  17.195  0.00  0.00    +0.000 A 
ENDROOT
BRANCH   5   7
ATOM      7  C   UNL     1       3.686   3.857  17.822  0.00  0.00    +0.000 A 
ATOM      8  C   UNL     1       2.360   3.683  17.373  0.00  0.00    +0.000 A 
ATOM      9  N   UNL     1       1.309   3.284  18.140  0.00  0.00    +0.000 NA
ATOM     10  C   UNL     1       1.620   3.044  19.410  0.00  0.00    +0.000 A 
ATOM     11  C   UNL     1       2.885   3.153  19.960  0.00  0.00    +0.000 A 
ATOM     12  C   UNL     1       3.937   3.559  19.171  0.00  0.00    +0.000 A 
ATOM     13  C   UNL     1       2.844   2.823  21.414  0.00  0.00    +0.000 C 
ATOM     14  C   UNL     1       1.357   2.523  21.618  0.00  0.00    +0.000 C 
ATOM     15  O   UNL     1       0.820   2.217  22.669  0.00  0.00    +0.000 OA
ATOM     16  N   UNL     1       0.729   2.672  20.393  0.00  0.00    +0.000 N 
ATOM     17  H   UNL     1      -0.257   2.551  20.231  0.00  0.00    +0.000 HD
ENDBRANCH   5   7
BRANCH   1  20
ATOM     18  C   UNL     1       7.714   7.676  17.795  0.00  0.00    +0.000 C 
ATOM     19  O   UNL     1       8.079   6.890  18.666  0.00  0.00    +0.000 OA
ATOM     20  N   UNL     1       6.965   7.370  16.680  0.00  0.00    +0.000 N 
ATOM     21  H   UNL     1       6.855   8.078  15.962  0.00  0.00    +0.000 HD
BRANCH  18  23
ATOM     22  C   UNL     1       8.933   9.482  18.867  0.00  0.00    +0.000 C 
ATOM     23  C   UNL     1       8.124   9.100  17.867  0.00  0.00    +0.000 C 
ENDBRANCH  18  23
ENDBRANCH   1  20
TORSDOF 3
ENDMDL
MODEL 2
REMARK VINA RESULT:      -8.1      2.634      4.298
REMARK  Name = 
REMARK  3 active torsions:
REMARK  status: ('A' for Active; 'I' for Inactive)
REMARK    1  A    between atoms: C_2  and  C_3
REMARK    2  A    between atoms: N_5  and  C_6
REMARK    3  A    between atoms: C_10  and  C_11
REMARK                            x       y       z     vdW  Elec       q    Type
REMARK                         _______ _______ _______ _____ _____    ______ ____
ROOT
ATOM      1  C   UNL     1       5.918   4.347  14.749  0.00  0.00    +0.000 A 
ATOM      2  C   UNL     1       6.234   5.704  14.835  0.00  0.00    +0.000 A 
ATOM      3  C   UNL     1       5.696   6.504  15.835  0.00  0.00    +0.000 A 
ATOM      4  C   UNL     1       4.824   5.951  16.764  0.00  0.00    +0.000 A 
ATOM      5  C   UNL     1       4.451   4.594  16.696  0.00  0.00    +0.000 A 
ATOM      6  C   UNL     1       5.013   3.804  15.671  0.00  0.00    +0.000 A 
ENDROOT
BRANCH   5   7
ATOM      7  C   UNL     1       3.453   4.046  17.631  0.00  0.00    +0.000 A 
ATOM      8  C   UNL     1       2.093   3.884  17.292  0.00  0.00    +0.000 A 
ATOM      9  N   UNL     1       1.111   3.460  18.132  0.00  0.00    +0.000 NA
ATOM     10  C   UNL     1       1.529   3.179  19.363  0.00  0.00    +0.000 A 
ATOM     11  C   UNL     1       2.837   3.272  19.806  0.00  0.00    +0.000 A 
ATOM     12  C   UNL     1       3.818   3.704  18.944  0.00  0.00    +0.000 A 
ATOM     13  C   UNL     1       2.919   2.895  21.247  0.00  0.00    +0.000 C 
ATOM     14  C   UNL     1       1.455   2.588  21.567  0.00  0.00    +0.000 C 
ATOM     15  O   UNL     1       1.009   2.247  22.650  0.00  0.00    +0.000 OA
ATOM     16  N   UNL     1       0.724   2.775  20.406  0.00  0.00    +0.000 N 
ATOM     17  H   UNL     1      -0.272   2.657  20.324  0.00  0.00    +0.000 HD
ENDBRANCH   5   7
BRANCH   1  20
ATOM     18  C   UNL     1       5.856   3.236  12.542  0.00  0.00    +0.000 C 
ATOM     19  O   UNL     1       4.813   3.730  12.122  0.00  0.00    +0.000 OA
ATOM     20  N   UNL     1       6.461   3.507  13.750  0.00  0.00    +0.000 N 
ATOM     21  H   UNL     1       7.394   3.145  13.916  0.00  0.00    +0.000 HD
BRANCH  18  23
ATOM     22  C   UNL     1       5.959   1.223  11.187  0.00  0.00    +0.000 C 
ATOM     23  C   UNL     1       6.612   2.279  11.697  0.00  0.00    +0.000 C 
ENDBRANCH  18  23
ENDBRANCH   1  20
TORSDOF 3
ENDMDL
MODEL 3
REMARK VINA RESULT:      -7.9      5.050      7.153
REMARK  Name = 
REMARK  3 active torsions:
REMARK  status: ('A' for Active; 'I' for Inactive)
REMARK    1  A    between atoms: C_2  and  C_3
REMARK    2  A    between atoms: N_5  and  C_6
REMARK    3  A    between atoms: C_10  and  C_11
REMARK                            x       y       z     vdW  Elec       q    Type
REMARK                         _______ _______ _______ _____ _____    ______ ____
ROOT
ATOM      1  C   UNL     1       0.884   9.445  19.973  0.00  0.00    +0.000 A 
ATOM      2  C   UNL     1       0.423   9.998  18.777  0.00  0.00    +0.000 A 
ATOM      3  C   UNL     1       0.847   9.508  17.549  0.00  0.00    +0.000 A 
ATOM      4  C   UNL     1       1.751   8.455  17.504  0.00  0.00    +0.000 A 
ATOM      5  C   UNL     1       2.269   7.887  18.685  0.00  0.00    +0.000 A 
ATOM      6  C   UNL     1       1.819   8.403  19.919  0.00  0.00    +0.000 A 
ENDROOT
BRANCH   5   7
ATOM      7  C   UNL     1       3.297   6.833  18.619  0.00  0.00    +0.000 A 
ATOM      8  C   UNL     1       3.286   5.700  19.458  0.00  0.00    +0.000 A 
ATOM      9  N   UNL     1       4.245   4.736  19.502  0.00  0.00    +0.000 NA
ATOM     10  C   UNL     1       5.249   4.926  18.651  0.00  0.00    +0.000 A 
ATOM     11  C   UNL     1       5.357   5.981  17.762  0.00  0.00    +0.000 A 
ATOM     12  C   UNL     1       4.380   6.949  17.732  0.00  0.00    +0.000 A 
ATOM     13  C   UNL     1       6.627   5.871  16.986  0.00  0.00    +0.000 C 
ATOM     14  C   UNL     1       7.238   4.599  17.578  0.00  0.00    +0.000 C 
ATOM     15  O   UNL     1       8.307   4.102  17.270  0.00  0.00    +0.000 OA
ATOM     16  N   UNL     1       6.359   4.119  18.534  0.00  0.00    +0.000 N 
ATOM     17  H   UNL     1       6.510   3.298  19.097  0.00  0.00    +0.000 HD
ENDBRANCH   5   7
BRANCH   1  20
ATOM     18  C   UNL     1      -0.399   9.236  22.076  0.00  0.00    +0.000 C 
ATOM     19  O   UNL     1      -0.856   8.111  21.896  0.00  0.00    +0.000 OA
ATOM     20  N   UNL     1       0.459   9.914  21.237  0.00  0.00    +0.000 N 
ATOM     21  H   UNL     1       0.879  10.775  21.569  0.00  0.00    +0.000 HD
BRANCH  18  23
ATOM     22  C   UNL     1      -1.365  11.152  23.213  0.00  0.00    +0.000 C 
ATOM     23  C   UNL     1      -0.727   9.976  23.319  0.00  0.00    +0.000 C 
ENDBRANCH  18  23
ENDBRANCH   1  20
TORSDOF 3
ENDMDL
MODEL 4
REMARK VINA RESULT:      -7.9      3.588      6.770
REMARK  Name = 
REMARK  3 active torsions:
REMARK  status: ('A' for Active; 'I' for Inactive)
REMARK    1  A    between atoms: C_2  and  C_3
REMARK    2  A    between atoms: N_5  and  C_6
REMARK    3  A    between atoms: C_10  and  C_11
REMARK                            x       y       z     vdW  Elec       q    Type
REMARK                         _______ _______ _______ _____ _____    ______ ____
ROOT
ATOM      1  C   UNL     1       1.869   5.885  20.501  0.00  0.00    +0.000 A 
ATOM      2  C   UNL     1       1.131   4.714  20.688  0.00  0.00    +0.000 A 
ATOM      3  C   UNL     1       1.518   3.521  20.094  0.00  0.00    +0.000 A 
ATOM      4  C   UNL     1       2.653   3.486  19.294  0.00  0.00    +0.000 A 
ATOM      5  C   UNL     1       3.409   4.649  19.051  0.00  0.00    +0.000 A 
ATOM      6  C   UNL     1       2.995   5.848  19.668  0.00  0.00    +0.000 A 
ENDROOT
BRANCH   5   7
ATOM      7  C   UNL     1       4.555   4.615  18.125  0.00  0.00    +0.000 A 
ATOM      8  C   UNL     1       5.895   4.624  18.565  0.00  0.00    +0.000 A 
ATOM      9  N   UNL     1       6.993   4.675  17.763  0.00  0.00    +0.000 NA
ATOM     10  C   UNL     1       6.718   4.706  16.462  0.00  0.00    +0.000 A 
ATOM     11  C   UNL     1       5.450   4.674  15.911  0.00  0.00    +0.000 A 
ATOM     12  C   UNL     1       4.350   4.625  16.735  0.00  0.00    +0.000 A 
ATOM     13  C   UNL     1       5.535   4.745  14.423  0.00  0.00    +0.000 C 
ATOM     14  C   UNL     1       7.047   4.839  14.207  0.00  0.00    +0.000 C 
ATOM     15  O   UNL     1       7.618   4.937  13.134  0.00  0.00    +0.000 OA
ATOM     16  N   UNL     1       7.650   4.802  15.453  0.00  0.00    +0.000 N 
ATOM     17  H   UNL     1       8.642   4.861  15.616  0.00  0.00    +0.000 HD
ENDBRANCH   5   7
BRANCH   1  20
ATOM     18  C   UNL     1       1.447   8.320  20.447  0.00  0.00    +0.000 C 
ATOM     19  O   UNL     1       1.621   8.505  19.245  0.00  0.00    +0.000 OA
ATOM     20  N   UNL     1       1.507   7.111  21.105  0.00  0.00    +0.000 N 
ATOM     21  H   UNL     1       1.200   7.071  22.071  0.00  0.00    +0.000 HD
BRANCH  18  23
ATOM     22  C   UNL     1       0.679   9.201  22.575  0.00  0.00    +0.000 C 
ATOM     23  C   UNL     1       1.093   9.461  21.325  0.00  0.00    +0.000 C 
ENDBRANCH  18  23
ENDBRANCH   1  20
TORSDOF 3
ENDMDL
MODEL 5
REMARK VINA RESULT:      -7.7      4.619      5.533
REMARK  Name = 
REMARK  3 active torsions:
REMARK  status: ('A' for Active; 'I' for Inactive)
REMARK    1  A    between atoms: C_2  and  C_3
REMARK    2  A    between atoms: N_5  and  C_6
REMARK    3  A    between atoms: C_10  and  C_11
REMARK                            x       y       z     vdW  Elec       q    Type
REMARK                         _______ _______ _______ _____ _____    ______ ____
ROOT
ATOM      1  C   UNL     1       4.508   4.613  17.272  0.00  0.00    +0.000 A 
ATOM      2  C   UNL     1       4.623   3.631  18.257  0.00  0.00    +0.000 A 
ATOM      3  C   UNL     1       3.988   3.768  19.484  0.00  0.00    +0.000 A 
ATOM      4  C   UNL     1       3.228   4.901  19.743  0.00  0.00    +0.000 A 
ATOM      5  C   UNL     1       3.110   5.933  18.792  0.00  0.00    +0.000 A 
ATOM      6  C   UNL     1       3.766   5.768  17.553  0.00  0.00    +0.000 A 
ENDROOT
BRANCH   5   7
ATOM      7  C   UNL     1       2.379   7.170  19.117  0.00  0.00    +0.000 A 
ATOM      8  C   UNL     1       2.147   8.194  18.174  0.00  0.00    +0.000 A 
ATOM      9  N   UNL     1       1.551   9.389  18.432  0.00  0.00    +0.000 NA
ATOM     10  C   UNL     1       1.165   9.546  19.694  0.00  0.00    +0.000 A 
ATOM     11  C   UNL     1       1.313   8.607  20.700  0.00  0.00    +0.000 A 
ATOM     12  C   UNL     1       1.919   7.404  20.424  0.00  0.00    +0.000 A 
ATOM     13  C   UNL     1       0.781   9.144  21.986  0.00  0.00    +0.000 C 
ATOM     14  C   UNL     1       0.320  10.542  21.567  0.00  0.00    +0.000 C 
ATOM     15  O   UNL     1      -0.177  11.386  22.293  0.00  0.00    +0.000 OA
ATOM     16  N   UNL     1       0.580  10.680  20.214  0.00  0.00    +0.000 N 
ATOM     17  H   UNL     1       0.393  11.506  19.671  0.00  0.00    +0.000 HD
ENDBRANCH   5   7
BRANCH   1  20
ATOM     18  C   UNL     1       6.451   4.804  15.757  0.00  0.00    +0.000 C 
ATOM     19  O   UNL     1       7.291   5.151  16.585  0.00  0.00    +0.000 OA
ATOM     20  N   UNL     1       5.133   4.495  16.010  0.00  0.00    +0.000 N 
ATOM     21  H   UNL     1       4.582   4.081  15.265  0.00  0.00    +0.000 HD
BRANCH  18  23
ATOM     22  C   UNL     1       6.070   3.878  13.545  0.00  0.00    +0.000 C 
ATOM     23  C   UNL     1       6.841   4.642  14.335  0.00  0.00    +0.000 C 
ENDBRANCH  18  23
ENDBRANCH   1  20
TORSDOF 3
ENDMDL
MODEL 6
REMARK VINA RESULT:      -7.7      3.039      4.554
REMARK  Name = 
REMARK  3 active torsions:
REMARK  status: ('A' for Active; 'I' for Inactive)
REMARK    1  A    between atoms: C_2  and  C_3
REMARK    2  A    between atoms: N_5  and  C_6
REMARK    3  A    between atoms: C_10  and  C_11
REMARK                            x       y       z     vdW  Elec       q    Type
REMARK                         _______ _______ _______ _____ _____    ______ ____
ROOT
ATOM      1  C   UNL     1       5.830   4.457  14.678  0.00  0.00    +0.000 A 
ATOM      2  C   UNL     1       5.613   5.820  14.473  0.00  0.00    +0.000 A 
ATOM      3  C   UNL     1       5.058   6.615  15.467  0.00  0.00    +0.000 A 
ATOM      4  C   UNL     1       4.707   6.048  16.686  0.00  0.00    +0.000 A 
ATOM      5  C   UNL     1       4.878   4.670  16.925  0.00  0.00    +0.000 A 
ATOM      6  C   UNL     1       5.444   3.886  15.898  0.00  0.00    +0.000 A 
ENDROOT
BRANCH   5   7
ATOM      7  C   UNL     1       4.414   4.068  18.187  0.00  0.00    +0.000 A 
ATOM      8  C   UNL     1       5.192   3.158  18.933  0.00  0.00    +0.000 A 
ATOM      9  N   UNL     1       4.791   2.508  20.059  0.00  0.00    +0.000 NA
ATOM     10  C   UNL     1       3.554   2.803  20.448  0.00  0.00    +0.000 A 
ATOM     11  C   UNL     1       2.707   3.697  19.817  0.00  0.00    +0.000 A 
ATOM     12  C   UNL     1       3.127   4.345  18.678  0.00  0.00    +0.000 A 
ATOM     13  C   UNL     1       1.397   3.753  20.528  0.00  0.00    +0.000 C 
ATOM     14  C   UNL     1       1.617   2.741  21.655  0.00  0.00    +0.000 C 
ATOM     15  O   UNL     1       0.805   2.421  22.506  0.00  0.00    +0.000 OA
ATOM     16  N   UNL     1       2.904   2.247  21.528  0.00  0.00    +0.000 N 
ATOM     17  H   UNL     1       3.318   1.552  22.127  0.00  0.00    +0.000 HD
ENDBRANCH   5   7
BRANCH   1  20
ATOM     18  C   UNL     1       5.773   3.240  12.527  0.00  0.00    +0.000 C 
ATOM     19  O   UNL     1       4.666   3.610  12.141  0.00  0.00    +0.000 OA
ATOM     20  N   UNL     1       6.405   3.627  13.688  0.00  0.00    +0.000 N 
ATOM     21  H   UNL     1       7.377   3.366  13.819  0.00  0.00    +0.000 HD
BRANCH  18  23
ATOM     22  C   UNL     1       5.987   1.224  11.190  0.00  0.00    +0.000 C 
ATOM     23  C   UNL     1       6.579   2.323  11.685  0.00  0.00    +0.000 C 
ENDBRANCH  18  23
ENDBRANCH   1  20
TORSDOF 3
ENDMDL
MODEL 7
REMARK VINA RESULT:      -7.7      5.927      8.002
REMARK  Name = 
REMARK  3 active torsions:
REMARK  status: ('A' for Active; 'I' for Inactive)
REMARK    1  A    between atoms: C_2  and  C_3
REMARK    2  A    between atoms: N_5  and  C_6
REMARK    3  A    between atoms: C_10  and  C_11
REMARK                            x       y       z     vdW  Elec       q    Type
REMARK                         _______ _______ _______ _____ _____    ______ ____
ROOT
ATOM      1  C   UNL     1      -0.402  10.232  18.285  0.00  0.00    +0.000 A 
ATOM      2  C   UNL     1      -0.596  10.651  19.602  0.00  0.00    +0.000 A 
ATOM      3  C   UNL     1       0.184  10.151  20.636  0.00  0.00    +0.000 A 
ATOM      4  C   UNL     1       1.172   9.213  20.361  0.00  0.00    +0.000 A 
ATOM      5  C   UNL     1       1.381   8.737  19.052  0.00  0.00    +0.000 A 
ATOM      6  C   UNL     1       0.574   9.263  18.021  0.00  0.00    +0.000 A 
ENDROOT
BRANCH   5   7
ATOM      7  C   UNL     1       2.368   7.674  18.792  0.00  0.00    +0.000 A 
ATOM      8  C   UNL     1       2.596   6.606  19.685  0.00  0.00    +0.000 A 
ATOM      9  N   UNL     1       3.545   5.642  19.542  0.00  0.00    +0.000 NA
ATOM     10  C   UNL     1       4.283   5.761  18.443  0.00  0.00    +0.000 A 
ATOM     11  C   UNL     1       4.137   6.746  17.482  0.00  0.00    +0.000 A 
ATOM     12  C   UNL     1       3.174   7.716  17.643  0.00  0.00    +0.000 A 
ATOM     13  C   UNL     1       5.154   6.569  16.405  0.00  0.00    +0.000 C 
ATOM     14  C   UNL     1       5.918   5.341  16.905  0.00  0.00    +0.000 C 
ATOM     15  O   UNL     1       6.873   4.814  16.360  0.00  0.00    +0.000 OA
ATOM     16  N   UNL     1       5.333   4.939  18.094  0.00  0.00    +0.000 N 
ATOM     17  H   UNL     1       5.638   4.162  18.655  0.00  0.00    +0.000 HD
ENDBRANCH   5   7
BRANCH   1  20
ATOM     18  C   UNL     1      -2.431  10.283  16.872  0.00  0.00    +0.000 C 
ATOM     19  O   UNL     1      -3.095   9.449  17.483  0.00  0.00    +0.000 OA
ATOM     20  N   UNL     1      -1.173  10.734  17.211  0.00  0.00    +0.000 N 
ATOM     21  H   UNL     1      -0.794  11.530  16.710  0.00  0.00    +0.000 HD
BRANCH  18  23
ATOM     22  C   UNL     1      -3.189  10.201  14.567  0.00  0.00    +0.000 C 
ATOM     23  C   UNL     1      -2.997  10.942  15.670  0.00  0.00    +0.000 C 
ENDBRANCH  18  23
ENDBRANCH   1  20
TORSDOF 3
ENDMDL
MODEL 8
REMARK VINA RESULT:      -7.7      4.420      5.484
REMARK  Name = 
REMARK  3 active torsions:
REMARK  status: ('A' for Active; 'I' for Inactive)
REMARK    1  A    between atoms: C_2  and  C_3
REMARK    2  A    between atoms: N_5  and  C_6
REMARK    3  A    between atoms: C_10  and  C_11
REMARK                            x       y       z     vdW  Elec       q    Type
REMARK                         _______ _______ _______ _____ _____    ______ ____
ROOT
ATOM      1  C   UNL     1       5.182   4.626  16.814  0.00  0.00    +0.000 A 
ATOM      2  C   UNL     1       5.811   4.076  17.932  0.00  0.00    +0.000 A 
ATOM      3  C   UNL     1       5.486   4.495  19.215  0.00  0.00    +0.000 A 
ATOM      4  C   UNL     1       4.524   5.481  19.394  0.00  0.00    +0.000 A 
ATOM      5  C   UNL     1       3.887   6.087  18.293  0.00  0.00    +0.000 A 
ATOM      6  C   UNL     1       4.236   5.642  17.001  0.00  0.00    +0.000 A 
ENDROOT
BRANCH   5   7
ATOM      7  C   UNL     1       2.939   7.197  18.496  0.00  0.00    +0.000 A 
ATOM      8  C   UNL     1       2.725   8.206  17.535  0.00  0.00    +0.000 A 
ATOM      9  N   UNL     1       1.926   9.296  17.693  0.00  0.00    +0.000 NA
ATOM     10  C   UNL     1       1.311   9.356  18.871  0.00  0.00    +0.000 A 
ATOM     11  C   UNL     1       1.420   8.416  19.880  0.00  0.00    +0.000 A 
ATOM     12  C   UNL     1       2.234   7.320  19.705  0.00  0.00    +0.000 A 
ATOM     13  C   UNL     1       0.604   8.830  21.059  0.00  0.00    +0.000 C 
ATOM     14  C   UNL     1       0.024  10.161  20.576  0.00  0.00    +0.000 C 
ATOM     15  O   UNL     1      -0.708  10.901  21.211  0.00  0.00    +0.000 OA
ATOM     16  N   UNL     1       0.487  10.378  19.290  0.00  0.00    +0.000 N 
ATOM     17  H   UNL     1       0.277  11.186  18.728  0.00  0.00    +0.000 HD
ENDBRANCH   5   7
BRANCH   1  20
ATOM     18  C   UNL     1       6.556   4.661  14.759  0.00  0.00    +0.000 C 
ATOM     19  O   UNL     1       7.440   5.419  15.148  0.00  0.00    +0.000 OA
ATOM     20  N   UNL     1       5.483   4.209  15.497  0.00  0.00    +0.000 N 
ATOM     21  H   UNL     1       4.906   3.472  15.108  0.00  0.00    +0.000 HD
BRANCH  18  23
ATOM     22  C   UNL     1       5.488   3.599  12.854  0.00  0.00    +0.000 C 
ATOM     23  C   UNL     1       6.612   4.104  13.385  0.00  0.00    +0.000 C 
ENDBRANCH  18  23
ENDBRANCH   1  20
TORSDOF 3
ENDMDL
MODEL 9
REMARK VINA RESULT:      -7.6      2.238      3.827
REMARK  Name = 
REMARK  3 active torsions:
REMARK  status: ('A' for Active; 'I' for Inactive)
REMARK    1  A    between atoms: C_2  and  C_3
REMARK    2  A    between atoms: N_5  and  C_6
REMARK    3  A    between atoms: C_10  and  C_11
REMARK                            x       y       z     vdW  Elec       q    Type
REMARK                         _______ _______ _______ _____ _____    ______ ____
ROOT
ATOM      1  C   UNL     1       6.292   4.189  15.101  0.00  0.00    +0.000 A 
ATOM      2  C   UNL     1       7.209   5.112  15.606  0.00  0.00    +0.000 A 
ATOM      3  C   UNL     1       7.086   5.613  16.895  0.00  0.00    +0.000 A 
ATOM      4  C   UNL     1       6.032   5.197  17.697  0.00  0.00    +0.000 A 
ATOM      5  C   UNL     1       5.064   4.292  17.218  0.00  0.00    +0.000 A 
ATOM      6  C   UNL     1       5.214   3.798  15.905  0.00  0.00    +0.000 A 
ENDROOT
BRANCH   5   7
ATOM      7  C   UNL     1       3.901   3.933  18.048  0.00  0.00    +0.000 A 
ATOM      8  C   UNL     1       2.570   4.181  17.650  0.00  0.00    +0.000 A 
ATOM      9  N   UNL     1       1.460   3.947  18.401  0.00  0.00    +0.000 NA
ATOM     10  C   UNL     1       1.712   3.431  19.601  0.00  0.00    +0.000 A 
ATOM     11  C   UNL     1       2.968   3.121  20.092  0.00  0.00    +0.000 A 
ATOM     12  C   UNL     1       4.080   3.365  19.320  0.00  0.00    +0.000 A 
ATOM     13  C   UNL     1       2.858   2.581  21.479  0.00  0.00    +0.000 C 
ATOM     14  C   UNL     1       1.348   2.645  21.713  0.00  0.00    +0.000 C 
ATOM     15  O   UNL     1       0.761   2.321  22.732  0.00  0.00    +0.000 OA
ATOM     16  N   UNL     1       0.766   3.147  20.561  0.00  0.00    +0.000 N 
ATOM     17  H   UNL     1      -0.219   3.311  20.435  0.00  0.00    +0.000 HD
ENDBRANCH   5   7
BRANCH   1  20
ATOM     18  C   UNL     1       7.060   4.261  12.752  0.00  0.00    +0.000 C 
ATOM     19  O   UNL     1       7.707   5.304  12.808  0.00  0.00    +0.000 OA
ATOM     20  N   UNL     1       6.400   3.652  13.797  0.00  0.00    +0.000 N 
ATOM     21  H   UNL     1       6.027   2.720  13.655  0.00  0.00    +0.000 HD
BRANCH  18  23
ATOM     22  C   UNL     1       6.516   2.251  11.503  0.00  0.00    +0.000 C 
ATOM     23  C   UNL     1       6.977   3.511  11.475  0.00  0.00    +0.000 C 
ENDBRANCH  18  23
ENDBRANCH   1  20
TORSDOF 3
ENDMDL
