MODEL 1
REMARK VINA RESULT:      -8.8      0.000      0.000
REMARK  Name = 
REMARK  6 active torsions:
REMARK  status: ('A' for Active; 'I' for Inactive)
REMARK    1  A    between atoms: C_1  and  C_2
REMARK    2  A    between atoms: N_4  and  C_5
REMARK    3  A    between atoms: C_5  and  C_6
REMARK    4  A    between atoms: C_6  and  C_7
REMARK    5  A    between atoms: C_15  and  C_16
REMARK    6  A    between atoms: N_18  and  C_19
REMARK                            x       y       z     vdW  Elec       q    Type
REMARK                         _______ _______ _______ _____ _____    ______ ____
ROOT
ATOM      1  C   UNL     1       4.849   6.435  16.444  0.00  0.00    +0.000 C 
ATOM      2  C   UNL     1       3.962   6.504  17.634  0.00  0.00    +0.000 A 
ATOM      3  C   UNL     1       3.800   5.527  18.597  0.00  0.00    +0.000 A 
ATOM      4  N   UNL     1       2.900   5.974  19.530  0.00  0.00    +0.000 N 
ATOM      5  C   UNL     1       2.434   7.226  19.169  0.00  0.00    +0.000 A 
ATOM      6  C   UNL     1       1.481   8.081  19.757  0.00  0.00    +0.000 A 
ATOM      7  C   UNL     1       1.209   9.325  19.160  0.00  0.00    +0.000 A 
ATOM      8  C   UNL     1       1.895   9.716  18.012  0.00  0.00    +0.000 A 
ATOM      9  C   UNL     1       2.836   8.854  17.420  0.00  0.00    +0.000 A 
ATOM     10  C   UNL     1       3.103   7.593  17.996  0.00  0.00    +0.000 A 
ENDROOT
BRANCH   7  11
ATOM     11  C   UNL     1       0.190  10.198  19.836  0.00  0.00    +0.000 C 
ATOM     12  O   UNL     1      -0.956  10.190  19.438  0.00  0.00    +0.000 OA
ATOM     13  N   UNL     1       0.682  11.055  20.829  0.00  0.00    +0.000 N 
ATOM     14  H   UNL     1       1.654  11.327  20.749  0.00  0.00    +0.000 HD
BRANCH  13  15
ATOM     15  C   UNL     1      -0.203  11.945  21.515  0.00  0.00    +0.000 A 
ATOM     16  C   UNL     1      -0.369  13.276  21.094  0.00  0.00    +0.000 A 
ATOM     17 CL   UNL     1       0.453  13.955  19.733  0.00  0.00    +0.000 Cl
ATOM     18  C   UNL     1      -1.299  14.071  21.748  0.00  0.00    +0.000 A 
ATOM     19  N   UNL     1      -2.069  13.658  22.784  0.00  0.00    +0.000 NA
ATOM     20  C   UNL     1      -1.869  12.387  23.198  0.00  0.00    +0.000 A 
ATOM     21  C   UNL     1      -0.970  11.503  22.611  0.00  0.00    +0.000 A 
ATOM     22 CL   UNL     1      -0.721   9.965  23.348  0.00  0.00    +0.000 Cl
ENDBRANCH  13  15
ENDBRANCH   7  11
BRANCH   4  23
ATOM     23  C   UNL     1       2.451   5.192  20.680  0.00  0.00    +0.000 C 
BRANCH  23  24
ATOM     24  C   UNL     1       1.139   4.388  20.495  0.00  0.00    +0.000 C 
BRANCH  24  25
ATOM     25  C   UNL     1       1.390   2.862  20.493  0.00  0.00    +0.000 C 
ATOM     26  C   UNL     1       1.008   2.233  19.143  0.00  0.00    +0.000 C 
ATOM     27  C   UNL     1       2.089   2.395  18.086  0.00  0.00    +0.000 C 
ATOM     28  C   UNL     1       3.348   1.687  18.548  0.00  0.00    +0.000 C 
ATOM     29  C   UNL     1       3.866   2.320  19.836  0.00  0.00    +0.000 C 
ATOM     30  C   UNL     1       2.799   2.406  20.931  0.00  0.00    +0.000 C 
ENDBRANCH  24  25
ENDBRANCH  23  24
ENDBRANCH   4  23
TORSDOF 5
ENDMDL
MODEL 2
REMARK VINA RESULT:      -8.7      0.159      1.696
REMARK  Name = 
REMARK  6 active torsions:
REMARK  status: ('A' for Active; 'I' for Inactive)
REMARK    1  A    between atoms: C_1  and  C_2
REMARK    2  A    between atoms: N_4  and  C_5
REMARK    3  A    between atoms: C_5  and  C_6
REMARK    4  A    between atoms: C_6  and  C_7
REMARK    5  A    between atoms: C_15  and  C_16
REMARK    6  A    between atoms: N_18  and  C_19
REMARK                            x       y       z     vdW  Elec       q    Type
REMARK                         _______ _______ _______ _____ _____    ______ ____
ROOT
ATOM      1  C   UNL     1       4.837   6.524  16.473  0.00  0.00    +0.000 C 
ATOM      2  C   UNL     1       3.939   6.590  17.655  0.00  0.00    +0.000 A 
ATOM      3  C   UNL     1       3.772   5.612  18.616  0.00  0.00    +0.000 A 
ATOM      4  N   UNL     1       2.861   6.055  19.540  0.00  0.00    +0.000 N 
ATOM      5  C   UNL     1       2.393   7.305  19.174  0.00  0.00    +0.000 A 
ATOM      6  C   UNL     1       1.431   8.155  19.753  0.00  0.00    +0.000 A 
ATOM      7  C   UNL     1       1.158   9.398  19.154  0.00  0.00    +0.000 A 
ATOM      8  C   UNL     1       1.854   9.792  18.012  0.00  0.00    +0.000 A 
ATOM      9  C   UNL     1       2.804   8.935  17.429  0.00  0.00    +0.000 A 
ATOM     10  C   UNL     1       3.072   7.675  18.007  0.00  0.00    +0.000 A 
ENDROOT
BRANCH   7  11
ATOM     11  C   UNL     1       0.129  10.267  19.820  0.00  0.00    +0.000 C 
ATOM     12  O   UNL     1      -1.027  10.202  19.456  0.00  0.00    +0.000 OA
ATOM     13  N   UNL     1       0.618  11.184  20.758  0.00  0.00    +0.000 N 
ATOM     14  H   UNL     1       1.578  11.484  20.637  0.00  0.00    +0.000 HD
BRANCH  13  15
ATOM     15  C   UNL     1      -0.277  12.074  21.429  0.00  0.00    +0.000 A 
ATOM     16  C   UNL     1      -0.961  11.680  22.593  0.00  0.00    +0.000 A 
ATOM     17 CL   UNL     1      -0.787  10.121  23.319  0.00  0.00    +0.000 Cl
ATOM     18  C   UNL     1      -1.755  12.611  23.247  0.00  0.00    +0.000 A 
ATOM     19  N   UNL     1      -1.932  13.891  22.840  0.00  0.00    +0.000 NA
ATOM     20  C   UNL     1      -1.296  14.241  21.699  0.00  0.00    +0.000 A 
ATOM     21  C   UNL     1      -0.471  13.391  20.969  0.00  0.00    +0.000 A 
ATOM     22 CL   UNL     1       0.148  13.938  19.456  0.00  0.00    +0.000 Cl
ENDBRANCH  13  15
ENDBRANCH   7  11
BRANCH   4  23
ATOM     23  C   UNL     1       2.406   5.272  20.686  0.00  0.00    +0.000 C 
BRANCH  23  24
ATOM     24  C   UNL     1       1.073   4.500  20.506  0.00  0.00    +0.000 C 
BRANCH  24  25
ATOM     25  C   UNL     1       1.287   2.968  20.502  0.00  0.00    +0.000 C 
ATOM     26  C   UNL     1       0.921   2.355  19.140  0.00  0.00    +0.000 C 
ATOM     27  C   UNL     1       2.032   2.494  18.111  0.00  0.00    +0.000 C 
ATOM     28  C   UNL     1       3.261   1.753  18.599  0.00  0.00    +0.000 C 
ATOM     29  C   UNL     1       3.764   2.368  19.902  0.00  0.00    +0.000 C 
ATOM     30  C   UNL     1       2.673   2.476  20.972  0.00  0.00    +0.000 C 
ENDBRANCH  24  25
ENDBRANCH  23  24
ENDBRANCH   4  23
TORSDOF 5
ENDMDL
MODEL 3
REMARK VINA RESULT:      -8.2      1.488      1.723
REMARK  Name = 
REMARK  6 active torsions:
REMARK  status: ('A' for Active; 'I' for Inactive)
REMARK    1  A    between atoms: C_1  and  C_2
REMARK    2  A    between atoms: N_4  and  C_5
REMARK    3  A    between atoms: C_5  and  C_6
REMARK    4  A    between atoms: C_6  and  C_7
REMARK    5  A    between atoms: C_15  and  C_16
REMARK    6  A    between atoms: N_18  and  C_19
REMARK                            x       y       z     vdW  Elec       q    Type
REMARK                         _______ _______ _______ _____ _____    ______ ____
ROOT
ATOM      1  C   UNL     1       4.572   6.899  16.573  0.00  0.00    +0.000 C 
ATOM      2  C   UNL     1       3.687   6.882  17.767  0.00  0.00    +0.000 A 
ATOM      3  C   UNL     1       3.539   5.844  18.666  0.00  0.00    +0.000 A 
ATOM      4  N   UNL     1       2.635   6.221  19.626  0.00  0.00    +0.000 N 
ATOM      5  C   UNL     1       2.153   7.486  19.344  0.00  0.00    +0.000 A 
ATOM      6  C   UNL     1       1.189   8.290  19.986  0.00  0.00    +0.000 A 
ATOM      7  C   UNL     1       0.899   9.566  19.468  0.00  0.00    +0.000 A 
ATOM      8  C   UNL     1       1.579  10.036  18.346  0.00  0.00    +0.000 A 
ATOM      9  C   UNL     1       2.529   9.226  17.701  0.00  0.00    +0.000 A 
ATOM     10  C   UNL     1       2.815   7.935  18.196  0.00  0.00    +0.000 A 
ENDROOT
BRANCH   7  11
ATOM     11  C   UNL     1      -0.129  10.381  20.198  0.00  0.00    +0.000 C 
ATOM     12  O   UNL     1      -0.607   9.951  21.227  0.00  0.00    +0.000 OA
ATOM     13  N   UNL     1      -0.545  11.555  19.558  0.00  0.00    +0.000 N 
ATOM     14  H   UNL     1      -0.464  11.572  18.549  0.00  0.00    +0.000 HD
BRANCH  13  15
ATOM     15  C   UNL     1      -1.540  12.389  20.158  0.00  0.00    +0.000 A 
ATOM     16  C   UNL     1      -2.882  12.339  19.741  0.00  0.00    +0.000 A 
ATOM     17 CL   UNL     1      -3.454  11.285  18.496  0.00  0.00    +0.000 Cl
ATOM     18  C   UNL     1      -3.818  13.112  20.412  0.00  0.00    +0.000 A 
ATOM     19  N   UNL     1      -3.533  13.932  21.453  0.00  0.00    +0.000 NA
ATOM     20  C   UNL     1      -2.232  13.995  21.816  0.00  0.00    +0.000 A 
ATOM     21  C   UNL     1      -1.214  13.258  21.218  0.00  0.00    +0.000 A 
ATOM     22 CL   UNL     1       0.415  13.561  21.693  0.00  0.00    +0.000 Cl
ENDBRANCH  13  15
ENDBRANCH   7  11
BRANCH   4  23
ATOM     23  C   UNL     1       2.199   5.363  20.725  0.00  0.00    +0.000 C 
BRANCH  23  24
ATOM     24  C   UNL     1       0.979   4.449  20.442  0.00  0.00    +0.000 C 
BRANCH  24  25
ATOM     25  C   UNL     1       1.348   2.949  20.521  0.00  0.00    +0.000 C 
ATOM     26  C   UNL     1       1.002   2.217  19.214  0.00  0.00    +0.000 C 
ATOM     27  C   UNL     1       2.057   2.402  18.135  0.00  0.00    +0.000 C 
ATOM     28  C   UNL     1       3.372   1.820  18.617  0.00  0.00    +0.000 C 
ATOM     29  C   UNL     1       3.852   2.563  19.859  0.00  0.00    +0.000 C 
ATOM     30  C   UNL     1       2.793   2.629  20.963  0.00  0.00    +0.000 C 
ENDBRANCH  24  25
ENDBRANCH  23  24
ENDBRANCH   4  23
TORSDOF 5
ENDMDL
MODEL 4
REMARK VINA RESULT:      -8.2      1.504      1.670
REMARK  Name = 
REMARK  6 active torsions:
REMARK  status: ('A' for Active; 'I' for Inactive)
REMARK    1  A    between atoms: C_1  and  C_2
REMARK    2  A    between atoms: N_4  and  C_5
REMARK    3  A    between atoms: C_5  and  C_6
REMARK    4  A    between atoms: C_6  and  C_7
REMARK    5  A    between atoms: C_15  and  C_16
REMARK    6  A    between atoms: N_18  and  C_19
REMARK                            x       y       z     vdW  Elec       q    Type
REMARK                         _______ _______ _______ _____ _____    ______ ____
ROOT
ATOM      1  C   UNL     1       4.683   6.785  16.492  0.00  0.00    +0.000 C 
ATOM      2  C   UNL     1       3.800   6.772  17.688  0.00  0.00    +0.000 A 
ATOM      3  C   UNL     1       3.667   5.743  18.600  0.00  0.00    +0.000 A 
ATOM      4  N   UNL     1       2.761   6.120  19.557  0.00  0.00    +0.000 N 
ATOM      5  C   UNL     1       2.264   7.377  19.262  0.00  0.00    +0.000 A 
ATOM      6  C   UNL     1       1.293   8.177  19.897  0.00  0.00    +0.000 A 
ATOM      7  C   UNL     1       0.987   9.443  19.365  0.00  0.00    +0.000 A 
ATOM      8  C   UNL     1       1.658   9.908  18.236  0.00  0.00    +0.000 A 
ATOM      9  C   UNL     1       2.617   9.101  17.597  0.00  0.00    +0.000 A 
ATOM     10  C   UNL     1       2.918   7.820  18.107  0.00  0.00    +0.000 A 
ENDROOT
BRANCH   7  11
ATOM     11  C   UNL     1      -0.049  10.256  20.088  0.00  0.00    +0.000 C 
ATOM     12  O   UNL     1      -0.517   9.833  21.125  0.00  0.00    +0.000 OA
ATOM     13  N   UNL     1      -0.482  11.416  19.434  0.00  0.00    +0.000 N 
ATOM     14  H   UNL     1      -0.405  11.420  18.425  0.00  0.00    +0.000 HD
BRANCH  13  15
ATOM     15  C   UNL     1      -1.485  12.245  20.027  0.00  0.00    +0.000 A 
ATOM     16  C   UNL     1      -1.168  13.150  21.056  0.00  0.00    +0.000 A 
ATOM     17 CL   UNL     1       0.428  13.353  21.689  0.00  0.00    +0.000 Cl
ATOM     18  C   UNL     1      -2.164  13.985  21.539  0.00  0.00    +0.000 A 
ATOM     19  N   UNL     1      -3.444  13.992  21.093  0.00  0.00    +0.000 NA
ATOM     20  C   UNL     1      -3.738  13.091  20.130  0.00  0.00    +0.000 A 
ATOM     21  C   UNL     1      -2.817  12.212  19.569  0.00  0.00    +0.000 A 
ATOM     22 CL   UNL     1      -3.379  11.021  18.458  0.00  0.00    +0.000 Cl
ENDBRANCH  13  15
ENDBRANCH   7  11
BRANCH   4  23
ATOM     23  C   UNL     1       2.338   5.271  20.668  0.00  0.00    +0.000 C 
BRANCH  23  24
ATOM     24  C   UNL     1       1.056   4.429  20.440  0.00  0.00    +0.000 C 
BRANCH  24  25
ATOM     25  C   UNL     1       1.344   2.910  20.483  0.00  0.00    +0.000 C 
ATOM     26  C   UNL     1       1.026   2.241  19.137  0.00  0.00    +0.000 C 
ATOM     27  C   UNL     1       2.140   2.405  18.115  0.00  0.00    +0.000 C 
ATOM     28  C   UNL     1       3.399   1.740  18.638  0.00  0.00    +0.000 C 
ATOM     29  C   UNL     1       3.855   2.416  19.928  0.00  0.00    +0.000 C 
ATOM     30  C   UNL     1       2.748   2.501  20.982  0.00  0.00    +0.000 C 
ENDBRANCH  24  25
ENDBRANCH  23  24
ENDBRANCH   4  23
TORSDOF 5
ENDMDL
MODEL 5
REMARK VINA RESULT:      -7.8      3.867      8.943
REMARK  Name = 
REMARK  6 active torsions:
REMARK  status: ('A' for Active; 'I' for Inactive)
REMARK    1  A    between atoms: C_1  and  C_2
REMARK    2  A    between atoms: N_4  and  C_5
REMARK    3  A    between atoms: C_5  and  C_6
REMARK    4  A    between atoms: C_6  and  C_7
REMARK    5  A    between atoms: C_15  and  C_16
REMARK    6  A    between atoms: N_18  and  C_19
REMARK                            x       y       z     vdW  Elec       q    Type
REMARK                         _______ _______ _______ _____ _____    ______ ____
ROOT
ATOM      1  C   UNL     1      -0.878   9.623  22.982  0.00  0.00    +0.000 C 
ATOM      2  C   UNL     1      -0.290   9.913  21.648  0.00  0.00    +0.000 A 
ATOM      3  C   UNL     1      -0.516  11.037  20.877  0.00  0.00    +0.000 A 
ATOM      4  N   UNL     1       0.212  10.929  19.720  0.00  0.00    +0.000 N 
ATOM      5  C   UNL     1       0.888   9.722  19.703  0.00  0.00    +0.000 A 
ATOM      6  C   UNL     1       1.721   9.124  18.736  0.00  0.00    +0.000 A 
ATOM      7  C   UNL     1       2.289   7.864  18.999  0.00  0.00    +0.000 A 
ATOM      8  C   UNL     1       2.047   7.228  20.215  0.00  0.00    +0.000 A 
ATOM      9  C   UNL     1       1.204   7.821  21.171  0.00  0.00    +0.000 A 
ATOM     10  C   UNL     1       0.610   9.075  20.912  0.00  0.00    +0.000 A 
ENDROOT
BRANCH   7  11
ATOM     11  C   UNL     1       3.175   7.280  17.937  0.00  0.00    +0.000 C 
ATOM     12  O   UNL     1       3.075   7.678  16.795  0.00  0.00    +0.000 OA
ATOM     13  N   UNL     1       3.994   6.218  18.340  0.00  0.00    +0.000 N 
ATOM     14  H   UNL     1       3.668   5.671  19.128  0.00  0.00    +0.000 HD
BRANCH  13  15
ATOM     15  C   UNL     1       4.856   5.575  17.397  0.00  0.00    +0.000 A 
ATOM     16  C   UNL     1       4.481   4.377  16.764  0.00  0.00    +0.000 A 
ATOM     17 CL   UNL     1       2.973   3.581  17.047  0.00  0.00    +0.000 Cl
ATOM     18  C   UNL     1       5.322   3.841  15.800  0.00  0.00    +0.000 A 
ATOM     19  N   UNL     1       6.502   4.388  15.419  0.00  0.00    +0.000 NA
ATOM     20  C   UNL     1       6.863   5.520  16.065  0.00  0.00    +0.000 A 
ATOM     21  C   UNL     1       6.094   6.146  17.040  0.00  0.00    +0.000 A 
ATOM     22 CL   UNL     1       6.760   7.498  17.877  0.00  0.00    +0.000 Cl
ENDBRANCH  13  15
ENDBRANCH   7  11
BRANCH   4  23
ATOM     23  C   UNL     1       0.195  11.917  18.643  0.00  0.00    +0.000 C 
BRANCH  23  24
ATOM     24  C   UNL     1      -1.184  12.203  17.994  0.00  0.00    +0.000 C 
BRANCH  24  25
ATOM     25  C   UNL     1      -2.013  10.911  17.801  0.00  0.00    +0.000 C 
ATOM     26  C   UNL     1      -3.364  10.998  18.528  0.00  0.00    +0.000 C 
ATOM     27  C   UNL     1      -4.412  11.768  17.740  0.00  0.00    +0.000 C 
ATOM     28  C   UNL     1      -4.676  11.052  16.429  0.00  0.00    +0.000 C 
ATOM     29  C   UNL     1      -3.405  11.013  15.586  0.00  0.00    +0.000 C 
ATOM     30  C   UNL     1      -2.203  10.440  16.342  0.00  0.00    +0.000 C 
ENDBRANCH  24  25
ENDBRANCH  23  24
ENDBRANCH   4  23
TORSDOF 5
ENDMDL
MODEL 6
REMARK VINA RESULT:      -7.7      1.222      1.900
REMARK  Name = 
REMARK  6 active torsions:
REMARK  status: ('A' for Active; 'I' for Inactive)
REMARK    1  A    between atoms: C_1  and  C_2
REMARK    2  A    between atoms: N_4  and  C_5
REMARK    3  A    between atoms: C_5  and  C_6
REMARK    4  A    between atoms: C_6  and  C_7
REMARK    5  A    between atoms: C_15  and  C_16
REMARK    6  A    between atoms: N_18  and  C_19
REMARK                            x       y       z     vdW  Elec       q    Type
REMARK                         _______ _______ _______ _____ _____    ______ ____
ROOT
ATOM      1  C   UNL     1       4.616   6.064  16.418  0.00  0.00    +0.000 C 
ATOM      2  C   UNL     1       3.785   6.300  17.627  0.00  0.00    +0.000 A 
ATOM      3  C   UNL     1       3.488   5.379  18.612  0.00  0.00    +0.000 A 
ATOM      4  N   UNL     1       2.700   5.986  19.557  0.00  0.00    +0.000 N 
ATOM      5  C   UNL     1       2.442   7.293  19.182  0.00  0.00    +0.000 A 
ATOM      6  C   UNL     1       1.661   8.304  19.775  0.00  0.00    +0.000 A 
ATOM      7  C   UNL     1       1.585   9.567  19.160  0.00  0.00    +0.000 A 
ATOM      8  C   UNL     1       2.296   9.819  17.989  0.00  0.00    +0.000 A 
ATOM      9  C   UNL     1       3.063   8.802  17.392  0.00  0.00    +0.000 A 
ATOM     10  C   UNL     1       3.131   7.524  17.986  0.00  0.00    +0.000 A 
ENDROOT
BRANCH   7  11
ATOM     11  C   UNL     1       0.745  10.609  19.842  0.00  0.00    +0.000 C 
ATOM     12  O   UNL     1       1.263  11.646  20.203  0.00  0.00    +0.000 OA
ATOM     13  N   UNL     1      -0.580  10.246  20.111  0.00  0.00    +0.000 N 
ATOM     14  H   UNL     1      -0.765   9.256  20.215  0.00  0.00    +0.000 HD
BRANCH  13  15
ATOM     15  C   UNL     1      -1.455  11.158  20.781  0.00  0.00    +0.000 A 
ATOM     16  C   UNL     1      -1.518  11.211  22.185  0.00  0.00    +0.000 A 
ATOM     17 CL   UNL     1      -0.561  10.211  23.220  0.00  0.00    +0.000 Cl
ATOM     18  C   UNL     1      -2.325  12.170  22.781  0.00  0.00    +0.000 A 
ATOM     19  N   UNL     1      -3.077  13.070  22.102  0.00  0.00    +0.000 NA
ATOM     20  C   UNL     1      -3.032  12.980  20.754  0.00  0.00    +0.000 A 
ATOM     21  C   UNL     1      -2.253  12.064  20.054  0.00  0.00    +0.000 A 
ATOM     22 CL   UNL     1      -2.419  11.974  18.341  0.00  0.00    +0.000 Cl
ENDBRANCH  13  15
ENDBRANCH   7  11
BRANCH   4  23
ATOM     23  C   UNL     1       2.158   5.309  20.733  0.00  0.00    +0.000 C 
BRANCH  23  24
ATOM     24  C   UNL     1       0.923   4.403  20.497  0.00  0.00    +0.000 C 
BRANCH  24  25
ATOM     25  C   UNL     1       1.274   2.902  20.617  0.00  0.00    +0.000 C 
ATOM     26  C   UNL     1       0.953   2.145  19.317  0.00  0.00    +0.000 C 
ATOM     27  C   UNL     1       2.036   2.295  18.261  0.00  0.00    +0.000 C 
ATOM     28  C   UNL     1       3.332   1.711  18.789  0.00  0.00    +0.000 C 
ATOM     29  C   UNL     1       3.789   2.476  20.027  0.00  0.00    +0.000 C 
ATOM     30  C   UNL     1       2.704   2.576  21.103  0.00  0.00    +0.000 C 
ENDBRANCH  24  25
ENDBRANCH  23  24
ENDBRANCH   4  23
TORSDOF 5
ENDMDL
MODEL 7
REMARK VINA RESULT:      -7.7      2.370      4.474
REMARK  Name = 
REMARK  6 active torsions:
REMARK  status: ('A' for Active; 'I' for Inactive)
REMARK    1  A    between atoms: C_1  and  C_2
REMARK    2  A    between atoms: N_4  and  C_5
REMARK    3  A    between atoms: C_5  and  C_6
REMARK    4  A    between atoms: C_6  and  C_7
REMARK    5  A    between atoms: C_15  and  C_16
REMARK    6  A    between atoms: N_18  and  C_19
REMARK                            x       y       z     vdW  Elec       q    Type
REMARK                         _______ _______ _______ _____ _____    ______ ____
ROOT
ATOM      1  C   UNL     1       3.163   2.687  21.093  0.00  0.00    +0.000 C 
ATOM      2  C   UNL     1       3.274   3.646  19.964  0.00  0.00    +0.000 A 
ATOM      3  C   UNL     1       3.943   3.440  18.773  0.00  0.00    +0.000 A 
ATOM      4  N   UNL     1       3.806   4.560  17.994  0.00  0.00    +0.000 N 
ATOM      5  C   UNL     1       3.083   5.521  18.677  0.00  0.00    +0.000 A 
ATOM      6  C   UNL     1       2.715   6.839  18.339  0.00  0.00    +0.000 A 
ATOM      7  C   UNL     1       1.956   7.598  19.248  0.00  0.00    +0.000 A 
ATOM      8  C   UNL     1       1.554   7.041  20.460  0.00  0.00    +0.000 A 
ATOM      9  C   UNL     1       1.936   5.731  20.800  0.00  0.00    +0.000 A 
ATOM     10  C   UNL     1       2.715   4.965  19.907  0.00  0.00    +0.000 A 
ENDROOT
BRANCH   7  11
ATOM     11  C   UNL     1       1.585   8.992  18.830  0.00  0.00    +0.000 C 
ATOM     12  O   UNL     1       2.276   9.572  18.018  0.00  0.00    +0.000 OA
ATOM     13  N   UNL     1       0.503   9.566  19.509  0.00  0.00    +0.000 N 
ATOM     14  H   UNL     1       0.322   9.220  20.443  0.00  0.00    +0.000 HD
BRANCH  13  15
ATOM     15  C   UNL     1       0.086  10.900  19.203  0.00  0.00    +0.000 A 
ATOM     16  C   UNL     1      -0.859  11.154  18.194  0.00  0.00    +0.000 A 
ATOM     17 CL   UNL     1      -1.602   9.913  17.249  0.00  0.00    +0.000 Cl
ATOM     18  C   UNL     1      -1.285  12.459  17.994  0.00  0.00    +0.000 A 
ATOM     19  N   UNL     1      -0.848  13.528  18.704  0.00  0.00    +0.000 NA
ATOM     20  C   UNL     1       0.087  13.268  19.645  0.00  0.00    +0.000 A 
ATOM     21  C   UNL     1       0.579  11.999  19.934  0.00  0.00    +0.000 A 
ATOM     22 CL   UNL     1       1.879  11.851  21.056  0.00  0.00    +0.000 Cl
ENDBRANCH  13  15
ENDBRANCH   7  11
BRANCH   4  23
ATOM     23  C   UNL     1       4.413   4.722  16.674  0.00  0.00    +0.000 C 
BRANCH  23  24
ATOM     24  C   UNL     1       5.581   3.762  16.332  0.00  0.00    +0.000 C 
BRANCH  24  25
ATOM     25  C   UNL     1       6.944   4.493  16.307  0.00  0.00    +0.000 C 
ATOM     26  C   UNL     1       6.794   5.941  15.812  0.00  0.00    +0.000 C 
ATOM     27  C   UNL     1       6.323   6.893  16.900  0.00  0.00    +0.000 C 
ATOM     28  C   UNL     1       7.351   6.925  18.015  0.00  0.00    +0.000 C 
ATOM     29  C   UNL     1       7.488   5.542  18.644  0.00  0.00    +0.000 C 
ATOM     30  C   UNL     1       7.765   4.442  17.615  0.00  0.00    +0.000 C 
ENDBRANCH  24  25
ENDBRANCH  23  24
ENDBRANCH   4  23
TORSDOF 5
ENDMDL
MODEL 8
REMARK VINA RESULT:      -7.7      2.360      4.479
REMARK  Name = 
REMARK  6 active torsions:
REMARK  status: ('A' for Active; 'I' for Inactive)
REMARK    1  A    between atoms: C_1  and  C_2
REMARK    2  A    between atoms: N_4  and  C_5
REMARK    3  A    between atoms: C_5  and  C_6
REMARK    4  A    between atoms: C_6  and  C_7
REMARK    5  A    between atoms: C_15  and  C_16
REMARK    6  A    between atoms: N_18  and  C_19
REMARK                            x       y       z     vdW  Elec       q    Type
REMARK                         _______ _______ _______ _____ _____    ______ ____
ROOT
ATOM      1  C   UNL     1       2.666   2.774  21.457  0.00  0.00    +0.000 C 
ATOM      2  C   UNL     1       2.795   3.657  20.269  0.00  0.00    +0.000 A 
ATOM      3  C   UNL     1       3.385   3.332  19.063  0.00  0.00    +0.000 A 
ATOM      4  N   UNL     1       3.297   4.414  18.225  0.00  0.00    +0.000 N 
ATOM      5  C   UNL     1       2.688   5.467  18.884  0.00  0.00    +0.000 A 
ATOM      6  C   UNL     1       2.407   6.790  18.485  0.00  0.00    +0.000 A 
ATOM      7  C   UNL     1       1.757   7.657  19.382  0.00  0.00    +0.000 A 
ATOM      8  C   UNL     1       1.374   7.203  20.642  0.00  0.00    +0.000 A 
ATOM      9  C   UNL     1       1.668   5.887  21.041  0.00  0.00    +0.000 A 
ATOM     10  C   UNL     1       2.340   5.011  20.160  0.00  0.00    +0.000 A 
ENDROOT
BRANCH   7  11
ATOM     11  C   UNL     1       1.475   9.052  18.899  0.00  0.00    +0.000 C 
ATOM     12  O   UNL     1       2.180   9.535  18.037  0.00  0.00    +0.000 OA
ATOM     13  N   UNL     1       0.463   9.740  19.578  0.00  0.00    +0.000 N 
ATOM     14  H   UNL     1       0.287   9.457  20.534  0.00  0.00    +0.000 HD
BRANCH  13  15
ATOM     15  C   UNL     1       0.135  11.083  19.212  0.00  0.00    +0.000 A 
ATOM     16  C   UNL     1       0.830  12.178  19.757  0.00  0.00    +0.000 A 
ATOM     17 CL   UNL     1       2.126  12.015  20.889  0.00  0.00    +0.000 Cl
ATOM     18  C   UNL     1       0.524  13.453  19.306  0.00  0.00    +0.000 A 
ATOM     19  N   UNL     1      -0.416  13.732  18.370  0.00  0.00    +0.000 NA
ATOM     20  C   UNL     1      -1.099  12.671  17.885  0.00  0.00    +0.000 A 
ATOM     21  C   UNL     1      -0.869  11.351  18.261  0.00  0.00    +0.000 A 
ATOM     22 CL   UNL     1      -1.924  10.126  17.666  0.00  0.00    +0.000 Cl
ENDBRANCH  13  15
ENDBRANCH   7  11
BRANCH   4  23
ATOM     23  C   UNL     1       3.848   4.453  16.873  0.00  0.00    +0.000 C 
BRANCH  23  24
ATOM     24  C   UNL     1       4.854   5.593  16.572  0.00  0.00    +0.000 C 
BRANCH  24  25
ATOM     25  C   UNL     1       6.318   5.152  16.808  0.00  0.00    +0.000 C 
ATOM     26  C   UNL     1       7.308   6.266  16.431  0.00  0.00    +0.000 C 
ATOM     27  C   UNL     1       7.466   7.312  17.523  0.00  0.00    +0.000 C 
ATOM     28  C   UNL     1       8.020   6.650  18.771  0.00  0.00    +0.000 C 
ATOM     29  C   UNL     1       7.044   5.595  19.284  0.00  0.00    +0.000 C 
ATOM     30  C   UNL     1       6.637   4.584  18.208  0.00  0.00    +0.000 C 
ENDBRANCH  24  25
ENDBRANCH  23  24
ENDBRANCH   4  23
TORSDOF 5
ENDMDL
MODEL 9
REMARK VINA RESULT:      -7.6      1.771      2.927
REMARK  Name = 
REMARK  6 active torsions:
REMARK  status: ('A' for Active; 'I' for Inactive)
REMARK    1  A    between atoms: C_1  and  C_2
REMARK    2  A    between atoms: N_4  and  C_5
REMARK    3  A    between atoms: C_5  and  C_6
REMARK    4  A    between atoms: C_6  and  C_7
REMARK    5  A    between atoms: C_15  and  C_16
REMARK    6  A    between atoms: N_18  and  C_19
REMARK                            x       y       z     vdW  Elec       q    Type
REMARK                         _______ _______ _______ _____ _____    ______ ____
ROOT
ATOM      1  C   UNL     1       7.000   4.477  16.450  0.00  0.00    +0.000 C 
ATOM      2  C   UNL     1       5.572   4.555  16.853  0.00  0.00    +0.000 A 
ATOM      3  C   UNL     1       4.696   3.496  16.985  0.00  0.00    +0.000 A 
ATOM      4  N   UNL     1       3.475   3.982  17.378  0.00  0.00    +0.000 N 
ATOM      5  C   UNL     1       3.527   5.361  17.468  0.00  0.00    +0.000 A 
ATOM      6  C   UNL     1       2.545   6.321  17.783  0.00  0.00    +0.000 A 
ATOM      7  C   UNL     1       2.894   7.684  17.806  0.00  0.00    +0.000 A 
ATOM      8  C   UNL     1       4.205   8.075  17.543  0.00  0.00    +0.000 A 
ATOM      9  C   UNL     1       5.179   7.115  17.216  0.00  0.00    +0.000 A 
ATOM     10  C   UNL     1       4.839   5.746  17.168  0.00  0.00    +0.000 A 
ENDROOT
BRANCH   7  11
ATOM     11  C   UNL     1       1.808   8.661  18.156  0.00  0.00    +0.000 C 
ATOM     12  O   UNL     1       0.921   8.874  17.356  0.00  0.00    +0.000 OA
ATOM     13  N   UNL     1       1.969   9.345  19.367  0.00  0.00    +0.000 N 
ATOM     14  H   UNL     1       2.919   9.457  19.699  0.00  0.00    +0.000 HD
BRANCH  13  15
ATOM     15  C   UNL     1       1.003  10.316  19.779  0.00  0.00    +0.000 A 
ATOM     16  C   UNL     1       1.072  11.648  19.334  0.00  0.00    +0.000 A 
ATOM     17 CL   UNL     1       2.295  12.232  18.262  0.00  0.00    +0.000 Cl
ATOM     18  C   UNL     1       0.063  12.527  19.702  0.00  0.00    +0.000 A 
ATOM     19  N   UNL     1      -0.998  12.196  20.478  0.00  0.00    +0.000 NA
ATOM     20  C   UNL     1      -1.027  10.921  20.927  0.00  0.00    +0.000 A 
ATOM     21  C   UNL     1      -0.074   9.957  20.614  0.00  0.00    +0.000 A 
ATOM     22 CL   UNL     1      -0.169   8.419  21.385  0.00  0.00    +0.000 Cl
ENDBRANCH  13  15
ENDBRANCH   7  11
BRANCH   4  23
ATOM     23  C   UNL     1       2.289   3.154  17.583  0.00  0.00    +0.000 C 
BRANCH  23  24
ATOM     24  C   UNL     1       2.472   1.898  18.474  0.00  0.00    +0.000 C 
BRANCH  24  25
ATOM     25  C   UNL     1       1.911   2.112  19.899  0.00  0.00    +0.000 C 
ATOM     26  C   UNL     1       3.014   2.551  20.876  0.00  0.00    +0.000 C 
ATOM     27  C   UNL     1       3.322   4.037  20.793  0.00  0.00    +0.000 C 
ATOM     28  C   UNL     1       2.081   4.825  21.166  0.00  0.00    +0.000 C 
ATOM     29  C   UNL     1       0.956   4.534  20.177  0.00  0.00    +0.000 C 
ATOM     30  C   UNL     1       0.679   3.038  20.011  0.00  0.00    +0.000 C 
ENDBRANCH  24  25
ENDBRANCH  23  24
ENDBRANCH   4  23
TORSDOF 5
ENDMDL
