MODEL 1
REMARK VINA RESULT:      -7.4      0.000      0.000
REMARK  Name = 
REMARK  5 active torsions:
REMARK  status: ('A' for Active; 'I' for Inactive)
REMARK    1  A    between atoms: C_1  and  C_2
REMARK    2  A    between atoms: C_4  and  O_5
REMARK    3  A    between atoms: O_5  and  C_6
REMARK    4  A    between atoms: C_6  and  C_7
REMARK    5  A    between atoms: C_13  and  C_14
REMARK                            x       y       z     vdW  Elec       q    Type
REMARK                         _______ _______ _______ _____ _____    ______ ____
ROOT
ATOM      1  C   UNL     1       5.342   6.404  16.475  0.00  0.00    +0.000 C 
ATOM      2  O   UNL     1       5.428   7.289  15.618  0.00  0.00    +0.000 OA
ATOM      3  N   UNL     1       4.312   6.398  17.423  0.00  0.00    +0.000 N 
ATOM      4  C   UNL     1       3.242   7.379  17.243  0.00  0.00    +0.000 C 
ATOM      5  C   UNL     1       2.644   7.818  18.572  0.00  0.00    +0.000 C 
ATOM      6  C   UNL     1       2.189   6.625  19.403  0.00  0.00    +0.000 C 
ATOM      7  C   UNL     1       3.323   5.610  19.586  0.00  0.00    +0.000 C 
ATOM      8  C   UNL     1       3.957   5.229  18.240  0.00  0.00    +0.000 C 
ENDROOT
BRANCH   7   9
ATOM      9  C   UNL     1       2.803   4.373  20.274  0.00  0.00    +0.000 A 
ATOM     10  N   UNL     1       1.728   4.353  21.035  0.00  0.00    +0.000 NA
ATOM     11  C   UNL     1       1.550   3.095  21.563  0.00  0.00    +0.000 A 
ATOM     12  C   UNL     1       2.484   2.154  21.182  0.00  0.00    +0.000 A 
ATOM     13  S   UNL     1       3.624   2.869  20.121  0.00  0.00    +0.000 S 
ENDBRANCH   7   9
BRANCH   1  14
ATOM     14  C   UNL     1       6.385   5.289  16.507  0.00  0.00    +0.000 C 
BRANCH  14  15
ATOM     15  O   UNL     1       7.400   5.494  15.527  0.00  0.00    +0.000 OA
BRANCH  15  19
ATOM     16  C   UNL     1       5.666   2.693  11.821  0.00  0.00    +0.000 C 
ATOM     17  C   UNL     1       6.305   3.612  12.776  0.00  0.00    +0.000 A 
ATOM     18  C   UNL     1       6.225   3.828  14.133  0.00  0.00    +0.000 A 
ATOM     19  C   UNL     1       7.126   4.885  14.351  0.00  0.00    +0.000 A 
ATOM     20  N   UNL     1       7.711   5.294  13.219  0.00  0.00    +0.000 NA
ATOM     21  O   UNL     1       7.196   4.482  12.229  0.00  0.00    +0.000 OA
ENDBRANCH  15  19
ENDBRANCH  14  15
ENDBRANCH   1  14
TORSDOF 4
ENDMDL
MODEL 2
REMARK VINA RESULT:      -7.3      2.188      3.797
REMARK  Name = 
REMARK  5 active torsions:
REMARK  status: ('A' for Active; 'I' for Inactive)
REMARK    1  A    between atoms: C_1  and  C_2
REMARK    2  A    between atoms: C_4  and  O_5
REMARK    3  A    between atoms: O_5  and  C_6
REMARK    4  A    between atoms: C_6  and  C_7
REMARK    5  A    between atoms: C_13  and  C_14
REMARK                            x       y       z     vdW  Elec       q    Type
REMARK                         _______ _______ _______ _____ _____    ______ ____
ROOT
ATOM      1  C   UNL     1       5.715   5.119  18.004  0.00  0.00    +0.000 C 
ATOM      2  O   UNL     1       6.296   4.099  18.390  0.00  0.00    +0.000 OA
ATOM      3  N   UNL     1       4.528   5.557  18.602  0.00  0.00    +0.000 N 
ATOM      4  C   UNL     1       4.104   4.862  19.817  0.00  0.00    +0.000 C 
ATOM      5  C   UNL     1       2.588   4.839  19.960  0.00  0.00    +0.000 C 
ATOM      6  C   UNL     1       1.996   6.239  19.868  0.00  0.00    +0.000 C 
ATOM      7  C   UNL     1       2.446   6.951  18.587  0.00  0.00    +0.000 C 
ATOM      8  C   UNL     1       3.973   6.907  18.428  0.00  0.00    +0.000 C 
ENDROOT
BRANCH   7   9
ATOM      9  C   UNL     1       1.974   8.383  18.599  0.00  0.00    +0.000 A 
ATOM     10  N   UNL     1       2.151   9.222  17.599  0.00  0.00    +0.000 NA
ATOM     11  C   UNL     1       1.662  10.464  17.936  0.00  0.00    +0.000 A 
ATOM     12  C   UNL     1       1.093  10.557  19.189  0.00  0.00    +0.000 A 
ATOM     13  S   UNL     1       1.169   9.034  19.972  0.00  0.00    +0.000 S 
ENDBRANCH   7   9
BRANCH   1  14
ATOM     14  C   UNL     1       6.301   5.920  16.844  0.00  0.00    +0.000 C 
BRANCH  14  15
ATOM     15  O   UNL     1       7.401   5.242  16.243  0.00  0.00    +0.000 OA
BRANCH  15  19
ATOM     16  C   UNL     1       5.701   3.146  12.083  0.00  0.00    +0.000 C 
ATOM     17  C   UNL     1       6.336   3.875  13.192  0.00  0.00    +0.000 A 
ATOM     18  C   UNL     1       6.224   3.865  14.564  0.00  0.00    +0.000 A 
ATOM     19  C   UNL     1       7.145   4.844  14.976  0.00  0.00    +0.000 A 
ATOM     20  N   UNL     1       7.771   5.418  13.941  0.00  0.00    +0.000 NA
ATOM     21  O   UNL     1       7.263   4.798  12.818  0.00  0.00    +0.000 OA
ENDBRANCH  15  19
ENDBRANCH  14  15
ENDBRANCH   1  14
TORSDOF 4
ENDMDL
MODEL 3
REMARK VINA RESULT:      -7.3      2.548      3.803
REMARK  Name = 
REMARK  5 active torsions:
REMARK  status: ('A' for Active; 'I' for Inactive)
REMARK    1  A    between atoms: C_1  and  C_2
REMARK    2  A    between atoms: C_4  and  O_5
REMARK    3  A    between atoms: O_5  and  C_6
REMARK    4  A    between atoms: C_6  and  C_7
REMARK    5  A    between atoms: C_13  and  C_14
REMARK                            x       y       z     vdW  Elec       q    Type
REMARK                         _______ _______ _______ _____ _____    ______ ____
ROOT
ATOM      1  C   UNL     1       5.126   4.332  18.968  0.00  0.00    +0.000 C 
ATOM      2  O   UNL     1       5.558   3.188  19.142  0.00  0.00    +0.000 OA
ATOM      3  N   UNL     1       3.899   4.742  19.502  0.00  0.00    +0.000 N 
ATOM      4  C   UNL     1       3.239   3.820  20.425  0.00  0.00    +0.000 C 
ATOM      5  C   UNL     1       1.722   3.939  20.359  0.00  0.00    +0.000 C 
ATOM      6  C   UNL     1       1.264   5.377  20.565  0.00  0.00    +0.000 C 
ATOM      7  C   UNL     1       1.962   6.329  19.588  0.00  0.00    +0.000 C 
ATOM      8  C   UNL     1       3.487   6.148  19.621  0.00  0.00    +0.000 C 
ENDROOT
BRANCH   7   9
ATOM      9  C   UNL     1       1.610   7.757  19.916  0.00  0.00    +0.000 A 
ATOM     10  N   UNL     1       1.284   8.174  21.122  0.00  0.00    +0.000 NA
ATOM     11  C   UNL     1       0.961   9.512  21.086  0.00  0.00    +0.000 A 
ATOM     12  C   UNL     1       1.065  10.113  19.848  0.00  0.00    +0.000 A 
ATOM     13  S   UNL     1       1.589   8.964  18.691  0.00  0.00    +0.000 S 
ENDBRANCH   7   9
BRANCH   1  14
ATOM     14  C   UNL     1       5.946   5.324  18.146  0.00  0.00    +0.000 C 
BRANCH  14  15
ATOM     15  O   UNL     1       7.058   4.690  17.519  0.00  0.00    +0.000 OA
BRANCH  15  19
ATOM     16  C   UNL     1       5.920   3.645  12.807  0.00  0.00    +0.000 C 
ATOM     17  C   UNL     1       6.381   4.106  14.126  0.00  0.00    +0.000 A 
ATOM     18  C   UNL     1       6.184   3.707  15.429  0.00  0.00    +0.000 A 
ATOM     19  C   UNL     1       6.939   4.630  16.173  0.00  0.00    +0.000 A 
ATOM     20  N   UNL     1       7.548   5.532  15.393  0.00  0.00    +0.000 NA
ATOM     21  O   UNL     1       7.199   5.192  14.103  0.00  0.00    +0.000 OA
ENDBRANCH  15  19
ENDBRANCH  14  15
ENDBRANCH   1  14
TORSDOF 4
ENDMDL
MODEL 4
REMARK VINA RESULT:      -7.2      2.182      2.851
REMARK  Name = 
REMARK  5 active torsions:
REMARK  status: ('A' for Active; 'I' for Inactive)
REMARK    1  A    between atoms: C_1  and  C_2
REMARK    2  A    between atoms: C_4  and  O_5
REMARK    3  A    between atoms: O_5  and  C_6
REMARK    4  A    between atoms: C_6  and  C_7
REMARK    5  A    between atoms: C_13  and  C_14
REMARK                            x       y       z     vdW  Elec       q    Type
REMARK                         _______ _______ _______ _____ _____    ______ ____
ROOT
ATOM      1  C   UNL     1       6.759   4.673  15.557  0.00  0.00    +0.000 C 
ATOM      2  O   UNL     1       7.722   5.375  15.232  0.00  0.00    +0.000 OA
ATOM      3  N   UNL     1       6.115   4.834  16.789  0.00  0.00    +0.000 N 
ATOM      4  C   UNL     1       6.514   5.985  17.598  0.00  0.00    +0.000 C 
ATOM      5  C   UNL     1       6.387   5.704  19.089  0.00  0.00    +0.000 C 
ATOM      6  C   UNL     1       4.991   5.211  19.449  0.00  0.00    +0.000 C 
ATOM      7  C   UNL     1       4.591   4.002  18.595  0.00  0.00    +0.000 C 
ATOM      8  C   UNL     1       4.788   4.282  17.098  0.00  0.00    +0.000 C 
ENDROOT
BRANCH   7   9
ATOM      9  C   UNL     1       3.154   3.634  18.862  0.00  0.00    +0.000 A 
ATOM     10  N   UNL     1       2.370   4.292  19.691  0.00  0.00    +0.000 NA
ATOM     11  C   UNL     1       1.139   3.678  19.760  0.00  0.00    +0.000 A 
ATOM     12  C   UNL     1       0.987   2.563  18.961  0.00  0.00    +0.000 A 
ATOM     13  S   UNL     1       2.434   2.276  18.090  0.00  0.00    +0.000 S 
ENDBRANCH   7   9
BRANCH   1  14
ATOM     14  C   UNL     1       6.257   3.600  14.592  0.00  0.00    +0.000 C 
BRANCH  14  15
ATOM     15  O   UNL     1       6.618   3.897  13.245  0.00  0.00    +0.000 OA
BRANCH  15  19
ATOM     16  C   UNL     1       2.911   3.114  10.047  0.00  0.00    +0.000 C 
ATOM     17  C   UNL     1       4.072   3.151  10.950  0.00  0.00    +0.000 A 
ATOM     18  C   UNL     1       4.589   4.058  11.847  0.00  0.00    +0.000 A 
ATOM     19  C   UNL     1       5.734   3.412  12.345  0.00  0.00    +0.000 A 
ATOM     20  N   UNL     1       5.914   2.206  11.794  0.00  0.00    +0.000 NA
ATOM     21  O   UNL     1       4.859   2.042  10.920  0.00  0.00    +0.000 OA
ENDBRANCH  15  19
ENDBRANCH  14  15
ENDBRANCH   1  14
TORSDOF 4
ENDMDL
MODEL 5
REMARK VINA RESULT:      -7.2      1.188      1.271
REMARK  Name = 
REMARK  5 active torsions:
REMARK  status: ('A' for Active; 'I' for Inactive)
REMARK    1  A    between atoms: C_1  and  C_2
REMARK    2  A    between atoms: C_4  and  O_5
REMARK    3  A    between atoms: O_5  and  C_6
REMARK    4  A    between atoms: C_6  and  C_7
REMARK    5  A    between atoms: C_13  and  C_14
REMARK                            x       y       z     vdW  Elec       q    Type
REMARK                         _______ _______ _______ _____ _____    ______ ____
ROOT
ATOM      1  C   UNL     1       6.088   6.728  17.349  0.00  0.00    +0.000 C 
ATOM      2  O   UNL     1       6.408   7.589  16.523  0.00  0.00    +0.000 OA
ATOM      3  N   UNL     1       4.785   6.644  17.853  0.00  0.00    +0.000 N 
ATOM      4  C   UNL     1       3.778   7.499  17.226  0.00  0.00    +0.000 C 
ATOM      5  C   UNL     1       2.693   7.915  18.211  0.00  0.00    +0.000 C 
ATOM      6  C   UNL     1       2.069   6.708  18.899  0.00  0.00    +0.000 C 
ATOM      7  C   UNL     1       3.138   5.825  19.554  0.00  0.00    +0.000 C 
ATOM      8  C   UNL     1       4.256   5.471  18.563  0.00  0.00    +0.000 C 
ENDROOT
BRANCH   7   9
ATOM      9  C   UNL     1       2.510   4.564  20.089  0.00  0.00    +0.000 A 
ATOM     10  N   UNL     1       2.455   4.257  21.369  0.00  0.00    +0.000 NA
ATOM     11  C   UNL     1       1.875   3.020  21.531  0.00  0.00    +0.000 A 
ATOM     12  C   UNL     1       1.470   2.397  20.368  0.00  0.00    +0.000 A 
ATOM     13  S   UNL     1       1.825   3.400  19.024  0.00  0.00    +0.000 S 
ENDBRANCH   7   9
BRANCH   1  14
ATOM     14  C   UNL     1       7.138   5.733  17.837  0.00  0.00    +0.000 C 
BRANCH  14  15
ATOM     15  O   UNL     1       6.885   4.420  17.341  0.00  0.00    +0.000 OA
BRANCH  15  19
ATOM     16  C   UNL     1       5.704   3.627  12.591  0.00  0.00    +0.000 C 
ATOM     17  C   UNL     1       6.214   3.978  13.926  0.00  0.00    +0.000 A 
ATOM     18  C   UNL     1       5.876   3.654  15.221  0.00  0.00    +0.000 A 
ATOM     19  C   UNL     1       6.805   4.374  15.992  0.00  0.00    +0.000 A 
ATOM     20  N   UNL     1       7.644   5.091  15.234  0.00  0.00    +0.000 NA
ATOM     21  O   UNL     1       7.272   4.831  13.932  0.00  0.00    +0.000 OA
ENDBRANCH  15  19
ENDBRANCH  14  15
ENDBRANCH   1  14
TORSDOF 4
ENDMDL
MODEL 6
REMARK VINA RESULT:      -7.1      2.108      3.101
REMARK  Name = 
REMARK  5 active torsions:
REMARK  status: ('A' for Active; 'I' for Inactive)
REMARK    1  A    between atoms: C_1  and  C_2
REMARK    2  A    between atoms: C_4  and  O_5
REMARK    3  A    between atoms: O_5  and  C_6
REMARK    4  A    between atoms: C_6  and  C_7
REMARK    5  A    between atoms: C_13  and  C_14
REMARK                            x       y       z     vdW  Elec       q    Type
REMARK                         _______ _______ _______ _____ _____    ______ ____
ROOT
ATOM      1  C   UNL     1       6.778   5.112  15.224  0.00  0.00    +0.000 C 
ATOM      2  O   UNL     1       7.781   5.576  14.671  0.00  0.00    +0.000 OA
ATOM      3  N   UNL     1       6.576   5.238  16.604  0.00  0.00    +0.000 N 
ATOM      4  C   UNL     1       7.508   6.098  17.332  0.00  0.00    +0.000 C 
ATOM      5  C   UNL     1       7.716   5.626  18.764  0.00  0.00    +0.000 C 
ATOM      6  C   UNL     1       6.391   5.470  19.500  0.00  0.00    +0.000 C 
ATOM      7  C   UNL     1       5.428   4.562  18.725  0.00  0.00    +0.000 C 
ATOM      8  C   UNL     1       5.283   5.016  17.265  0.00  0.00    +0.000 C 
ENDROOT
BRANCH   7   9
ATOM      9  C   UNL     1       4.078   4.551  19.394  0.00  0.00    +0.000 A 
ATOM     10  N   UNL     1       3.368   5.635  19.634  0.00  0.00    +0.000 NA
ATOM     11  C   UNL     1       2.213   5.301  20.305  0.00  0.00    +0.000 A 
ATOM     12  C   UNL     1       2.040   3.955  20.554  0.00  0.00    +0.000 A 
ATOM     13  S   UNL     1       3.368   3.076  19.922  0.00  0.00    +0.000 S 
ENDBRANCH   7   9
BRANCH   1  14
ATOM     14  C   UNL     1       5.734   4.378  14.386  0.00  0.00    +0.000 C 
BRANCH  14  15
ATOM     15  O   UNL     1       6.339   3.432  13.508  0.00  0.00    +0.000 OA
BRANCH  15  19
ATOM     16  C   UNL     1       2.984   3.284   9.860  0.00  0.00    +0.000 C 
ATOM     17  C   UNL     1       4.054   3.150  10.861  0.00  0.00    +0.000 A 
ATOM     18  C   UNL     1       4.442   3.848  11.982  0.00  0.00    +0.000 A 
ATOM     19  C   UNL     1       5.565   3.136  12.439  0.00  0.00    +0.000 A 
ATOM     20  N   UNL     1       5.852   2.087  11.658  0.00  0.00    +0.000 NA
ATOM     21  O   UNL     1       4.891   2.095  10.669  0.00  0.00    +0.000 OA
ENDBRANCH  15  19
ENDBRANCH  14  15
ENDBRANCH   1  14
TORSDOF 4
ENDMDL
MODEL 7
REMARK VINA RESULT:      -7.0      1.353      1.408
REMARK  Name = 
REMARK  5 active torsions:
REMARK  status: ('A' for Active; 'I' for Inactive)
REMARK    1  A    between atoms: C_1  and  C_2
REMARK    2  A    between atoms: C_4  and  O_5
REMARK    3  A    between atoms: O_5  and  C_6
REMARK    4  A    between atoms: C_6  and  C_7
REMARK    5  A    between atoms: C_13  and  C_14
REMARK                            x       y       z     vdW  Elec       q    Type
REMARK                         _______ _______ _______ _____ _____    ______ ____
ROOT
ATOM      1  C   UNL     1       5.815   6.546  16.848  0.00  0.00    +0.000 C 
ATOM      2  O   UNL     1       6.177   7.647  16.421  0.00  0.00    +0.000 OA
ATOM      3  N   UNL     1       4.597   6.384  17.518  0.00  0.00    +0.000 N 
ATOM      4  C   UNL     1       3.691   7.533  17.530  0.00  0.00    +0.000 C 
ATOM      5  C   UNL     1       2.841   7.574  18.793  0.00  0.00    +0.000 C 
ATOM      6  C   UNL     1       2.100   6.261  19.011  0.00  0.00    +0.000 C 
ATOM      7  C   UNL     1       3.064   5.069  19.000  0.00  0.00    +0.000 C 
ATOM      8  C   UNL     1       3.957   5.082  17.751  0.00  0.00    +0.000 C 
ENDROOT
BRANCH   7   9
ATOM      9  C   UNL     1       2.289   3.777  19.062  0.00  0.00    +0.000 A 
ATOM     10  N   UNL     1       2.607   2.697  18.377  0.00  0.00    +0.000 NA
ATOM     11  C   UNL     1       1.677   1.708  18.603  0.00  0.00    +0.000 A 
ATOM     12  C   UNL     1       0.664   2.035  19.481  0.00  0.00    +0.000 A 
ATOM     13  S   UNL     1       0.885   3.638  20.046  0.00  0.00    +0.000 S 
ENDBRANCH   7   9
BRANCH   1  14
ATOM     14  C   UNL     1       6.717   5.331  16.646  0.00  0.00    +0.000 C 
BRANCH  14  15
ATOM     15  O   UNL     1       7.647   5.541  15.585  0.00  0.00    +0.000 OA
BRANCH  15  19
ATOM     16  C   UNL     1       5.510   2.888  11.982  0.00  0.00    +0.000 C 
ATOM     17  C   UNL     1       6.266   3.755  12.900  0.00  0.00    +0.000 A 
ATOM     18  C   UNL     1       6.280   3.969  14.260  0.00  0.00    +0.000 A 
ATOM     19  C   UNL     1       7.264   4.958  14.427  0.00  0.00    +0.000 A 
ATOM     20  N   UNL     1       7.810   5.331  13.263  0.00  0.00    +0.000 NA
ATOM     21  O   UNL     1       7.183   4.564  12.303  0.00  0.00    +0.000 OA
ENDBRANCH  15  19
ENDBRANCH  14  15
ENDBRANCH   1  14
TORSDOF 4
ENDMDL
MODEL 8
REMARK VINA RESULT:      -7.0      2.591      4.228
REMARK  Name = 
REMARK  5 active torsions:
REMARK  status: ('A' for Active; 'I' for Inactive)
REMARK    1  A    between atoms: C_1  and  C_2
REMARK    2  A    between atoms: C_4  and  O_5
REMARK    3  A    between atoms: O_5  and  C_6
REMARK    4  A    between atoms: C_6  and  C_7
REMARK    5  A    between atoms: C_13  and  C_14
REMARK                            x       y       z     vdW  Elec       q    Type
REMARK                         _______ _______ _______ _____ _____    ______ ____
ROOT
ATOM      1  C   UNL     1       5.271   4.307  19.221  0.00  0.00    +0.000 C 
ATOM      2  O   UNL     1       5.452   3.102  19.426  0.00  0.00    +0.000 OA
ATOM      3  N   UNL     1       4.007   4.815  18.898  0.00  0.00    +0.000 N 
ATOM      4  C   UNL     1       2.879   3.890  18.992  0.00  0.00    +0.000 C 
ATOM      5  C   UNL     1       1.787   4.221  17.985  0.00  0.00    +0.000 C 
ATOM      6  C   UNL     1       1.343   5.674  18.099  0.00  0.00    +0.000 C 
ATOM      7  C   UNL     1       2.536   6.631  17.994  0.00  0.00    +0.000 C 
ATOM      8  C   UNL     1       3.655   6.240  18.972  0.00  0.00    +0.000 C 
ENDROOT
BRANCH   7   9
ATOM      9  C   UNL     1       2.091   8.045  18.265  0.00  0.00    +0.000 A 
ATOM     10  N   UNL     1       2.196   9.027  17.394  0.00  0.00    +0.000 NA
ATOM     11  C   UNL     1       1.758  10.204  17.958  0.00  0.00    +0.000 A 
ATOM     12  C   UNL     1       1.298  10.105  19.255  0.00  0.00    +0.000 A 
ATOM     13  S   UNL     1       1.415   8.480  19.786  0.00  0.00    +0.000 S 
ENDBRANCH   7   9
BRANCH   1  14
ATOM     14  C   UNL     1       6.454   5.268  19.319  0.00  0.00    +0.000 C 
BRANCH  14  15
ATOM     15  O   UNL     1       7.540   4.845  18.498  0.00  0.00    +0.000 OA
BRANCH  15  19
ATOM     16  C   UNL     1       6.296   4.184  13.744  0.00  0.00    +0.000 C 
ATOM     17  C   UNL     1       6.705   4.579  15.101  0.00  0.00    +0.000 A 
ATOM     18  C   UNL     1       6.862   3.932  16.306  0.00  0.00    +0.000 A 
ATOM     19  C   UNL     1       7.276   4.955  17.177  0.00  0.00    +0.000 A 
ATOM     20  N   UNL     1       7.360   6.141  16.561  0.00  0.00    +0.000 NA
ATOM     21  O   UNL     1       7.007   5.897  15.250  0.00  0.00    +0.000 OA
ENDBRANCH  15  19
ENDBRANCH  14  15
ENDBRANCH   1  14
TORSDOF 4
ENDMDL
MODEL 9
REMARK VINA RESULT:      -7.0      1.616      1.741
REMARK  Name = 
REMARK  5 active torsions:
REMARK  status: ('A' for Active; 'I' for Inactive)
REMARK    1  A    between atoms: C_1  and  C_2
REMARK    2  A    between atoms: C_4  and  O_5
REMARK    3  A    between atoms: O_5  and  C_6
REMARK    4  A    between atoms: C_6  and  C_7
REMARK    5  A    between atoms: C_13  and  C_14
REMARK                            x       y       z     vdW  Elec       q    Type
REMARK                         _______ _______ _______ _____ _____    ______ ____
ROOT
ATOM      1  C   UNL     1       6.253   6.620  17.411  0.00  0.00    +0.000 C 
ATOM      2  O   UNL     1       6.774   7.510  16.731  0.00  0.00    +0.000 OA
ATOM      3  N   UNL     1       4.888   6.638  17.721  0.00  0.00    +0.000 N 
ATOM      4  C   UNL     1       4.073   7.654  17.056  0.00  0.00    +0.000 C 
ATOM      5  C   UNL     1       2.902   8.100  17.922  0.00  0.00    +0.000 C 
ATOM      6  C   UNL     1       2.067   6.914  18.388  0.00  0.00    +0.000 C 
ATOM      7  C   UNL     1       2.936   5.862  19.087  0.00  0.00    +0.000 C 
ATOM      8  C   UNL     1       4.147   5.473  18.226  0.00  0.00    +0.000 C 
ENDROOT
BRANCH   7   9
ATOM      9  C   UNL     1       2.115   4.636  19.397  0.00  0.00    +0.000 A 
ATOM     10  N   UNL     1       1.699   4.318  20.605  0.00  0.00    +0.000 NA
ATOM     11  C   UNL     1       1.026   3.118  20.570  0.00  0.00    +0.000 A 
ATOM     12  C   UNL     1       0.915   2.537  19.322  0.00  0.00    +0.000 A 
ATOM     13  S   UNL     1       1.676   3.532  18.153  0.00  0.00    +0.000 S 
ENDBRANCH   7   9
BRANCH   1  14
ATOM     14  C   UNL     1       7.116   5.473  17.931  0.00  0.00    +0.000 C 
BRANCH  14  15
ATOM     15  O   UNL     1       7.855   4.856  16.879  0.00  0.00    +0.000 OA
BRANCH  15  19
ATOM     16  C   UNL     1       5.677   3.721  12.572  0.00  0.00    +0.000 C 
ATOM     17  C   UNL     1       6.171   3.943  13.940  0.00  0.00    +0.000 A 
ATOM     18  C   UNL     1       7.193   4.672  14.508  0.00  0.00    +0.000 A 
ATOM     19  C   UNL     1       7.067   4.399  15.881  0.00  0.00    +0.000 A 
ATOM     20  N   UNL     1       6.053   3.563  16.140  0.00  0.00    +0.000 NA
ATOM     21  O   UNL     1       5.487   3.285  14.914  0.00  0.00    +0.000 OA
ENDBRANCH  15  19
ENDBRANCH  14  15
ENDBRANCH   1  14
TORSDOF 4
ENDMDL
