MODEL 1
REMARK VINA RESULT:      -7.8      0.000      0.000
REMARK  Name = 
REMARK  3 active torsions:
REMARK  status: ('A' for Active; 'I' for Inactive)
REMARK    1  A    between atoms: C_1  and  N_2
REMARK    2  A    between atoms: C_8  and  O_9
REMARK    3  A    between atoms: O_9  and  C_10
REMARK                            x       y       z     vdW  Elec       q    Type
REMARK                         _______ _______ _______ _____ _____    ______ ____
ROOT
ATOM      1  C   UNL     1       1.737   7.748  20.152  0.00  0.00    +0.000 C 
ATOM      2  O   UNL     1       1.657   7.765  21.374  0.00  0.00    +0.000 OA
ATOM      3  N   UNL     1       1.379   8.778  19.311  0.00  0.00    +0.000 N 
ATOM      4  C   UNL     1       1.966   9.123  18.052  0.00  0.00    +0.000 A 
ATOM      5  O   UNL     1       2.709   8.466  17.331  0.00  0.00    +0.000 OA
ATOM      6  N   UNL     1       1.518  10.415  17.729  0.00  0.00    +0.000 N 
ATOM      7  C   UNL     1       0.713  10.886  18.750  0.00  0.00    +0.000 A 
ATOM      8  C   UNL     1       0.085  12.105  18.858  0.00  0.00    +0.000 A 
ATOM      9  C   UNL     1      -0.675  12.322  20.011  0.00  0.00    +0.000 A 
ATOM     10  C   UNL     1      -0.774  11.325  20.995  0.00  0.00    +0.000 A 
ATOM     11  F   UNL     1      -1.521  11.561  22.085  0.00  0.00    +0.000 F 
ATOM     12  C   UNL     1      -0.122  10.102  20.875  0.00  0.00    +0.000 A 
ATOM     13  C   UNL     1       0.622   9.906  19.735  0.00  0.00    +0.000 A 
ATOM     14  H   UNL     1       1.792  10.901  16.885  0.00  0.00    +0.000 HD
ENDROOT
BRANCH   1  15
ATOM     15  O   UNL     1       2.291   6.700  19.485  0.00  0.00    +0.000 OA
BRANCH  15  23
ATOM     16  C   UNL     1       3.354   1.686  18.632  0.00  0.00    +0.000 C 
ATOM     17  N   UNL     1       2.996   2.995  19.126  0.00  0.00    +0.000 NA
ATOM     18  C   UNL     1       3.797   4.090  18.589  0.00  0.00    +0.000 C 
ATOM     19  C   UNL     1       2.998   4.583  17.376  0.00  0.00    +0.000 C 
ATOM     20  C   UNL     1       1.544   4.240  17.674  0.00  0.00    +0.000 C 
ATOM     21  C   UNL     1       1.612   3.463  18.988  0.00  0.00    +0.000 C 
ATOM     22  C   UNL     1       1.389   4.448  20.156  0.00  0.00    +0.000 C 
ATOM     23  C   UNL     1       2.508   5.516  20.278  0.00  0.00    +0.000 C 
ATOM     24  C   UNL     1       3.880   4.994  19.826  0.00  0.00    +0.000 C 
ENDBRANCH  15  23
ENDBRANCH   1  15
TORSDOF 2
ENDMDL
MODEL 2
REMARK VINA RESULT:      -7.6      0.736      1.104
REMARK  Name = 
REMARK  3 active torsions:
REMARK  status: ('A' for Active; 'I' for Inactive)
REMARK    1  A    between atoms: C_1  and  N_2
REMARK    2  A    between atoms: C_8  and  O_9
REMARK    3  A    between atoms: O_9  and  C_10
REMARK                            x       y       z     vdW  Elec       q    Type
REMARK                         _______ _______ _______ _____ _____    ______ ____
ROOT
ATOM      1  C   UNL     1       1.990   7.438  19.945  0.00  0.00    +0.000 C 
ATOM      2  O   UNL     1       1.896   7.385  21.165  0.00  0.00    +0.000 OA
ATOM      3  N   UNL     1       1.626   8.509  19.159  0.00  0.00    +0.000 N 
ATOM      4  C   UNL     1       2.222   8.932  17.928  0.00  0.00    +0.000 A 
ATOM      5  O   UNL     1       2.981   8.326  17.180  0.00  0.00    +0.000 OA
ATOM      6  N   UNL     1       1.760  10.234  17.673  0.00  0.00    +0.000 N 
ATOM      7  C   UNL     1       0.938  10.637  18.711  0.00  0.00    +0.000 A 
ATOM      8  C   UNL     1       0.293  11.840  18.880  0.00  0.00    +0.000 A 
ATOM      9  C   UNL     1      -0.482  11.982  20.034  0.00  0.00    +0.000 A 
ATOM     10  C   UNL     1      -0.578  10.930  20.959  0.00  0.00    +0.000 A 
ATOM     11  F   UNL     1      -1.340  11.094  22.052  0.00  0.00    +0.000 F 
ATOM     12  C   UNL     1       0.091   9.723  20.778  0.00  0.00    +0.000 A 
ATOM     13  C   UNL     1       0.850   9.601  19.637  0.00  0.00    +0.000 A 
ATOM     14  H   UNL     1       2.037  10.771  16.862  0.00  0.00    +0.000 HD
ENDROOT
BRANCH   1  15
ATOM     15  O   UNL     1       2.564   6.436  19.226  0.00  0.00    +0.000 OA
BRANCH  15  23
ATOM     16  C   UNL     1       3.687   1.437  18.365  0.00  0.00    +0.000 C 
ATOM     17  N   UNL     1       3.111   2.741  18.593  0.00  0.00    +0.000 NA
ATOM     18  C   UNL     1       3.863   3.588  19.513  0.00  0.00    +0.000 C 
ATOM     19  C   UNL     1       4.785   4.410  18.603  0.00  0.00    +0.000 C 
ATOM     20  C   UNL     1       4.068   4.496  17.261  0.00  0.00    +0.000 C 
ATOM     21  C   UNL     1       2.833   3.617  17.449  0.00  0.00    +0.000 C 
ATOM     22  C   UNL     1       1.652   4.510  17.887  0.00  0.00    +0.000 C 
ATOM     23  C   UNL     1       1.869   5.174  19.273  0.00  0.00    +0.000 C 
ATOM     24  C   UNL     1       2.708   4.307  20.223  0.00  0.00    +0.000 C 
ENDBRANCH  15  23
ENDBRANCH   1  15
TORSDOF 2
ENDMDL
MODEL 3
REMARK VINA RESULT:      -7.5      5.803      7.868
REMARK  Name = 
REMARK  3 active torsions:
REMARK  status: ('A' for Active; 'I' for Inactive)
REMARK    1  A    between atoms: C_1  and  N_2
REMARK    2  A    between atoms: C_8  and  O_9
REMARK    3  A    between atoms: O_9  and  C_10
REMARK                            x       y       z     vdW  Elec       q    Type
REMARK                         _______ _______ _______ _____ _____    ______ ____
ROOT
ATOM      1  C   UNL     1       4.651   4.121  16.431  0.00  0.00    +0.000 C 
ATOM      2  O   UNL     1       3.645   3.743  15.842  0.00  0.00    +0.000 OA
ATOM      3  N   UNL     1       5.834   4.497  15.834  0.00  0.00    +0.000 N 
ATOM      4  C   UNL     1       6.768   5.480  16.291  0.00  0.00    +0.000 A 
ATOM      5  O   UNL     1       6.873   6.006  17.394  0.00  0.00    +0.000 OA
ATOM      6  N   UNL     1       7.627   5.763  15.215  0.00  0.00    +0.000 N 
ATOM      7  C   UNL     1       7.235   5.024  14.113  0.00  0.00    +0.000 A 
ATOM      8  C   UNL     1       7.777   5.009  12.849  0.00  0.00    +0.000 A 
ATOM      9  C   UNL     1       7.177   4.158  11.916  0.00  0.00    +0.000 A 
ATOM     10  C   UNL     1       6.074   3.369  12.281  0.00  0.00    +0.000 A 
ATOM     11  F   UNL     1       5.528   2.555  11.364  0.00  0.00    +0.000 F 
ATOM     12  C   UNL     1       5.530   3.406  13.561  0.00  0.00    +0.000 A 
ATOM     13  C   UNL     1       6.133   4.249  14.466  0.00  0.00    +0.000 A 
ATOM     14  H   UNL     1       8.380   6.436  15.269  0.00  0.00    +0.000 HD
ENDROOT
BRANCH   1  15
ATOM     15  O   UNL     1       4.669   4.295  17.780  0.00  0.00    +0.000 OA
BRANCH  15  23
ATOM     16  C   UNL     1       1.271   2.787  21.409  0.00  0.00    +0.000 C 
ATOM     17  N   UNL     1       2.015   3.383  20.325  0.00  0.00    +0.000 NA
ATOM     18  C   UNL     1       3.447   3.521  20.570  0.00  0.00    +0.000 C 
ATOM     19  C   UNL     1       4.057   2.243  19.980  0.00  0.00    +0.000 C 
ATOM     20  C   UNL     1       3.101   1.801  18.879  0.00  0.00    +0.000 C 
ATOM     21  C   UNL     1       1.939   2.788  18.985  0.00  0.00    +0.000 C 
ATOM     22  C   UNL     1       2.186   3.951  18.000  0.00  0.00    +0.000 C 
ATOM     23  C   UNL     1       3.442   4.792  18.350  0.00  0.00    +0.000 C 
ATOM     24  C   UNL     1       3.715   4.854  19.859  0.00  0.00    +0.000 C 
ENDBRANCH  15  23
ENDBRANCH   1  15
TORSDOF 2
ENDMDL
MODEL 4
REMARK VINA RESULT:      -7.2      2.891      7.379
REMARK  Name = 
REMARK  3 active torsions:
REMARK  status: ('A' for Active; 'I' for Inactive)
REMARK    1  A    between atoms: C_1  and  N_2
REMARK    2  A    between atoms: C_8  and  O_9
REMARK    3  A    between atoms: O_9  and  C_10
REMARK                            x       y       z     vdW  Elec       q    Type
REMARK                         _______ _______ _______ _____ _____    ______ ____
ROOT
ATOM      1  C   UNL     1       2.455   7.827  18.538  0.00  0.00    +0.000 C 
ATOM      2  O   UNL     1       3.283   8.040  17.660  0.00  0.00    +0.000 OA
ATOM      3  N   UNL     1       2.316   6.648  19.237  0.00  0.00    +0.000 N 
ATOM      4  C   UNL     1       1.886   6.483  20.592  0.00  0.00    +0.000 A 
ATOM      5  O   UNL     1       1.315   7.276  21.333  0.00  0.00    +0.000 OA
ATOM      6  N   UNL     1       2.221   5.172  20.973  0.00  0.00    +0.000 N 
ATOM      7  C   UNL     1       2.867   4.544  19.923  0.00  0.00    +0.000 A 
ATOM      8  C   UNL     1       3.385   3.271  19.870  0.00  0.00    +0.000 A 
ATOM      9  C   UNL     1       3.994   2.889  18.671  0.00  0.00    +0.000 A 
ATOM     10  C   UNL     1       4.059   3.784  17.590  0.00  0.00    +0.000 A 
ATOM     11  F   UNL     1       4.640   3.381  16.449  0.00  0.00    +0.000 F 
ATOM     12  C   UNL     1       3.541   5.073  17.666  0.00  0.00    +0.000 A 
ATOM     13  C   UNL     1       2.946   5.432  18.853  0.00  0.00    +0.000 A 
ATOM     14  H   UNL     1       2.031   4.797  21.893  0.00  0.00    +0.000 HD
ENDROOT
BRANCH   1  15
ATOM     15  O   UNL     1       1.616   8.800  18.983  0.00  0.00    +0.000 OA
BRANCH  15  23
ATOM     16  C   UNL     1      -0.542  13.524  18.838  0.00  0.00    +0.000 C 
ATOM     17  N   UNL     1      -0.023  12.195  18.612  0.00  0.00    +0.000 NA
ATOM     18  C   UNL     1       1.224  11.901  19.312  0.00  0.00    +0.000 C 
ATOM     19  C   UNL     1       0.775  11.252  20.628  0.00  0.00    +0.000 C 
ATOM     20  C   UNL     1      -0.574  10.610  20.331  0.00  0.00    +0.000 C 
ATOM     21  C   UNL     1      -0.872  11.032  18.893  0.00  0.00    +0.000 C 
ATOM     22  C   UNL     1      -0.382   9.920  17.940  0.00  0.00    +0.000 C 
ATOM     23  C   UNL     1       1.157   9.721  17.974  0.00  0.00    +0.000 C 
ATOM     24  C   UNL     1       1.919  11.022  18.264  0.00  0.00    +0.000 C 
ENDBRANCH  15  23
ENDBRANCH   1  15
TORSDOF 2
ENDMDL
MODEL 5
REMARK VINA RESULT:      -7.1      2.001      2.633
REMARK  Name = 
REMARK  3 active torsions:
REMARK  status: ('A' for Active; 'I' for Inactive)
REMARK    1  A    between atoms: C_1  and  N_2
REMARK    2  A    between atoms: C_8  and  O_9
REMARK    3  A    between atoms: O_9  and  C_10
REMARK                            x       y       z     vdW  Elec       q    Type
REMARK                         _______ _______ _______ _____ _____    ______ ____
ROOT
ATOM      1  C   UNL     1       2.351   6.836  19.387  0.00  0.00    +0.000 C 
ATOM      2  O   UNL     1       2.499   6.335  20.495  0.00  0.00    +0.000 OA
ATOM      3  N   UNL     1       1.795   8.070  19.134  0.00  0.00    +0.000 N 
ATOM      4  C   UNL     1       2.121   8.974  18.073  0.00  0.00    +0.000 A 
ATOM      5  O   UNL     1       2.746   8.771  17.038  0.00  0.00    +0.000 OA
ATOM      6  N   UNL     1       1.561  10.219  18.407  0.00  0.00    +0.000 N 
ATOM      7  C   UNL     1       0.940  10.124  19.639  0.00  0.00    +0.000 A 
ATOM      8  C   UNL     1       0.288  11.102  20.353  0.00  0.00    +0.000 A 
ATOM      9  C   UNL     1      -0.253  10.728  21.586  0.00  0.00    +0.000 A 
ATOM     10  C   UNL     1      -0.121   9.409  22.048  0.00  0.00    +0.000 A 
ATOM     11  F   UNL     1      -0.662   9.079  23.232  0.00  0.00    +0.000 F 
ATOM     12  C   UNL     1       0.552   8.434  21.319  0.00  0.00    +0.000 A 
ATOM     13  C   UNL     1       1.079   8.820  20.109  0.00  0.00    +0.000 A 
ATOM     14  H   UNL     1       1.651  11.041  17.824  0.00  0.00    +0.000 HD
ENDROOT
BRANCH   1  15
ATOM     15  O   UNL     1       2.818   6.234  18.260  0.00  0.00    +0.000 OA
BRANCH  15  23
ATOM     16  C   UNL     1       7.575   4.413  17.237  0.00  0.00    +0.000 C 
ATOM     17  N   UNL     1       6.191   4.653  17.571  0.00  0.00    +0.000 NA
ATOM     18  C   UNL     1       5.943   5.900  18.287  0.00  0.00    +0.000 C 
ATOM     19  C   UNL     1       5.612   6.911  17.183  0.00  0.00    +0.000 C 
ATOM     20  C   UNL     1       5.035   6.093  16.035  0.00  0.00    +0.000 C 
ATOM     21  C   UNL     1       5.181   4.647  16.506  0.00  0.00    +0.000 C 
ATOM     22  C   UNL     1       3.864   4.213  17.186  0.00  0.00    +0.000 C 
ATOM     23  C   UNL     1       3.551   5.012  18.479  0.00  0.00    +0.000 C 
ATOM     24  C   UNL     1       4.818   5.451  19.228  0.00  0.00    +0.000 C 
ENDBRANCH  15  23
ENDBRANCH   1  15
TORSDOF 2
ENDMDL
MODEL 6
REMARK VINA RESULT:      -7.0      1.430      2.809
REMARK  Name = 
REMARK  3 active torsions:
REMARK  status: ('A' for Active; 'I' for Inactive)
REMARK    1  A    between atoms: C_1  and  N_2
REMARK    2  A    between atoms: C_8  and  O_9
REMARK    3  A    between atoms: O_9  and  C_10
REMARK                            x       y       z     vdW  Elec       q    Type
REMARK                         _______ _______ _______ _____ _____    ______ ____
ROOT
ATOM      1  C   UNL     1       2.257   8.072  18.486  0.00  0.00    +0.000 C 
ATOM      2  O   UNL     1       2.168   8.564  17.368  0.00  0.00    +0.000 OA
ATOM      3  N   UNL     1       1.662   8.565  19.627  0.00  0.00    +0.000 N 
ATOM      4  C   UNL     1       1.181   7.822  20.752  0.00  0.00    +0.000 A 
ATOM      5  O   UNL     1       1.408   6.661  21.075  0.00  0.00    +0.000 OA
ATOM      6  N   UNL     1       0.364   8.688  21.498  0.00  0.00    +0.000 N 
ATOM      7  C   UNL     1       0.297   9.913  20.859  0.00  0.00    +0.000 A 
ATOM      8  C   UNL     1      -0.405  11.038  21.227  0.00  0.00    +0.000 A 
ATOM      9  C   UNL     1      -0.295  12.151  20.389  0.00  0.00    +0.000 A 
ATOM     10  C   UNL     1       0.502  12.094  19.234  0.00  0.00    +0.000 A 
ATOM     11  F   UNL     1       0.596  13.185  18.457  0.00  0.00    +0.000 F 
ATOM     12  C   UNL     1       1.196  10.945  18.871  0.00  0.00    +0.000 A 
ATOM     13  C   UNL     1       1.075   9.858  19.706  0.00  0.00    +0.000 A 
ATOM     14  H   UNL     1      -0.110   8.408  22.347  0.00  0.00    +0.000 HD
ENDROOT
BRANCH   1  15
ATOM     15  O   UNL     1       2.909   6.899  18.704  0.00  0.00    +0.000 OA
BRANCH  15  23
ATOM     16  C   UNL     1       3.578   1.794  18.006  0.00  0.00    +0.000 C 
ATOM     17  N   UNL     1       3.419   3.227  17.924  0.00  0.00    +0.000 NA
ATOM     18  C   UNL     1       2.469   3.791  18.876  0.00  0.00    +0.000 C 
ATOM     19  C   UNL     1       3.331   4.187  20.081  0.00  0.00    +0.000 C 
ATOM     20  C   UNL     1       4.721   4.462  19.521  0.00  0.00    +0.000 C 
ATOM     21  C   UNL     1       4.600   4.091  18.044  0.00  0.00    +0.000 C 
ATOM     22  C   UNL     1       4.264   5.366  17.239  0.00  0.00    +0.000 C 
ATOM     23  C   UNL     1       2.882   5.971  17.601  0.00  0.00    +0.000 C 
ATOM     24  C   UNL     1       1.857   4.906  18.018  0.00  0.00    +0.000 C 
ENDBRANCH  15  23
ENDBRANCH   1  15
TORSDOF 2
ENDMDL
MODEL 7
REMARK VINA RESULT:      -7.0      1.753      2.889
REMARK  Name = 
REMARK  3 active torsions:
REMARK  status: ('A' for Active; 'I' for Inactive)
REMARK    1  A    between atoms: C_1  and  N_2
REMARK    2  A    between atoms: C_8  and  O_9
REMARK    3  A    between atoms: O_9  and  C_10
REMARK                            x       y       z     vdW  Elec       q    Type
REMARK                         _______ _______ _______ _____ _____    ______ ____
ROOT
ATOM      1  C   UNL     1       1.899   8.339  18.818  0.00  0.00    +0.000 C 
ATOM      2  O   UNL     1       2.147   8.561  17.639  0.00  0.00    +0.000 OA
ATOM      3  N   UNL     1       1.363   9.244  19.707  0.00  0.00    +0.000 N 
ATOM      4  C   UNL     1       0.497   8.973  20.815  0.00  0.00    +0.000 A 
ATOM      5  O   UNL     1       0.251   7.908  21.371  0.00  0.00    +0.000 OA
ATOM      6  N   UNL     1      -0.057  10.200  21.215  0.00  0.00    +0.000 N 
ATOM      7  C   UNL     1       0.403  11.202  20.378  0.00  0.00    +0.000 A 
ATOM      8  C   UNL     1       0.100  12.543  20.394  0.00  0.00    +0.000 A 
ATOM      9  C   UNL     1       0.713  13.339  19.422  0.00  0.00    +0.000 A 
ATOM     10  C   UNL     1       1.593  12.768  18.488  0.00  0.00    +0.000 A 
ATOM     11  F   UNL     1       2.174  13.562  17.575  0.00  0.00    +0.000 F 
ATOM     12  C   UNL     1       1.879  11.406  18.479  0.00  0.00    +0.000 A 
ATOM     13  C   UNL     1       1.266  10.638  19.441  0.00  0.00    +0.000 A 
ATOM     14  H   UNL     1      -0.714  10.289  21.979  0.00  0.00    +0.000 HD
ENDROOT
BRANCH   1  15
ATOM     15  O   UNL     1       2.056   7.103  19.364  0.00  0.00    +0.000 OA
BRANCH  15  23
ATOM     16  C   UNL     1       2.783   1.973  18.986  0.00  0.00    +0.000 C 
ATOM     17  N   UNL     1       2.824   3.416  18.957  0.00  0.00    +0.000 NA
ATOM     18  C   UNL     1       1.526   4.060  18.786  0.00  0.00    +0.000 C 
ATOM     19  C   UNL     1       1.046   4.332  20.217  0.00  0.00    +0.000 C 
ATOM     20  C   UNL     1       2.311   4.465  21.056  0.00  0.00    +0.000 C 
ATOM     21  C   UNL     1       3.437   4.142  20.076  0.00  0.00    +0.000 C 
ATOM     22  C   UNL     1       3.962   5.464  19.473  0.00  0.00    +0.000 C 
ATOM     23  C   UNL     1       2.905   6.208  18.617  0.00  0.00    +0.000 C 
ATOM     24  C   UNL     1       1.931   5.253  17.911  0.00  0.00    +0.000 C 
ENDBRANCH  15  23
ENDBRANCH   1  15
TORSDOF 2
ENDMDL
MODEL 8
REMARK VINA RESULT:      -6.8      2.801      4.147
REMARK  Name = 
REMARK  3 active torsions:
REMARK  status: ('A' for Active; 'I' for Inactive)
REMARK    1  A    between atoms: C_1  and  N_2
REMARK    2  A    between atoms: C_8  and  O_9
REMARK    3  A    between atoms: O_9  and  C_10
REMARK                            x       y       z     vdW  Elec       q    Type
REMARK                         _______ _______ _______ _____ _____    ______ ____
ROOT
ATOM      1  C   UNL     1       3.074   7.586  17.934  0.00  0.00    +0.000 C 
ATOM      2  O   UNL     1       2.669   8.341  17.059  0.00  0.00    +0.000 OA
ATOM      3  N   UNL     1       2.550   7.477  19.203  0.00  0.00    +0.000 N 
ATOM      4  C   UNL     1       2.493   6.308  20.027  0.00  0.00    +0.000 A 
ATOM      5  O   UNL     1       3.098   5.247  19.920  0.00  0.00    +0.000 OA
ATOM      6  N   UNL     1       1.587   6.580  21.066  0.00  0.00    +0.000 N 
ATOM      7  C   UNL     1       1.063   7.849  20.892  0.00  0.00    +0.000 A 
ATOM      8  C   UNL     1       0.130   8.507  21.659  0.00  0.00    +0.000 A 
ATOM      9  C   UNL     1      -0.225   9.796  21.251  0.00  0.00    +0.000 A 
ATOM     10  C   UNL     1       0.360  10.365  20.108  0.00  0.00    +0.000 A 
ATOM     11  F   UNL     1       0.006  11.609  19.750  0.00  0.00    +0.000 F 
ATOM     12  C   UNL     1       1.294   9.680  19.337  0.00  0.00    +0.000 A 
ATOM     13  C   UNL     1       1.630   8.413  19.752  0.00  0.00    +0.000 A 
ATOM     14  H   UNL     1       1.356   5.912  21.789  0.00  0.00    +0.000 HD
ENDROOT
BRANCH   1  15
ATOM     15  O   UNL     1       4.067   6.686  17.701  0.00  0.00    +0.000 OA
BRANCH  15  23
ATOM     16  C   UNL     1       7.562   4.774  14.367  0.00  0.00    +0.000 C 
ATOM     17  N   UNL     1       6.762   5.524  15.305  0.00  0.00    +0.000 NA
ATOM     18  C   UNL     1       5.320   5.372  15.136  0.00  0.00    +0.000 C 
ATOM     19  C   UNL     1       4.946   4.228  16.085  0.00  0.00    +0.000 C 
ATOM     20  C   UNL     1       5.992   4.253  17.192  0.00  0.00    +0.000 C 
ATOM     21  C   UNL     1       6.973   5.336  16.745  0.00  0.00    +0.000 C 
ATOM     22  C   UNL     1       6.566   6.673  17.402  0.00  0.00    +0.000 C 
ATOM     23  C   UNL     1       5.180   7.188  16.933  0.00  0.00    +0.000 C 
ATOM     24  C   UNL     1       4.857   6.793  15.485  0.00  0.00    +0.000 C 
ENDBRANCH  15  23
ENDBRANCH   1  15
TORSDOF 2
ENDMDL
MODEL 9
REMARK VINA RESULT:      -6.8      2.798      7.035
REMARK  Name = 
REMARK  3 active torsions:
REMARK  status: ('A' for Active; 'I' for Inactive)
REMARK    1  A    between atoms: C_1  and  N_2
REMARK    2  A    between atoms: C_8  and  O_9
REMARK    3  A    between atoms: O_9  and  C_10
REMARK                            x       y       z     vdW  Elec       q    Type
REMARK                         _______ _______ _______ _____ _____    ______ ____
ROOT
ATOM      1  C   UNL     1       1.604   7.923  20.232  0.00  0.00    +0.000 C 
ATOM      2  O   UNL     1       1.070   7.136  21.003  0.00  0.00    +0.000 OA
ATOM      3  N   UNL     1       2.453   7.583  19.201  0.00  0.00    +0.000 N 
ATOM      4  C   UNL     1       2.613   8.250  17.946  0.00  0.00    +0.000 A 
ATOM      5  O   UNL     1       2.253   9.372  17.606  0.00  0.00    +0.000 OA
ATOM      6  N   UNL     1       3.313   7.373  17.100  0.00  0.00    +0.000 N 
ATOM      7  C   UNL     1       3.555   6.189  17.772  0.00  0.00    +0.000 A 
ATOM      8  C   UNL     1       4.187   5.055  17.318  0.00  0.00    +0.000 A 
ATOM      9  C   UNL     1       4.295   3.990  18.217  0.00  0.00    +0.000 A 
ATOM     10  C   UNL     1       3.774   4.103  19.516  0.00  0.00    +0.000 A 
ATOM     11  F   UNL     1       3.904   3.066  20.359  0.00  0.00    +0.000 F 
ATOM     12  C   UNL     1       3.126   5.253  19.956  0.00  0.00    +0.000 A 
ATOM     13  C   UNL     1       3.028   6.290  19.057  0.00  0.00    +0.000 A 
ATOM     14  H   UNL     1       3.553   7.600  16.144  0.00  0.00    +0.000 HD
ENDROOT
BRANCH   1  15
ATOM     15  O   UNL     1       1.334   9.256  20.266  0.00  0.00    +0.000 OA
BRANCH  15  23
ATOM     16  C   UNL     1      -1.745  13.440  20.174  0.00  0.00    +0.000 C 
ATOM     17  N   UNL     1      -1.072  12.180  20.385  0.00  0.00    +0.000 NA
ATOM     18  C   UNL     1      -0.446  11.615  19.195  0.00  0.00    +0.000 C 
ATOM     19  C   UNL     1       0.998  12.131  19.244  0.00  0.00    +0.000 C 
ATOM     20  C   UNL     1       1.300  12.367  20.719  0.00  0.00    +0.000 C 
ATOM     21  C   UNL     1      -0.030  12.084  21.415  0.00  0.00    +0.000 C 
ATOM     22  C   UNL     1      -0.041  10.611  21.880  0.00  0.00    +0.000 C 
ATOM     23  C   UNL     1       0.004   9.599  20.705  0.00  0.00    +0.000 C 
ATOM     24  C   UNL     1      -0.696  10.122  19.442  0.00  0.00    +0.000 C 
ENDBRANCH  15  23
ENDBRANCH   1  15
TORSDOF 2
ENDMDL
