MODEL 1
REMARK VINA RESULT:      -8.8      0.000      0.000
REMARK  Name = 
REMARK  6 active torsions:
REMARK  status: ('A' for Active; 'I' for Inactive)
REMARK    1  A    between atoms: C_2  and  C_3
REMARK    2  A    between atoms: C_8  and  O_9
REMARK    3  A    between atoms: O_9  and  C_10
REMARK    4  A    between atoms: C_10  and  C_11
REMARK    5  A    between atoms: N_13  and  C_14
REMARK    6  A    between atoms: C_17  and  C_18
REMARK                            x       y       z     vdW  Elec       q    Type
REMARK                         _______ _______ _______ _____ _____    ______ ____
ROOT
ATOM      1  C   UNL     1       4.313   5.975  18.089  0.00  0.00    +0.000 A 
ATOM      2  C   UNL     1       3.700   7.010  17.386  0.00  0.00    +0.000 A 
ATOM      3  C   UNL     1       2.721   7.784  18.012  0.00  0.00    +0.000 A 
ATOM      4  C   UNL     1       2.350   7.540  19.342  0.00  0.00    +0.000 A 
ATOM      5  C   UNL     1       2.957   6.470  20.021  0.00  0.00    +0.000 A 
ATOM      6  C   UNL     1       3.930   5.682  19.396  0.00  0.00    +0.000 A 
ENDROOT
BRANCH   4   7
ATOM      7  C   UNL     1       1.409   8.445  20.000  0.00  0.00    +0.000 A 
ATOM      8  N   UNL     1       1.017   9.647  19.616  0.00  0.00    +0.000 NA
ATOM      9  C   UNL     1       0.304  10.119  20.685  0.00  0.00    +0.000 A 
ATOM     10  C   UNL     1      -0.300  11.362  20.906  0.00  0.00    +0.000 A 
ATOM     11  C   UNL     1      -0.922  11.570  22.144  0.00  0.00    +0.000 A 
ATOM     12 CL   UNL     1      -1.632  13.105  22.477  0.00  0.00    +0.000 Cl
ATOM     13  C   UNL     1      -0.966  10.569  23.123  0.00  0.00    +0.000 A 
ATOM     14  C   UNL     1      -0.381   9.314  22.905  0.00  0.00    +0.000 A 
ATOM     15  C   UNL     1       0.248   9.153  21.677  0.00  0.00    +0.000 A 
ATOM     16  O   UNL     1       0.941   8.063  21.235  0.00  0.00    +0.000 OA
ENDBRANCH   4   7
BRANCH   1  19
ATOM     17  C   UNL     1       5.093   4.138  16.671  0.00  0.00    +0.000 C 
ATOM     18  O   UNL     1       5.993   3.726  15.935  0.00  0.00    +0.000 OA
ATOM     19  N   UNL     1       5.327   5.247  17.457  0.00  0.00    +0.000 N 
ATOM     20  H   UNL     1       6.124   5.767  17.106  0.00  0.00    +0.000 HD
BRANCH  17  21
ATOM     21  C   UNL     1       3.721   3.465  16.723  0.00  0.00    +0.000 C 
BRANCH  21  22
ATOM     22  O   UNL     1       3.734   2.507  17.776  0.00  0.00    +0.000 OA
BRANCH  22  28
ATOM     23  C   UNL     1       3.182   2.393  20.227  0.00  0.00    +0.000 A 
ATOM     24  C   UNL     1       2.183   2.647  21.187  0.00  0.00    +0.000 A 
ATOM     25  C   UNL     1       0.937   3.149  20.817  0.00  0.00    +0.000 A 
ATOM     26  C   UNL     1       0.674   3.402  19.478  0.00  0.00    +0.000 A 
ATOM     27  C   UNL     1       1.661   3.159  18.519  0.00  0.00    +0.000 A 
ATOM     28  C   UNL     1       2.925   2.656  18.872  0.00  0.00    +0.000 A 
BRANCH  23  30
ATOM     29  N   UNL     1       5.414   1.443  21.149  0.00  0.00    +0.000 NA
ATOM     30  C   UNL     1       4.414   1.871  20.732  0.00  0.00    +0.000 C 
ENDBRANCH  23  30
ENDBRANCH  22  28
ENDBRANCH  21  22
ENDBRANCH  17  21
ENDBRANCH   1  19
TORSDOF 6
ENDMDL
MODEL 2
REMARK VINA RESULT:      -8.3      0.512      1.032
REMARK  Name = 
REMARK  6 active torsions:
REMARK  status: ('A' for Active; 'I' for Inactive)
REMARK    1  A    between atoms: C_2  and  C_3
REMARK    2  A    between atoms: C_8  and  O_9
REMARK    3  A    between atoms: O_9  and  C_10
REMARK    4  A    between atoms: C_10  and  C_11
REMARK    5  A    between atoms: N_13  and  C_14
REMARK    6  A    between atoms: C_17  and  C_18
REMARK                            x       y       z     vdW  Elec       q    Type
REMARK                         _______ _______ _______ _____ _____    ______ ____
ROOT
ATOM      1  C   UNL     1       4.113   6.095  18.110  0.00  0.00    +0.000 A 
ATOM      2  C   UNL     1       3.719   5.842  19.423  0.00  0.00    +0.000 A 
ATOM      3  C   UNL     1       2.805   6.694  20.047  0.00  0.00    +0.000 A 
ATOM      4  C   UNL     1       2.271   7.799  19.367  0.00  0.00    +0.000 A 
ATOM      5  C   UNL     1       2.707   8.054  18.056  0.00  0.00    +0.000 A 
ATOM      6  C   UNL     1       3.632   7.211  17.430  0.00  0.00    +0.000 A 
ENDROOT
BRANCH   4   7
ATOM      7  C   UNL     1       1.229   8.598  20.009  0.00  0.00    +0.000 A 
ATOM      8  N   UNL     1       0.455   9.526  19.474  0.00  0.00    +0.000 NA
ATOM      9  C   UNL     1      -0.183  10.084  20.549  0.00  0.00    +0.000 A 
ATOM     10  C   UNL     1      -1.072  11.162  20.629  0.00  0.00    +0.000 A 
ATOM     11  C   UNL     1      -1.522  11.540  21.900  0.00  0.00    +0.000 A 
ATOM     12 CL   UNL     1      -2.577  12.895  22.047  0.00  0.00    +0.000 Cl
ATOM     13  C   UNL     1      -1.123  10.855  23.056  0.00  0.00    +0.000 A 
ATOM     14  C   UNL     1      -0.248   9.763  22.986  0.00  0.00    +0.000 A 
ATOM     15  C   UNL     1       0.197   9.432  21.712  0.00  0.00    +0.000 A 
ATOM     16  O   UNL     1       1.091   8.460  21.371  0.00  0.00    +0.000 OA
ENDBRANCH   4   7
BRANCH   1  19
ATOM     17  C   UNL     1       4.572   4.109  16.755  0.00  0.00    +0.000 C 
ATOM     18  O   UNL     1       5.383   3.538  16.021  0.00  0.00    +0.000 OA
ATOM     19  N   UNL     1       4.990   5.198  17.491  0.00  0.00    +0.000 N 
ATOM     20  H   UNL     1       5.848   5.577  17.106  0.00  0.00    +0.000 HD
BRANCH  17  21
ATOM     21  C   UNL     1       3.116   3.655  16.857  0.00  0.00    +0.000 C 
BRANCH  21  22
ATOM     22  O   UNL     1       3.051   2.569  17.775  0.00  0.00    +0.000 OA
BRANCH  22  28
ATOM     23  C   UNL     1       3.101   2.454  20.287  0.00  0.00    +0.000 A 
ATOM     24  C   UNL     1       2.375   2.741  21.459  0.00  0.00    +0.000 A 
ATOM     25  C   UNL     1       1.100   3.300  21.400  0.00  0.00    +0.000 A 
ATOM     26  C   UNL     1       0.533   3.578  20.164  0.00  0.00    +0.000 A 
ATOM     27  C   UNL     1       1.249   3.302  18.995  0.00  0.00    +0.000 A 
ATOM     28  C   UNL     1       2.537   2.742  19.033  0.00  0.00    +0.000 A 
BRANCH  23  30
ATOM     29  N   UNL     1       5.450   1.410  20.637  0.00  0.00    +0.000 NA
ATOM     30  C   UNL     1       4.395   1.875  20.480  0.00  0.00    +0.000 C 
ENDBRANCH  23  30
ENDBRANCH  22  28
ENDBRANCH  21  22
ENDBRANCH  17  21
ENDBRANCH   1  19
TORSDOF 6
ENDMDL
MODEL 3
REMARK VINA RESULT:      -8.1      1.598      2.015
REMARK  Name = 
REMARK  6 active torsions:
REMARK  status: ('A' for Active; 'I' for Inactive)
REMARK    1  A    between atoms: C_2  and  C_3
REMARK    2  A    between atoms: C_8  and  O_9
REMARK    3  A    between atoms: O_9  and  C_10
REMARK    4  A    between atoms: C_10  and  C_11
REMARK    5  A    between atoms: N_13  and  C_14
REMARK    6  A    between atoms: C_17  and  C_18
REMARK                            x       y       z     vdW  Elec       q    Type
REMARK                         _______ _______ _______ _____ _____    ______ ____
ROOT
ATOM      1  C   UNL     1       4.027   6.519  18.423  0.00  0.00    +0.000 A 
ATOM      2  C   UNL     1       3.811   7.478  17.436  0.00  0.00    +0.000 A 
ATOM      3  C   UNL     1       2.766   8.393  17.577  0.00  0.00    +0.000 A 
ATOM      4  C   UNL     1       1.932   8.364  18.706  0.00  0.00    +0.000 A 
ATOM      5  C   UNL     1       2.146   7.367  19.672  0.00  0.00    +0.000 A 
ATOM      6  C   UNL     1       3.185   6.440  19.529  0.00  0.00    +0.000 A 
ENDROOT
BRANCH   4   7
ATOM      7  C   UNL     1       0.925   9.410  18.877  0.00  0.00    +0.000 A 
ATOM      8  N   UNL     1       0.700  10.171  19.934  0.00  0.00    +0.000 NA
ATOM      9  C   UNL     1      -0.467  10.820  19.630  0.00  0.00    +0.000 A 
ATOM     10  C   UNL     1      -1.247  11.704  20.385  0.00  0.00    +0.000 A 
ATOM     11  C   UNL     1      -2.438  12.168  19.814  0.00  0.00    +0.000 A 
ATOM     12 CL   UNL     1      -3.454  13.217  20.730  0.00  0.00    +0.000 Cl
ATOM     13  C   UNL     1      -2.833  11.788  18.524  0.00  0.00    +0.000 A 
ATOM     14  C   UNL     1      -2.051  10.919  17.752  0.00  0.00    +0.000 A 
ATOM     15  C   UNL     1      -0.889  10.459  18.361  0.00  0.00    +0.000 A 
ATOM     16  O   UNL     1       0.013   9.566  17.860  0.00  0.00    +0.000 OA
ENDBRANCH   4   7
BRANCH   1  19
ATOM     17  C   UNL     1       5.091   4.528  17.475  0.00  0.00    +0.000 C 
ATOM     18  O   UNL     1       6.157   3.977  17.191  0.00  0.00    +0.000 OA
ATOM     19  N   UNL     1       5.112   5.647  18.281  0.00  0.00    +0.000 N 
ATOM     20  H   UNL     1       6.041   6.055  18.297  0.00  0.00    +0.000 HD
BRANCH  17  21
ATOM     21  C   UNL     1       3.751   4.016  16.947  0.00  0.00    +0.000 C 
BRANCH  21  22
ATOM     22  O   UNL     1       3.394   2.855  17.688  0.00  0.00    +0.000 OA
BRANCH  22  28
ATOM     23  C   UNL     1       3.149   2.566  20.174  0.00  0.00    +0.000 A 
ATOM     24  C   UNL     1       2.301   2.798  21.274  0.00  0.00    +0.000 A 
ATOM     25  C   UNL     1       1.058   3.407  21.112  0.00  0.00    +0.000 A 
ATOM     26  C   UNL     1       0.647   3.790  19.842  0.00  0.00    +0.000 A 
ATOM     27  C   UNL     1       1.484   3.569  18.746  0.00  0.00    +0.000 A 
ATOM     28  C   UNL     1       2.743   2.959  18.889  0.00  0.00    +0.000 A 
BRANCH  23  30
ATOM     29  N   UNL     1       5.408   1.411  20.717  0.00  0.00    +0.000 NA
ATOM     30  C   UNL     1       4.394   1.926  20.470  0.00  0.00    +0.000 C 
ENDBRANCH  23  30
ENDBRANCH  22  28
ENDBRANCH  21  22
ENDBRANCH  17  21
ENDBRANCH   1  19
TORSDOF 6
ENDMDL
MODEL 4
REMARK VINA RESULT:      -8.0      0.901      1.288
REMARK  Name = 
REMARK  6 active torsions:
REMARK  status: ('A' for Active; 'I' for Inactive)
REMARK    1  A    between atoms: C_2  and  C_3
REMARK    2  A    between atoms: C_8  and  O_9
REMARK    3  A    between atoms: O_9  and  C_10
REMARK    4  A    between atoms: C_10  and  C_11
REMARK    5  A    between atoms: N_13  and  C_14
REMARK    6  A    between atoms: C_17  and  C_18
REMARK                            x       y       z     vdW  Elec       q    Type
REMARK                         _______ _______ _______ _____ _____    ______ ____
ROOT
ATOM      1  C   UNL     1       4.041   6.174  17.860  0.00  0.00    +0.000 A 
ATOM      2  C   UNL     1       3.490   7.268  17.196  0.00  0.00    +0.000 A 
ATOM      3  C   UNL     1       2.605   8.113  17.870  0.00  0.00    +0.000 A 
ATOM      4  C   UNL     1       2.269   7.880  19.212  0.00  0.00    +0.000 A 
ATOM      5  C   UNL     1       2.809   6.752  19.852  0.00  0.00    +0.000 A 
ATOM      6  C   UNL     1       3.686   5.895  19.178  0.00  0.00    +0.000 A 
ENDROOT
BRANCH   4   7
ATOM      7  C   UNL     1       1.435   8.851  19.918  0.00  0.00    +0.000 A 
ATOM      8  N   UNL     1       1.122   8.888  21.201  0.00  0.00    +0.000 NA
ATOM      9  C   UNL     1       0.168   9.867  21.281  0.00  0.00    +0.000 A 
ATOM     10  C   UNL     1      -0.597  10.317  22.363  0.00  0.00    +0.000 A 
ATOM     11  C   UNL     1      -1.548  11.314  22.116  0.00  0.00    +0.000 A 
ATOM     12 CL   UNL     1      -2.546  11.859  23.412  0.00  0.00    +0.000 Cl
ATOM     13  C   UNL     1      -1.721  11.867  20.841  0.00  0.00    +0.000 A 
ATOM     14  C   UNL     1      -0.948  11.438  19.753  0.00  0.00    +0.000 A 
ATOM     15  C   UNL     1      -0.032  10.430  20.030  0.00  0.00    +0.000 A 
ATOM     16  O   UNL     1       0.795   9.795  19.151  0.00  0.00    +0.000 OA
ENDBRANCH   4   7
BRANCH   1  19
ATOM     17  C   UNL     1       4.636   4.174  16.581  0.00  0.00    +0.000 C 
ATOM     18  O   UNL     1       5.425   3.673  15.776  0.00  0.00    +0.000 OA
ATOM     19  N   UNL     1       4.963   5.373  17.179  0.00  0.00    +0.000 N 
ATOM     20  H   UNL     1       5.689   5.846  16.650  0.00  0.00    +0.000 HD
BRANCH  17  21
ATOM     21  C   UNL     1       3.301   3.512  16.923  0.00  0.00    +0.000 C 
BRANCH  21  22
ATOM     22  O   UNL     1       3.518   2.596  17.990  0.00  0.00    +0.000 OA
BRANCH  22  28
ATOM     23  C   UNL     1       3.250   2.411  20.484  0.00  0.00    +0.000 A 
ATOM     24  C   UNL     1       2.378   2.659  21.562  0.00  0.00    +0.000 A 
ATOM     25  C   UNL     1       1.115   3.209  21.357  0.00  0.00    +0.000 A 
ATOM     26  C   UNL     1       0.706   3.517  20.066  0.00  0.00    +0.000 A 
ATOM     27  C   UNL     1       1.567   3.280  18.991  0.00  0.00    +0.000 A 
ATOM     28  C   UNL     1       2.847   2.729  19.178  0.00  0.00    +0.000 A 
BRANCH  23  30
ATOM     29  N   UNL     1       5.541   1.365  21.108  0.00  0.00    +0.000 NA
ATOM     30  C   UNL     1       4.515   1.837  20.825  0.00  0.00    +0.000 C 
ENDBRANCH  23  30
ENDBRANCH  22  28
ENDBRANCH  21  22
ENDBRANCH  17  21
ENDBRANCH   1  19
TORSDOF 6
ENDMDL
MODEL 5
REMARK VINA RESULT:      -7.9      2.030      4.147
REMARK  Name = 
REMARK  6 active torsions:
REMARK  status: ('A' for Active; 'I' for Inactive)
REMARK    1  A    between atoms: C_2  and  C_3
REMARK    2  A    between atoms: C_8  and  O_9
REMARK    3  A    between atoms: O_9  and  C_10
REMARK    4  A    between atoms: C_10  and  C_11
REMARK    5  A    between atoms: N_13  and  C_14
REMARK    6  A    between atoms: C_17  and  C_18
REMARK                            x       y       z     vdW  Elec       q    Type
REMARK                         _______ _______ _______ _____ _____    ______ ____
ROOT
ATOM      1  C   UNL     1       2.523   5.132  18.752  0.00  0.00    +0.000 A 
ATOM      2  C   UNL     1       1.880   5.081  19.987  0.00  0.00    +0.000 A 
ATOM      3  C   UNL     1       1.496   6.268  20.616  0.00  0.00    +0.000 A 
ATOM      4  C   UNL     1       1.741   7.512  20.016  0.00  0.00    +0.000 A 
ATOM      5  C   UNL     1       2.421   7.542  18.787  0.00  0.00    +0.000 A 
ATOM      6  C   UNL     1       2.820   6.356  18.159  0.00  0.00    +0.000 A 
ENDROOT
BRANCH   4   7
ATOM      7  C   UNL     1       1.219   8.724  20.645  0.00  0.00    +0.000 A 
ATOM      8  N   UNL     1       0.634   8.854  21.823  0.00  0.00    +0.000 NA
ATOM      9  C   UNL     1       0.169  10.141  21.821  0.00  0.00    +0.000 A 
ATOM     10  C   UNL     1      -0.597  10.841  22.761  0.00  0.00    +0.000 A 
ATOM     11  C   UNL     1      -0.971  12.153  22.446  0.00  0.00    +0.000 A 
ATOM     12 CL   UNL     1      -1.957  13.032  23.553  0.00  0.00    +0.000 Cl
ATOM     13  C   UNL     1      -0.578  12.763  21.247  0.00  0.00    +0.000 A 
ATOM     14  C   UNL     1       0.204  12.079  20.307  0.00  0.00    +0.000 A 
ATOM     15  C   UNL     1       0.535  10.771  20.642  0.00  0.00    +0.000 A 
ATOM     16  O   UNL     1       1.230   9.871  19.888  0.00  0.00    +0.000 OA
ENDBRANCH   4   7
BRANCH   1  19
ATOM     17  C   UNL     1       3.913   3.132  18.501  0.00  0.00    +0.000 C 
ATOM     18  O   UNL     1       3.969   1.972  18.086  0.00  0.00    +0.000 OA
ATOM     19  N   UNL     1       2.852   3.928  18.121  0.00  0.00    +0.000 N 
ATOM     20  H   UNL     1       2.086   3.357  17.780  0.00  0.00    +0.000 HD
BRANCH  17  21
ATOM     21  C   UNL     1       4.976   3.707  19.437  0.00  0.00    +0.000 C 
BRANCH  21  22
ATOM     22  O   UNL     1       6.204   3.786  18.723  0.00  0.00    +0.000 OA
BRANCH  22  28
ATOM     23  C   UNL     1       6.411   5.556  16.948  0.00  0.00    +0.000 A 
ATOM     24  C   UNL     1       6.961   6.818  16.650  0.00  0.00    +0.000 A 
ATOM     25  C   UNL     1       7.741   7.503  17.580  0.00  0.00    +0.000 A 
ATOM     26  C   UNL     1       7.981   6.932  18.822  0.00  0.00    +0.000 A 
ATOM     27  C   UNL     1       7.434   5.682  19.128  0.00  0.00    +0.000 A 
ATOM     28  C   UNL     1       6.642   4.977  18.206  0.00  0.00    +0.000 A 
BRANCH  23  30
ATOM     29  N   UNL     1       5.001   4.467  15.061  0.00  0.00    +0.000 NA
ATOM     30  C   UNL     1       5.636   4.952  15.908  0.00  0.00    +0.000 C 
ENDBRANCH  23  30
ENDBRANCH  22  28
ENDBRANCH  21  22
ENDBRANCH  17  21
ENDBRANCH   1  19
TORSDOF 6
ENDMDL
MODEL 6
REMARK VINA RESULT:      -7.8      5.635      6.965
REMARK  Name = 
REMARK  6 active torsions:
REMARK  status: ('A' for Active; 'I' for Inactive)
REMARK    1  A    between atoms: C_2  and  C_3
REMARK    2  A    between atoms: C_8  and  O_9
REMARK    3  A    between atoms: O_9  and  C_10
REMARK    4  A    between atoms: C_10  and  C_11
REMARK    5  A    between atoms: N_13  and  C_14
REMARK    6  A    between atoms: C_17  and  C_18
REMARK                            x       y       z     vdW  Elec       q    Type
REMARK                         _______ _______ _______ _____ _____    ______ ____
ROOT
ATOM      1  C   UNL     1       7.188   5.793  17.694  0.00  0.00    +0.000 A 
ATOM      2  C   UNL     1       6.881   6.862  16.855  0.00  0.00    +0.000 A 
ATOM      3  C   UNL     1       7.360   8.138  17.157  0.00  0.00    +0.000 A 
ATOM      4  C   UNL     1       8.155   8.359  18.292  0.00  0.00    +0.000 A 
ATOM      5  C   UNL     1       8.425   7.273  19.143  0.00  0.00    +0.000 A 
ATOM      6  C   UNL     1       7.936   5.995  18.852  0.00  0.00    +0.000 A 
ENDROOT
BRANCH   4   7
ATOM      7  C   UNL     1       8.737   9.682  18.511  0.00  0.00    +0.000 A 
ATOM      8  N   UNL     1       8.769  10.714  17.686  0.00  0.00    +0.000 NA
ATOM      9  C   UNL     1       9.599  11.608  18.308  0.00  0.00    +0.000 A 
ATOM     10  C   UNL     1      10.078  12.856  17.893  0.00  0.00    +0.000 A 
ATOM     11  C   UNL     1      10.972  13.522  18.740  0.00  0.00    +0.000 A 
ATOM     12 CL   UNL     1      11.625  15.037  18.242  0.00  0.00    +0.000 Cl
ATOM     13  C   UNL     1      11.362  12.981  19.972  0.00  0.00    +0.000 A 
ATOM     14  C   UNL     1      10.874  11.741  20.406  0.00  0.00    +0.000 A 
ATOM     15  C   UNL     1      10.009  11.097  19.529  0.00  0.00    +0.000 A 
ATOM     16  O   UNL     1       9.442   9.865  19.677  0.00  0.00    +0.000 OA
ENDBRANCH   4   7
BRANCH   1  19
ATOM     17  C   UNL     1       5.417   4.218  17.080  0.00  0.00    +0.000 C 
ATOM     18  O   UNL     1       5.145   3.157  16.514  0.00  0.00    +0.000 OA
ATOM     19  N   UNL     1       6.738   4.516  17.342  0.00  0.00    +0.000 N 
ATOM     20  H   UNL     1       7.350   3.950  16.763  0.00  0.00    +0.000 HD
BRANCH  17  21
ATOM     21  C   UNL     1       4.335   5.220  17.483  0.00  0.00    +0.000 C 
BRANCH  21  22
ATOM     22  O   UNL     1       3.074   4.561  17.426  0.00  0.00    +0.000 OA
BRANCH  22  28
ATOM     23  C   UNL     1       1.982   4.901  19.666  0.00  0.00    +0.000 A 
ATOM     24  C   UNL     1       1.336   4.248  20.734  0.00  0.00    +0.000 A 
ATOM     25  C   UNL     1       1.150   2.867  20.729  0.00  0.00    +0.000 A 
ATOM     26  C   UNL     1       1.610   2.120  19.653  0.00  0.00    +0.000 A 
ATOM     27  C   UNL     1       2.248   2.760  18.587  0.00  0.00    +0.000 A 
ATOM     28  C   UNL     1       2.442   4.152  18.571  0.00  0.00    +0.000 A 
BRANCH  23  30
ATOM     29  N   UNL     1       2.225   7.474  19.892  0.00  0.00    +0.000 NA
ATOM     30  C   UNL     1       2.119   6.319  19.793  0.00  0.00    +0.000 C 
ENDBRANCH  23  30
ENDBRANCH  22  28
ENDBRANCH  21  22
ENDBRANCH  17  21
ENDBRANCH   1  19
TORSDOF 6
ENDMDL
MODEL 7
REMARK VINA RESULT:      -7.7      5.313      6.676
REMARK  Name = 
REMARK  6 active torsions:
REMARK  status: ('A' for Active; 'I' for Inactive)
REMARK    1  A    between atoms: C_2  and  C_3
REMARK    2  A    between atoms: C_8  and  O_9
REMARK    3  A    between atoms: O_9  and  C_10
REMARK    4  A    between atoms: C_10  and  C_11
REMARK    5  A    between atoms: N_13  and  C_14
REMARK    6  A    between atoms: C_17  and  C_18
REMARK                            x       y       z     vdW  Elec       q    Type
REMARK                         _______ _______ _______ _____ _____    ______ ____
ROOT
ATOM      1  C   UNL     1       7.036   5.673  17.640  0.00  0.00    +0.000 A 
ATOM      2  C   UNL     1       6.739   6.772  16.836  0.00  0.00    +0.000 A 
ATOM      3  C   UNL     1       7.268   8.025  17.154  0.00  0.00    +0.000 A 
ATOM      4  C   UNL     1       8.103   8.192  18.269  0.00  0.00    +0.000 A 
ATOM      5  C   UNL     1       8.363   7.078  19.085  0.00  0.00    +0.000 A 
ATOM      6  C   UNL     1       7.824   5.823  18.779  0.00  0.00    +0.000 A 
ENDROOT
BRANCH   4   7
ATOM      7  C   UNL     1       8.734   9.490  18.502  0.00  0.00    +0.000 A 
ATOM      8  N   UNL     1       9.484   9.870  19.521  0.00  0.00    +0.000 NA
ATOM      9  C   UNL     1       9.634  11.218  19.336  0.00  0.00    +0.000 A 
ATOM     10  C   UNL     1      10.264  12.187  20.125  0.00  0.00    +0.000 A 
ATOM     11  C   UNL     1      10.202  13.517  19.693  0.00  0.00    +0.000 A 
ATOM     12 CL   UNL     1      10.921  14.748  20.662  0.00  0.00    +0.000 Cl
ATOM     13  C   UNL     1       9.555  13.875  18.502  0.00  0.00    +0.000 A 
ATOM     14  C   UNL     1       8.937  12.911  17.694  0.00  0.00    +0.000 A 
ATOM     15  C   UNL     1       8.997  11.606  18.167  0.00  0.00    +0.000 A 
ATOM     16  O   UNL     1       8.432  10.495  17.613  0.00  0.00    +0.000 OA
ENDBRANCH   4   7
BRANCH   1  19
ATOM     17  C   UNL     1       5.207   4.185  16.982  0.00  0.00    +0.000 C 
ATOM     18  O   UNL     1       4.898   3.140  16.405  0.00  0.00    +0.000 OA
ATOM     19  N   UNL     1       6.535   4.420  17.271  0.00  0.00    +0.000 N 
ATOM     20  H   UNL     1       7.131   3.831  16.700  0.00  0.00    +0.000 HD
BRANCH  17  21
ATOM     21  C   UNL     1       4.164   5.233  17.372  0.00  0.00    +0.000 C 
BRANCH  21  22
ATOM     22  O   UNL     1       2.890   4.600  17.413  0.00  0.00    +0.000 OA
BRANCH  22  28
ATOM     23  C   UNL     1       1.972   4.899  19.735  0.00  0.00    +0.000 A 
ATOM     24  C   UNL     1       1.424   4.224  20.844  0.00  0.00    +0.000 A 
ATOM     25  C   UNL     1       1.263   2.840  20.840  0.00  0.00    +0.000 A 
ATOM     26  C   UNL     1       1.651   2.112  19.724  0.00  0.00    +0.000 A 
ATOM     27  C   UNL     1       2.191   2.773  18.617  0.00  0.00    +0.000 A 
ATOM     28  C   UNL     1       2.358   4.169  18.600  0.00  0.00    +0.000 A 
BRANCH  23  30
ATOM     29  N   UNL     1       2.182   7.474  19.973  0.00  0.00    +0.000 NA
ATOM     30  C   UNL     1       2.092   6.318  19.867  0.00  0.00    +0.000 C 
ENDBRANCH  23  30
ENDBRANCH  22  28
ENDBRANCH  21  22
ENDBRANCH  17  21
ENDBRANCH   1  19
TORSDOF 6
ENDMDL
MODEL 8
REMARK VINA RESULT:      -7.7      5.557      6.681
REMARK  Name = 
REMARK  6 active torsions:
REMARK  status: ('A' for Active; 'I' for Inactive)
REMARK    1  A    between atoms: C_2  and  C_3
REMARK    2  A    between atoms: C_8  and  O_9
REMARK    3  A    between atoms: O_9  and  C_10
REMARK    4  A    between atoms: C_10  and  C_11
REMARK    5  A    between atoms: N_13  and  C_14
REMARK    6  A    between atoms: C_17  and  C_18
REMARK                            x       y       z     vdW  Elec       q    Type
REMARK                         _______ _______ _______ _____ _____    ______ ____
ROOT
ATOM      1  C   UNL     1       7.318   6.040  17.626  0.00  0.00    +0.000 A 
ATOM      2  C   UNL     1       7.151   7.174  16.834  0.00  0.00    +0.000 A 
ATOM      3  C   UNL     1       7.679   8.396  17.257  0.00  0.00    +0.000 A 
ATOM      4  C   UNL     1       8.384   8.496  18.466  0.00  0.00    +0.000 A 
ATOM      5  C   UNL     1       8.511   7.348  19.265  0.00  0.00    +0.000 A 
ATOM      6  C   UNL     1       7.973   6.123  18.853  0.00  0.00    +0.000 A 
ENDROOT
BRANCH   4   7
ATOM      7  C   UNL     1       9.024   9.763  18.817  0.00  0.00    +0.000 A 
ATOM      8  N   UNL     1       9.272  10.254  20.019  0.00  0.00    +0.000 NA
ATOM      9  C   UNL     1       9.689  11.535  19.772  0.00  0.00    +0.000 A 
ATOM     10  C   UNL     1      10.025  12.575  20.647  0.00  0.00    +0.000 A 
ATOM     11  C   UNL     1      10.367  13.811  20.085  0.00  0.00    +0.000 A 
ATOM     12 CL   UNL     1      10.738  15.131  21.129  0.00  0.00    +0.000 Cl
ATOM     13  C   UNL     1      10.399  14.006  18.698  0.00  0.00    +0.000 A 
ATOM     14  C   UNL     1      10.083  12.967  17.812  0.00  0.00    +0.000 A 
ATOM     15  C   UNL     1       9.724  11.763  18.405  0.00  0.00    +0.000 A 
ATOM     16  O   UNL     1       9.317  10.619  17.782  0.00  0.00    +0.000 OA
ENDBRANCH   4   7
BRANCH   1  19
ATOM     17  C   UNL     1       5.482   4.562  16.964  0.00  0.00    +0.000 C 
ATOM     18  O   UNL     1       5.152   3.580  16.295  0.00  0.00    +0.000 OA
ATOM     19  N   UNL     1       6.824   4.818  17.156  0.00  0.00    +0.000 N 
ATOM     20  H   UNL     1       7.381   4.326  16.466  0.00  0.00    +0.000 HD
BRANCH  17  21
ATOM     21  C   UNL     1       4.449   5.512  17.570  0.00  0.00    +0.000 C 
BRANCH  21  22
ATOM     22  O   UNL     1       4.054   4.993  18.835  0.00  0.00    +0.000 OA
BRANCH  22  28
ATOM     23  C   UNL     1       3.118   2.776  19.564  0.00  0.00    +0.000 A 
ATOM     24  C   UNL     1       1.975   1.953  19.538  0.00  0.00    +0.000 A 
ATOM     25  C   UNL     1       0.811   2.355  18.886  0.00  0.00    +0.000 A 
ATOM     26  C   UNL     1       0.777   3.587  18.248  0.00  0.00    +0.000 A 
ATOM     27  C   UNL     1       1.905   4.412  18.273  0.00  0.00    +0.000 A 
ATOM     28  C   UNL     1       3.087   4.027  18.929  0.00  0.00    +0.000 A 
BRANCH  23  30
ATOM     29  N   UNL     1       5.169   1.813  20.828  0.00  0.00    +0.000 NA
ATOM     30  C   UNL     1       4.251   2.247  20.259  0.00  0.00    +0.000 C 
ENDBRANCH  23  30
ENDBRANCH  22  28
ENDBRANCH  21  22
ENDBRANCH  17  21
ENDBRANCH   1  19
TORSDOF 6
ENDMDL
MODEL 9
REMARK VINA RESULT:      -7.6      2.012      3.768
REMARK  Name = 
REMARK  6 active torsions:
REMARK  status: ('A' for Active; 'I' for Inactive)
REMARK    1  A    between atoms: C_2  and  C_3
REMARK    2  A    between atoms: C_8  and  O_9
REMARK    3  A    between atoms: O_9  and  C_10
REMARK    4  A    between atoms: C_10  and  C_11
REMARK    5  A    between atoms: N_13  and  C_14
REMARK    6  A    between atoms: C_17  and  C_18
REMARK                            x       y       z     vdW  Elec       q    Type
REMARK                         _______ _______ _______ _____ _____    ______ ____
ROOT
ATOM      1  C   UNL     1       2.144   4.621  19.046  0.00  0.00    +0.000 A 
ATOM      2  C   UNL     1       1.626   4.725  20.336  0.00  0.00    +0.000 A 
ATOM      3  C   UNL     1       1.365   5.986  20.876  0.00  0.00    +0.000 A 
ATOM      4  C   UNL     1       1.609   7.152  20.135  0.00  0.00    +0.000 A 
ATOM      5  C   UNL     1       2.163   7.025  18.849  0.00  0.00    +0.000 A 
ATOM      6  C   UNL     1       2.438   5.764  18.308  0.00  0.00    +0.000 A 
ENDROOT
BRANCH   4   7
ATOM      7  C   UNL     1       1.213   8.446  20.686  0.00  0.00    +0.000 A 
ATOM      8  N   UNL     1       0.619   8.703  21.839  0.00  0.00    +0.000 NA
ATOM      9  C   UNL     1       0.302  10.033  21.758  0.00  0.00    +0.000 A 
ATOM     10  C   UNL     1      -0.401  10.862  22.639  0.00  0.00    +0.000 A 
ATOM     11  C   UNL     1      -0.617  12.189  22.247  0.00  0.00    +0.000 A 
ATOM     12 CL   UNL     1      -1.523  13.230  23.280  0.00  0.00    +0.000 Cl
ATOM     13  C   UNL     1      -0.131  12.687  21.031  0.00  0.00    +0.000 A 
ATOM     14  C   UNL     1       0.591  11.870  20.150  0.00  0.00    +0.000 A 
ATOM     15  C   UNL     1       0.764  10.554  20.560  0.00  0.00    +0.000 A 
ATOM     16  O   UNL     1       1.370   9.543  19.872  0.00  0.00    +0.000 OA
ENDBRANCH   4   7
BRANCH   1  19
ATOM     17  C   UNL     1       3.460   2.574  18.779  0.00  0.00    +0.000 C 
ATOM     18  O   UNL     1       3.436   1.374  18.499  0.00  0.00    +0.000 OA
ATOM     19  N   UNL     1       2.348   3.345  18.510  0.00  0.00    +0.000 N 
ATOM     20  H   UNL     1       1.532   2.757  18.384  0.00  0.00    +0.000 HD
BRANCH  17  21
ATOM     21  C   UNL     1       4.679   3.228  19.431  0.00  0.00    +0.000 C 
BRANCH  21  22
ATOM     22  O   UNL     1       5.685   3.387  18.437  0.00  0.00    +0.000 OA
BRANCH  22  28
ATOM     23  C   UNL     1       6.840   5.621  18.412  0.00  0.00    +0.000 A 
ATOM     24  C   UNL     1       6.993   6.821  17.690  0.00  0.00    +0.000 A 
ATOM     25  C   UNL     1       6.299   7.043  16.502  0.00  0.00    +0.000 A 
ATOM     26  C   UNL     1       5.439   6.065  16.021  0.00  0.00    +0.000 A 
ATOM     27  C   UNL     1       5.285   4.869  16.728  0.00  0.00    +0.000 A 
ATOM     28  C   UNL     1       5.979   4.624  17.926  0.00  0.00    +0.000 A 
BRANCH  23  30
ATOM     29  N   UNL     1       8.213   5.431  20.605  0.00  0.00    +0.000 NA
ATOM     30  C   UNL     1       7.600   5.518  19.619  0.00  0.00    +0.000 C 
ENDBRANCH  23  30
ENDBRANCH  22  28
ENDBRANCH  21  22
ENDBRANCH  17  21
ENDBRANCH   1  19
TORSDOF 6
ENDMDL
