MODEL 1
REMARK VINA RESULT:      -7.2      0.000      0.000
REMARK  Name = 
REMARK  10 active torsions:
REMARK  status: ('A' for Active; 'I' for Inactive)
REMARK    1  A    between atoms: N_1  and  CA_2
REMARK    2  A    between atoms: CA_2  and  C_3
REMARK    3  A    between atoms: CA_2  and  C_20
REMARK    4  A    between atoms: C_3  and  C_4
REMARK    5  A    between atoms: C_13  and  C_14
REMARK    6  A    between atoms: C_14  and  C_15
REMARK    7  A    between atoms: C_15  and  P_16
REMARK    8  A    between atoms: P_16  and  O_18
REMARK    9  A    between atoms: P_16  and  O_19
REMARK   10  A    between atoms: C_20  and  OXT_22
REMARK                            x       y       z     vdW  Elec       q    Type
REMARK                         _______ _______ _______ _____ _____    ______ ____
ROOT
ATOM      1  C   UNL     1       4.896   5.192  16.426  0.00  0.00    +0.000 A 
ATOM      2  N   UNL     1       4.750   4.302  15.388  0.00  0.00    +0.000 NA
ATOM      3  C   UNL     1       5.657   4.287  14.376  0.00  0.00    +0.000 A 
ATOM      4  C   UNL     1       5.513   3.460  13.261  0.00  0.00    +0.000 A 
ATOM      5  C   UNL     1       6.433   3.479  12.205  0.00  0.00    +0.000 A 
ATOM      6  C   UNL     1       7.526   4.334  12.257  0.00  0.00    +0.000 A 
ATOM      7  C   UNL     1       7.688   5.150  13.375  0.00  0.00    +0.000 A 
ATOM      8  C   UNL     1       6.769   5.130  14.418  0.00  0.00    +0.000 A 
ATOM      9  N   UNL     1       6.956   5.954  15.448  0.00  0.00    +0.000 NA
ATOM     10  C   UNL     1       6.008   6.033  16.424  0.00  0.00    +0.000 A 
ENDROOT
BRANCH   1  11
ATOM     11  C   UNL     1       3.735   5.109  17.399  0.00  0.00    +0.000 C 
BRANCH  11  12
ATOM     12  CA  UNL     1       3.457   3.942  18.371  0.00  0.00    +0.000 C 
BRANCH  12  13
ATOM     13  N   UNL     1       4.479   2.844  18.327  0.00  0.00    +0.000 NA
ATOM     14  H1  UNL     1       4.473   2.438  17.385  0.00  0.00    +0.000 HD
ATOM     15  H2  UNL     1       4.197   2.084  18.953  0.00  0.00    +0.000 HD
ENDBRANCH  12  13
BRANCH  12  16
ATOM     16  C   UNL     1       2.087   3.301  18.031  0.00  0.00    +0.000 C 
ATOM     17  O   UNL     1       1.727   2.184  18.364  0.00  0.00    +0.000 OA
BRANCH  16  18
ATOM     18  OXT UNL     1       1.314   4.132  17.279  0.00  0.00    +0.000 OA
ATOM     19  HXT UNL     1       0.844   3.548  16.632  0.00  0.00    +0.000 HD
ENDBRANCH  16  18
ENDBRANCH  12  16
ENDBRANCH  11  12
ENDBRANCH   1  11
BRANCH  10  20
ATOM     20  C   UNL     1       6.372   7.112  17.390  0.00  0.00    +0.000 C 
BRANCH  20  21
ATOM     21  C   UNL     1       7.662   6.769  18.130  0.00  0.00    +0.000 C 
BRANCH  21  22
ATOM     22  P   UNL     1       7.563   5.312  19.134  0.00  0.00    +0.000 P 
ATOM     23  O   UNL     1       6.254   5.040  19.771  0.00  0.00    +0.000 OA
BRANCH  22  24
ATOM     24  O   UNL     1       7.979   4.135  18.121  0.00  0.00    +0.000 OA
ATOM     25  H   UNL     1       8.809   3.699  18.385  0.00  0.00    +0.000 HD
ENDBRANCH  22  24
BRANCH  22  26
ATOM     26  O   UNL     1       8.771   5.296  20.194  0.00  0.00    +0.000 OA
ATOM     27  H   UNL     1       8.498   5.478  21.105  0.00  0.00    +0.000 HD
ENDBRANCH  22  26
ENDBRANCH  21  22
ENDBRANCH  20  21
ENDBRANCH  10  20
TORSDOF 10
ENDMDL
MODEL 2
REMARK VINA RESULT:      -7.0      0.301      1.191
REMARK  Name = 
REMARK  10 active torsions:
REMARK  status: ('A' for Active; 'I' for Inactive)
REMARK    1  A    between atoms: N_1  and  CA_2
REMARK    2  A    between atoms: CA_2  and  C_3
REMARK    3  A    between atoms: CA_2  and  C_20
REMARK    4  A    between atoms: C_3  and  C_4
REMARK    5  A    between atoms: C_13  and  C_14
REMARK    6  A    between atoms: C_14  and  C_15
REMARK    7  A    between atoms: C_15  and  P_16
REMARK    8  A    between atoms: P_16  and  O_18
REMARK    9  A    between atoms: P_16  and  O_19
REMARK   10  A    between atoms: C_20  and  OXT_22
REMARK                            x       y       z     vdW  Elec       q    Type
REMARK                         _______ _______ _______ _____ _____    ______ ____
ROOT
ATOM      1  C   UNL     1       4.938   5.190  16.447  0.00  0.00    +0.000 A 
ATOM      2  N   UNL     1       4.787   4.308  15.404  0.00  0.00    +0.000 NA
ATOM      3  C   UNL     1       5.688   4.301  14.386  0.00  0.00    +0.000 A 
ATOM      4  C   UNL     1       5.538   3.483  13.266  0.00  0.00    +0.000 A 
ATOM      5  C   UNL     1       6.452   3.510  12.204  0.00  0.00    +0.000 A 
ATOM      6  C   UNL     1       7.545   4.367  12.257  0.00  0.00    +0.000 A 
ATOM      7  C   UNL     1       7.712   5.174  13.379  0.00  0.00    +0.000 A 
ATOM      8  C   UNL     1       6.799   5.145  14.427  0.00  0.00    +0.000 A 
ATOM      9  N   UNL     1       6.991   5.963  15.462  0.00  0.00    +0.000 NA
ATOM     10  C   UNL     1       6.048   6.033  16.445  0.00  0.00    +0.000 A 
ENDROOT
BRANCH   1  11
ATOM     11  C   UNL     1       3.783   5.099  17.426  0.00  0.00    +0.000 C 
BRANCH  11  12
ATOM     12  CA  UNL     1       3.479   3.900  18.350  0.00  0.00    +0.000 C 
BRANCH  12  13
ATOM     13  N   UNL     1       4.602   2.912  18.471  0.00  0.00    +0.000 NA
ATOM     14  H1  UNL     1       4.723   2.684  19.464  0.00  0.00    +0.000 HD
ATOM     15  H2  UNL     1       5.481   3.350  18.181  0.00  0.00    +0.000 HD
ENDBRANCH  12  13
BRANCH  12  16
ATOM     16  C   UNL     1       2.250   3.126  17.806  0.00  0.00    +0.000 C 
ATOM     17  O   UNL     1       1.173   3.623  17.519  0.00  0.00    +0.000 OA
BRANCH  16  18
ATOM     18  OXT UNL     1       2.501   1.793  17.700  0.00  0.00    +0.000 OA
ATOM     19  HXT UNL     1       1.739   1.417  17.190  0.00  0.00    +0.000 HD
ENDBRANCH  16  18
ENDBRANCH  12  16
ENDBRANCH  11  12
ENDBRANCH   1  11
BRANCH  10  20
ATOM     20  C   UNL     1       6.417   7.105  17.416  0.00  0.00    +0.000 C 
BRANCH  20  21
ATOM     21  C   UNL     1       7.733   6.777  18.116  0.00  0.00    +0.000 C 
BRANCH  21  22
ATOM     22  P   UNL     1       7.698   5.291  19.080  0.00  0.00    +0.000 P 
ATOM     23  O   UNL     1       8.761   5.144  20.102  0.00  0.00    +0.000 OA
BRANCH  22  24
ATOM     24  O   UNL     1       6.239   5.321  19.753  0.00  0.00    +0.000 OA
ATOM     25  H   UNL     1       6.143   4.650  20.454  0.00  0.00    +0.000 HD
ENDBRANCH  22  24
BRANCH  22  26
ATOM     26  O   UNL     1       7.604   4.013  18.111  0.00  0.00    +0.000 OA
ATOM     27  H   UNL     1       6.992   4.126  17.369  0.00  0.00    +0.000 HD
ENDBRANCH  22  26
ENDBRANCH  21  22
ENDBRANCH  20  21
ENDBRANCH  10  20
TORSDOF 10
ENDMDL
MODEL 3
REMARK VINA RESULT:      -7.0      3.201      5.546
REMARK  Name = 
REMARK  10 active torsions:
REMARK  status: ('A' for Active; 'I' for Inactive)
REMARK    1  A    between atoms: N_1  and  CA_2
REMARK    2  A    between atoms: CA_2  and  C_3
REMARK    3  A    between atoms: CA_2  and  C_20
REMARK    4  A    between atoms: C_3  and  C_4
REMARK    5  A    between atoms: C_13  and  C_14
REMARK    6  A    between atoms: C_14  and  C_15
REMARK    7  A    between atoms: C_15  and  P_16
REMARK    8  A    between atoms: P_16  and  O_18
REMARK    9  A    between atoms: P_16  and  O_19
REMARK   10  A    between atoms: C_20  and  OXT_22
REMARK                            x       y       z     vdW  Elec       q    Type
REMARK                         _______ _______ _______ _____ _____    ______ ____
ROOT
ATOM      1  C   UNL     1       3.282   4.735  19.187  0.00  0.00    +0.000 A 
ATOM      2  N   UNL     1       2.585   5.598  20.000  0.00  0.00    +0.000 NA
ATOM      3  C   UNL     1       2.270   6.843  19.555  0.00  0.00    +0.000 A 
ATOM      4  C   UNL     1       1.635   7.784  20.365  0.00  0.00    +0.000 A 
ATOM      5  C   UNL     1       1.348   9.077  19.910  0.00  0.00    +0.000 A 
ATOM      6  C   UNL     1       1.695   9.446  18.616  0.00  0.00    +0.000 A 
ATOM      7  C   UNL     1       2.313   8.507  17.793  0.00  0.00    +0.000 A 
ATOM      8  C   UNL     1       2.598   7.226  18.253  0.00  0.00    +0.000 A 
ATOM      9  N   UNL     1       3.220   6.379  17.433  0.00  0.00    +0.000 NA
ATOM     10  C   UNL     1       3.612   5.159  17.901  0.00  0.00    +0.000 A 
ENDROOT
BRANCH   1  11
ATOM     11  C   UNL     1       3.611   3.438  19.902  0.00  0.00    +0.000 C 
BRANCH  11  12
ATOM     12  CA  UNL     1       2.650   2.244  20.086  0.00  0.00    +0.000 C 
BRANCH  12  13
ATOM     13  N   UNL     1       2.004   1.769  18.818  0.00  0.00    +0.000 NA
ATOM     14  H1  UNL     1       1.115   2.269  18.704  0.00  0.00    +0.000 HD
ATOM     15  H2  UNL     1       1.752   0.780  18.907  0.00  0.00    +0.000 HD
ENDBRANCH  12  13
BRANCH  12  16
ATOM     16  C   UNL     1       1.508   2.642  21.056  0.00  0.00    +0.000 C 
ATOM     17  O   UNL     1       1.526   2.493  22.266  0.00  0.00    +0.000 OA
BRANCH  16  18
ATOM     18  OXT UNL     1       0.445   3.171  20.392  0.00  0.00    +0.000 OA
ATOM     19  HXT UNL     1      -0.063   3.687  21.068  0.00  0.00    +0.000 HD
ENDBRANCH  16  18
ENDBRANCH  12  16
ENDBRANCH  11  12
ENDBRANCH   1  11
BRANCH  10  20
ATOM     20  C   UNL     1       4.399   4.450  16.849  0.00  0.00    +0.000 C 
BRANCH  20  21
ATOM     21  C   UNL     1       5.284   5.425  16.079  0.00  0.00    +0.000 C 
BRANCH  21  22
ATOM     22  P   UNL     1       6.756   4.702  15.407  0.00  0.00    +0.000 P 
ATOM     23  O   UNL     1       7.693   5.628  14.728  0.00  0.00    +0.000 OA
BRANCH  22  24
ATOM     24  O   UNL     1       7.442   4.006  16.683  0.00  0.00    +0.000 OA
ATOM     25  H   UNL     1       7.309   4.523  17.500  0.00  0.00    +0.000 HD
ENDBRANCH  22  24
BRANCH  22  26
ATOM     26  O   UNL     1       6.376   3.439  14.489  0.00  0.00    +0.000 OA
ATOM     27  H   UNL     1       7.126   2.863  14.283  0.00  0.00    +0.000 HD
ENDBRANCH  22  26
ENDBRANCH  21  22
ENDBRANCH  20  21
ENDBRANCH  10  20
TORSDOF 10
ENDMDL
MODEL 4
REMARK VINA RESULT:      -7.0      3.695      6.705
REMARK  Name = 
REMARK  10 active torsions:
REMARK  status: ('A' for Active; 'I' for Inactive)
REMARK    1  A    between atoms: N_1  and  CA_2
REMARK    2  A    between atoms: CA_2  and  C_3
REMARK    3  A    between atoms: CA_2  and  C_20
REMARK    4  A    between atoms: C_3  and  C_4
REMARK    5  A    between atoms: C_13  and  C_14
REMARK    6  A    between atoms: C_14  and  C_15
REMARK    7  A    between atoms: C_15  and  P_16
REMARK    8  A    between atoms: P_16  and  O_18
REMARK    9  A    between atoms: P_16  and  O_19
REMARK   10  A    between atoms: C_20  and  OXT_22
REMARK                            x       y       z     vdW  Elec       q    Type
REMARK                         _______ _______ _______ _____ _____    ______ ____
ROOT
ATOM      1  C   UNL     1       4.531   5.383  17.894  0.00  0.00    +0.000 A 
ATOM      2  N   UNL     1       4.568   4.167  18.536  0.00  0.00    +0.000 NA
ATOM      3  C   UNL     1       3.679   3.898  19.528  0.00  0.00    +0.000 A 
ATOM      4  C   UNL     1       3.724   2.713  20.264  0.00  0.00    +0.000 A 
ATOM      5  C   UNL     1       2.826   2.460  21.310  0.00  0.00    +0.000 A 
ATOM      6  C   UNL     1       1.857   3.402  21.631  0.00  0.00    +0.000 A 
ATOM      7  C   UNL     1       1.794   4.580  20.889  0.00  0.00    +0.000 A 
ATOM      8  C   UNL     1       2.690   4.826  19.856  0.00  0.00    +0.000 A 
ATOM      9  N   UNL     1       2.604   5.984  19.200  0.00  0.00    +0.000 NA
ATOM     10  C   UNL     1       3.543   6.295  18.262  0.00  0.00    +0.000 A 
ENDROOT
BRANCH   1  11
ATOM     11  C   UNL     1       5.659   5.517  16.889  0.00  0.00    +0.000 C 
BRANCH  11  12
ATOM     12  CA  UNL     1       6.584   4.375  16.415  0.00  0.00    +0.000 C 
BRANCH  12  13
ATOM     13  N   UNL     1       7.868   4.261  17.183  0.00  0.00    +0.000 NA
ATOM     14  H1  UNL     1       8.602   4.742  16.653  0.00  0.00    +0.000 HD
ATOM     15  H2  UNL     1       8.160   3.280  17.225  0.00  0.00    +0.000 HD
ENDBRANCH  12  13
BRANCH  12  16
ATOM     16  C   UNL     1       6.962   4.600  14.928  0.00  0.00    +0.000 C 
ATOM     17  O   UNL     1       7.648   5.515  14.505  0.00  0.00    +0.000 OA
BRANCH  16  18
ATOM     18  OXT UNL     1       6.415   3.651  14.120  0.00  0.00    +0.000 OA
ATOM     19  HXT UNL     1       6.063   2.953  14.729  0.00  0.00    +0.000 HD
ENDBRANCH  16  18
ENDBRANCH  12  16
ENDBRANCH  11  12
ENDBRANCH   1  11
BRANCH  10  20
ATOM     20  C   UNL     1       3.315   7.685  17.768  0.00  0.00    +0.000 C 
BRANCH  20  21
ATOM     21  C   UNL     1       1.824   7.977  17.627  0.00  0.00    +0.000 C 
BRANCH  21  22
ATOM     22  P   UNL     1       1.326   9.556  18.257  0.00  0.00    +0.000 P 
ATOM     23  O   UNL     1       1.382   9.726  19.728  0.00  0.00    +0.000 OA
BRANCH  22  24
ATOM     24  O   UNL     1       2.314  10.581  17.510  0.00  0.00    +0.000 OA
ATOM     25  H   UNL     1       1.957  10.879  16.654  0.00  0.00    +0.000 HD
ENDBRANCH  22  24
BRANCH  22  26
ATOM     26  O   UNL     1      -0.108   9.959  17.652  0.00  0.00    +0.000 OA
ATOM     27  H   UNL     1      -0.276   9.601  16.768  0.00  0.00    +0.000 HD
ENDBRANCH  22  26
ENDBRANCH  21  22
ENDBRANCH  20  21
ENDBRANCH  10  20
TORSDOF 10
ENDMDL
MODEL 5
REMARK VINA RESULT:      -6.9      3.154      6.494
REMARK  Name = 
REMARK  10 active torsions:
REMARK  status: ('A' for Active; 'I' for Inactive)
REMARK    1  A    between atoms: N_1  and  CA_2
REMARK    2  A    between atoms: CA_2  and  C_3
REMARK    3  A    between atoms: CA_2  and  C_20
REMARK    4  A    between atoms: C_3  and  C_4
REMARK    5  A    between atoms: C_13  and  C_14
REMARK    6  A    between atoms: C_14  and  C_15
REMARK    7  A    between atoms: C_15  and  P_16
REMARK    8  A    between atoms: P_16  and  O_18
REMARK    9  A    between atoms: P_16  and  O_19
REMARK   10  A    between atoms: C_20  and  OXT_22
REMARK                            x       y       z     vdW  Elec       q    Type
REMARK                         _______ _______ _______ _____ _____    ______ ____
ROOT
ATOM      1  C   UNL     1       4.160   6.227  17.820  0.00  0.00    +0.000 A 
ATOM      2  N   UNL     1       3.664   7.451  17.434  0.00  0.00    +0.000 NA
ATOM      3  C   UNL     1       2.736   8.078  18.203  0.00  0.00    +0.000 A 
ATOM      4  C   UNL     1       2.143   9.281  17.819  0.00  0.00    +0.000 A 
ATOM      5  C   UNL     1       1.159   9.902  18.601  0.00  0.00    +0.000 A 
ATOM      6  C   UNL     1       0.757   9.318  19.795  0.00  0.00    +0.000 A 
ATOM      7  C   UNL     1       1.357   8.126  20.196  0.00  0.00    +0.000 A 
ATOM      8  C   UNL     1       2.329   7.514  19.414  0.00  0.00    +0.000 A 
ATOM      9  N   UNL     1       2.846   6.358  19.830  0.00  0.00    +0.000 NA
ATOM     10  C   UNL     1       3.715   5.684  19.024  0.00  0.00    +0.000 A 
ENDROOT
BRANCH   1  11
ATOM     11  C   UNL     1       5.110   5.659  16.784  0.00  0.00    +0.000 C 
BRANCH  11  12
ATOM     12  CA  UNL     1       6.629   5.927  16.713  0.00  0.00    +0.000 C 
BRANCH  12  13
ATOM     13  N   UNL     1       7.244   5.650  15.372  0.00  0.00    +0.000 NA
ATOM     14  H1  UNL     1       7.524   6.544  14.956  0.00  0.00    +0.000 HD
ATOM     15  H2  UNL     1       6.537   5.264  14.740  0.00  0.00    +0.000 HD
ENDBRANCH  12  13
BRANCH  12  16
ATOM     16  C   UNL     1       7.362   5.029  17.743  0.00  0.00    +0.000 C 
ATOM     17  O   UNL     1       7.319   5.165  18.954  0.00  0.00    +0.000 OA
BRANCH  16  18
ATOM     18  OXT UNL     1       8.096   4.058  17.133  0.00  0.00    +0.000 OA
ATOM     19  HXT UNL     1       7.457   3.329  16.929  0.00  0.00    +0.000 HD
ENDBRANCH  16  18
ENDBRANCH  12  16
ENDBRANCH  11  12
ENDBRANCH   1  11
BRANCH  10  20
ATOM     20  C   UNL     1       4.049   4.366  19.641  0.00  0.00    +0.000 C 
BRANCH  20  21
ATOM     21  C   UNL     1       2.811   3.480  19.740  0.00  0.00    +0.000 C 
BRANCH  21  22
ATOM     22  P   UNL     1       2.496   2.500  18.299  0.00  0.00    +0.000 P 
ATOM     23  O   UNL     1       2.242   3.241  17.041  0.00  0.00    +0.000 OA
BRANCH  22  24
ATOM     24  O   UNL     1       3.809   1.580  18.182  0.00  0.00    +0.000 OA
ATOM     25  H   UNL     1       3.598   0.671  17.899  0.00  0.00    +0.000 HD
ENDBRANCH  22  24
BRANCH  22  26
ATOM     26  O   UNL     1       1.346   1.421  18.611  0.00  0.00    +0.000 OA
ATOM     27  H   UNL     1       1.174   1.292  19.555  0.00  0.00    +0.000 HD
ENDBRANCH  22  26
ENDBRANCH  21  22
ENDBRANCH  20  21
ENDBRANCH  10  20
TORSDOF 10
ENDMDL
MODEL 6
REMARK VINA RESULT:      -6.9      3.885      6.866
REMARK  Name = 
REMARK  10 active torsions:
REMARK  status: ('A' for Active; 'I' for Inactive)
REMARK    1  A    between atoms: N_1  and  CA_2
REMARK    2  A    between atoms: CA_2  and  C_3
REMARK    3  A    between atoms: CA_2  and  C_20
REMARK    4  A    between atoms: C_3  and  C_4
REMARK    5  A    between atoms: C_13  and  C_14
REMARK    6  A    between atoms: C_14  and  C_15
REMARK    7  A    between atoms: C_15  and  P_16
REMARK    8  A    between atoms: P_16  and  O_18
REMARK    9  A    between atoms: P_16  and  O_19
REMARK   10  A    between atoms: C_20  and  OXT_22
REMARK                            x       y       z     vdW  Elec       q    Type
REMARK                         _______ _______ _______ _____ _____    ______ ____
ROOT
ATOM      1  C   UNL     1       4.096   6.059  17.832  0.00  0.00    +0.000 A 
ATOM      2  N   UNL     1       4.348   4.824  18.382  0.00  0.00    +0.000 NA
ATOM      3  C   UNL     1       3.500   4.310  19.311  0.00  0.00    +0.000 A 
ATOM      4  C   UNL     1       3.751   3.100  19.957  0.00  0.00    +0.000 A 
ATOM      5  C   UNL     1       2.889   2.596  20.942  0.00  0.00    +0.000 A 
ATOM      6  C   UNL     1       1.748   3.307  21.289  0.00  0.00    +0.000 A 
ATOM      7  C   UNL     1       1.480   4.508  20.636  0.00  0.00    +0.000 A 
ATOM      8  C   UNL     1       2.340   5.004  19.663  0.00  0.00    +0.000 A 
ATOM      9  N   UNL     1       2.052   6.174  19.094  0.00  0.00    +0.000 NA
ATOM     10  C   UNL     1       2.940   6.733  18.223  0.00  0.00    +0.000 A 
ENDROOT
BRANCH   1  11
ATOM     11  C   UNL     1       5.204   6.487  16.890  0.00  0.00    +0.000 C 
BRANCH  11  12
ATOM     12  CA  UNL     1       6.677   6.029  16.965  0.00  0.00    +0.000 C 
BRANCH  12  13
ATOM     13  N   UNL     1       7.678   7.131  16.776  0.00  0.00    +0.000 NA
ATOM     14  H1  UNL     1       7.386   7.694  15.969  0.00  0.00    +0.000 HD
ATOM     15  H2  UNL     1       8.586   6.734  16.519  0.00  0.00    +0.000 HD
ENDBRANCH  12  13
BRANCH  12  16
ATOM     16  C   UNL     1       6.949   4.975  15.861  0.00  0.00    +0.000 C 
ATOM     17  O   UNL     1       7.581   5.172  14.837  0.00  0.00    +0.000 OA
BRANCH  16  18
ATOM     18  OXT UNL     1       6.371   3.778  16.154  0.00  0.00    +0.000 OA
ATOM     19  HXT UNL     1       7.022   3.300  16.729  0.00  0.00    +0.000 HD
ENDBRANCH  16  18
ENDBRANCH  12  16
ENDBRANCH  11  12
ENDBRANCH   1  11
BRANCH  10  20
ATOM     20  C   UNL     1       2.463   8.090  17.825  0.00  0.00    +0.000 C 
BRANCH  20  21
ATOM     21  C   UNL     1       1.690   8.753  18.962  0.00  0.00    +0.000 C 
BRANCH  21  22
ATOM     22  P   UNL     1       1.049  10.358  18.572  0.00  0.00    +0.000 P 
ATOM     23  O   UNL     1       0.886  11.295  19.708  0.00  0.00    +0.000 OA
BRANCH  22  24
ATOM     24  O   UNL     1       2.096  10.923  17.492  0.00  0.00    +0.000 OA
ATOM     25  H   UNL     1       2.200  11.890  17.551  0.00  0.00    +0.000 HD
ENDBRANCH  22  24
BRANCH  22  26
ATOM     26  O   UNL     1      -0.296  10.214  17.704  0.00  0.00    +0.000 OA
ATOM     27  H   UNL     1      -0.594  11.041  17.299  0.00  0.00    +0.000 HD
ENDBRANCH  22  26
ENDBRANCH  21  22
ENDBRANCH  20  21
ENDBRANCH  10  20
TORSDOF 10
ENDMDL
MODEL 7
REMARK VINA RESULT:      -6.9      3.458      5.670
REMARK  Name = 
REMARK  10 active torsions:
REMARK  status: ('A' for Active; 'I' for Inactive)
REMARK    1  A    between atoms: N_1  and  CA_2
REMARK    2  A    between atoms: CA_2  and  C_3
REMARK    3  A    between atoms: CA_2  and  C_20
REMARK    4  A    between atoms: C_3  and  C_4
REMARK    5  A    between atoms: C_13  and  C_14
REMARK    6  A    between atoms: C_14  and  C_15
REMARK    7  A    between atoms: C_15  and  P_16
REMARK    8  A    between atoms: P_16  and  O_18
REMARK    9  A    between atoms: P_16  and  O_19
REMARK   10  A    between atoms: C_20  and  OXT_22
REMARK                            x       y       z     vdW  Elec       q    Type
REMARK                         _______ _______ _______ _____ _____    ______ ____
ROOT
ATOM      1  C   UNL     1       3.123   5.642  19.293  0.00  0.00    +0.000 A 
ATOM      2  N   UNL     1       2.335   6.436  20.093  0.00  0.00    +0.000 NA
ATOM      3  C   UNL     1       1.956   7.667  19.661  0.00  0.00    +0.000 A 
ATOM      4  C   UNL     1       1.224   8.544  20.463  0.00  0.00    +0.000 A 
ATOM      5  C   UNL     1       0.870   9.826  20.023  0.00  0.00    +0.000 A 
ATOM      6  C   UNL     1       1.245  10.248  18.754  0.00  0.00    +0.000 A 
ATOM      7  C   UNL     1       1.960   9.373  17.939  0.00  0.00    +0.000 A 
ATOM      8  C   UNL     1       2.312   8.104  18.383  0.00  0.00    +0.000 A 
ATOM      9  N   UNL     1       3.025   7.320  17.574  0.00  0.00    +0.000 NA
ATOM     10  C   UNL     1       3.478   6.119  18.032  0.00  0.00    +0.000 A 
ENDROOT
BRANCH   1  11
ATOM     11  C   UNL     1       3.508   4.353  19.994  0.00  0.00    +0.000 C 
BRANCH  11  12
ATOM     12  CA  UNL     1       2.749   3.012  19.893  0.00  0.00    +0.000 C 
BRANCH  12  13
ATOM     13  N   UNL     1       2.081   2.778  18.570  0.00  0.00    +0.000 NA
ATOM     14  H1  UNL     1       1.588   3.637  18.303  0.00  0.00    +0.000 HD
ATOM     15  H2  UNL     1       1.352   2.066  18.672  0.00  0.00    +0.000 HD
ENDBRANCH  12  13
BRANCH  12  16
ATOM     16  C   UNL     1       1.640   2.963  20.977  0.00  0.00    +0.000 C 
ATOM     17  O   UNL     1       1.821   2.737  22.162  0.00  0.00    +0.000 OA
BRANCH  16  18
ATOM     18  OXT UNL     1       0.407   3.184  20.446  0.00  0.00    +0.000 OA
ATOM     19  HXT UNL     1       0.339   4.165  20.327  0.00  0.00    +0.000 HD
ENDBRANCH  16  18
ENDBRANCH  12  16
ENDBRANCH  11  12
ENDBRANCH   1  11
BRANCH  10  20
ATOM     20  C   UNL     1       4.356   5.490  17.002  0.00  0.00    +0.000 C 
BRANCH  20  21
ATOM     21  C   UNL     1       5.816   5.871  17.222  0.00  0.00    +0.000 C 
BRANCH  21  22
ATOM     22  P   UNL     1       6.982   4.771  16.466  0.00  0.00    +0.000 P 
ATOM     23  O   UNL     1       8.099   4.307  17.322  0.00  0.00    +0.000 OA
BRANCH  22  24
ATOM     24  O   UNL     1       6.067   3.542  15.979  0.00  0.00    +0.000 OA
ATOM     25  H   UNL     1       5.975   2.856  16.667  0.00  0.00    +0.000 HD
ENDBRANCH  22  24
BRANCH  22  26
ATOM     26  O   UNL     1       7.496   5.389  15.075  0.00  0.00    +0.000 OA
ATOM     27  H   UNL     1       8.459   5.473  15.014  0.00  0.00    +0.000 HD
ENDBRANCH  22  26
ENDBRANCH  21  22
ENDBRANCH  20  21
ENDBRANCH  10  20
TORSDOF 10
ENDMDL
MODEL 8
REMARK VINA RESULT:      -6.9      3.295      5.570
REMARK  Name = 
REMARK  10 active torsions:
REMARK  status: ('A' for Active; 'I' for Inactive)
REMARK    1  A    between atoms: N_1  and  CA_2
REMARK    2  A    between atoms: CA_2  and  C_3
REMARK    3  A    between atoms: CA_2  and  C_20
REMARK    4  A    between atoms: C_3  and  C_4
REMARK    5  A    between atoms: C_13  and  C_14
REMARK    6  A    between atoms: C_14  and  C_15
REMARK    7  A    between atoms: C_15  and  P_16
REMARK    8  A    between atoms: P_16  and  O_18
REMARK    9  A    between atoms: P_16  and  O_19
REMARK   10  A    between atoms: C_20  and  OXT_22
REMARK                            x       y       z     vdW  Elec       q    Type
REMARK                         _______ _______ _______ _____ _____    ______ ____
ROOT
ATOM      1  C   UNL     1       3.181   5.063  19.303  0.00  0.00    +0.000 A 
ATOM      2  N   UNL     1       2.465   5.909  20.117  0.00  0.00    +0.000 NA
ATOM      3  C   UNL     1       2.117   7.145  19.671  0.00  0.00    +0.000 A 
ATOM      4  C   UNL     1       1.461   8.070  20.483  0.00  0.00    +0.000 A 
ATOM      5  C   UNL     1       1.140   9.356  20.027  0.00  0.00    +0.000 A 
ATOM      6  C   UNL     1       1.474   9.732  18.732  0.00  0.00    +0.000 A 
ATOM      7  C   UNL     1       2.113   8.808  17.908  0.00  0.00    +0.000 A 
ATOM      8  C   UNL     1       2.432   7.536  18.368  0.00  0.00    +0.000 A 
ATOM      9  N   UNL     1       3.073   6.704  17.548  0.00  0.00    +0.000 NA
ATOM     10  C   UNL     1       3.497   5.495  18.015  0.00  0.00    +0.000 A 
ENDROOT
BRANCH   1  11
ATOM     11  C   UNL     1       3.544   3.776  20.018  0.00  0.00    +0.000 C 
BRANCH  11  12
ATOM     12  CA  UNL     1       2.674   2.502  20.074  0.00  0.00    +0.000 C 
BRANCH  12  13
ATOM     13  N   UNL     1       2.091   2.093  18.753  0.00  0.00    +0.000 NA
ATOM     14  H1  UNL     1       2.797   1.550  18.244  0.00  0.00    +0.000 HD
ATOM     15  H2  UNL     1       1.919   2.923  18.178  0.00  0.00    +0.000 HD
ENDBRANCH  12  13
BRANCH  12  16
ATOM     16  C   UNL     1       1.487   2.728  21.045  0.00  0.00    +0.000 C 
ATOM     17  O   UNL     1       1.473   2.424  22.226  0.00  0.00    +0.000 OA
BRANCH  16  18
ATOM     18  OXT UNL     1       0.423   3.297  20.415  0.00  0.00    +0.000 OA
ATOM     19  HXT UNL     1       0.607   4.270  20.405  0.00  0.00    +0.000 HD
ENDBRANCH  16  18
ENDBRANCH  12  16
ENDBRANCH  11  12
ENDBRANCH   1  11
BRANCH  10  20
ATOM     20  C   UNL     1       4.299   4.805  16.962  0.00  0.00    +0.000 C 
BRANCH  20  21
ATOM     21  C   UNL     1       5.568   5.588  16.642  0.00  0.00    +0.000 C 
BRANCH  21  22
ATOM     22  P   UNL     1       6.833   4.637  15.846  0.00  0.00    +0.000 P 
ATOM     23  O   UNL     1       6.374   3.542  14.960  0.00  0.00    +0.000 OA
BRANCH  22  24
ATOM     24  O   UNL     1       7.668   5.741  15.029  0.00  0.00    +0.000 OA
ATOM     25  H   UNL     1       8.559   5.427  14.791  0.00  0.00    +0.000 HD
ENDBRANCH  22  24
BRANCH  22  26
ATOM     26  O   UNL     1       7.904   4.132  16.933  0.00  0.00    +0.000 OA
ATOM     27  H   UNL     1       7.993   4.717  17.699  0.00  0.00    +0.000 HD
ENDBRANCH  22  26
ENDBRANCH  21  22
ENDBRANCH  20  21
ENDBRANCH  10  20
TORSDOF 10
ENDMDL
MODEL 9
REMARK VINA RESULT:      -6.9      3.228      5.444
REMARK  Name = 
REMARK  10 active torsions:
REMARK  status: ('A' for Active; 'I' for Inactive)
REMARK    1  A    between atoms: N_1  and  CA_2
REMARK    2  A    between atoms: CA_2  and  C_3
REMARK    3  A    between atoms: CA_2  and  C_20
REMARK    4  A    between atoms: C_3  and  C_4
REMARK    5  A    between atoms: C_13  and  C_14
REMARK    6  A    between atoms: C_14  and  C_15
REMARK    7  A    between atoms: C_15  and  P_16
REMARK    8  A    between atoms: P_16  and  O_18
REMARK    9  A    between atoms: P_16  and  O_19
REMARK   10  A    between atoms: C_20  and  OXT_22
REMARK                            x       y       z     vdW  Elec       q    Type
REMARK                         _______ _______ _______ _____ _____    ______ ____
ROOT
ATOM      1  C   UNL     1       3.302   4.746  19.213  0.00  0.00    +0.000 A 
ATOM      2  N   UNL     1       2.585   5.616  20.000  0.00  0.00    +0.000 NA
ATOM      3  C   UNL     1       2.280   6.856  19.533  0.00  0.00    +0.000 A 
ATOM      4  C   UNL     1       1.624   7.805  20.317  0.00  0.00    +0.000 A 
ATOM      5  C   UNL     1       1.347   9.093  19.840  0.00  0.00    +0.000 A 
ATOM      6  C   UNL     1       1.724   9.447  18.551  0.00  0.00    +0.000 A 
ATOM      7  C   UNL     1       2.363   8.500  17.754  0.00  0.00    +0.000 A 
ATOM      8  C   UNL     1       2.638   7.225  18.235  0.00  0.00    +0.000 A 
ATOM      9  N   UNL     1       3.281   6.370  17.440  0.00  0.00    +0.000 NA
ATOM     10  C   UNL     1       3.662   5.156  17.930  0.00  0.00    +0.000 A 
ENDROOT
BRANCH   1  11
ATOM     11  C   UNL     1       3.615   3.457  19.950  0.00  0.00    +0.000 C 
BRANCH  11  12
ATOM     12  CA  UNL     1       2.657   2.257  20.112  0.00  0.00    +0.000 C 
BRANCH  12  13
ATOM     13  N   UNL     1       2.024   1.795  18.832  0.00  0.00    +0.000 NA
ATOM     14  H1  UNL     1       1.422   0.992  19.044  0.00  0.00    +0.000 HD
ATOM     15  H2  UNL     1       2.745   1.435  18.200  0.00  0.00    +0.000 HD
ENDBRANCH  12  13
BRANCH  12  16
ATOM     16  C   UNL     1       1.504   2.642  21.075  0.00  0.00    +0.000 C 
ATOM     17  O   UNL     1       1.498   2.452  22.280  0.00  0.00    +0.000 OA
BRANCH  16  18
ATOM     18  OXT UNL     1       0.460   3.208  20.410  0.00  0.00    +0.000 OA
ATOM     19  HXT UNL     1       0.172   2.537  19.742  0.00  0.00    +0.000 HD
ENDBRANCH  16  18
ENDBRANCH  12  16
ENDBRANCH  11  12
ENDBRANCH   1  11
BRANCH  10  20
ATOM     20  C   UNL     1       4.475   4.436  16.906  0.00  0.00    +0.000 C 
BRANCH  20  21
ATOM     21  C   UNL     1       5.967   4.643  17.149  0.00  0.00    +0.000 C 
BRANCH  21  22
ATOM     22  P   UNL     1       6.693   5.935  16.177  0.00  0.00    +0.000 P 
ATOM     23  O   UNL     1       7.632   6.840  16.881  0.00  0.00    +0.000 OA
BRANCH  22  24
ATOM     24  O   UNL     1       7.426   5.137  14.990  0.00  0.00    +0.000 OA
ATOM     25  H   UNL     1       7.752   5.734  14.292  0.00  0.00    +0.000 HD
ENDBRANCH  22  24
BRANCH  22  26
ATOM     26  O   UNL     1       5.545   6.740  15.392  0.00  0.00    +0.000 OA
ATOM     27  H   UNL     1       5.452   6.488  14.462  0.00  0.00    +0.000 HD
ENDBRANCH  22  26
ENDBRANCH  21  22
ENDBRANCH  20  21
ENDBRANCH  10  20
TORSDOF 10
ENDMDL
