MODEL 1
REMARK VINA RESULT:      -8.1      0.000      0.000
REMARK  Name = 
REMARK  8 active torsions:
REMARK  status: ('A' for Active; 'I' for Inactive)
REMARK    1  A    between atoms: C_1  and  C_2
REMARK    2  A    between atoms: C_2  and  C_3
REMARK    3  A    between atoms: C_6  and  O_7
REMARK    4  A    between atoms: O_7  and  C_8
REMARK    5  A    between atoms: C_8  and  C_9
REMARK    6  A    between atoms: C_9  and  N_10
REMARK    7  A    between atoms: N_13  and  S_14
REMARK    8  A    between atoms: S_14  and  C_15
REMARK                            x       y       z     vdW  Elec       q    Type
REMARK                         _______ _______ _______ _____ _____    ______ ____
ROOT
ATOM      1  C   UNL     1       1.503   9.203  22.597  0.00  0.00    +0.000 C 
ATOM      2  C   UNL     1       0.738   8.959  21.279  0.00  0.00    +0.000 C 
ATOM      3  C   UNL     1      -0.684   8.425  21.545  0.00  0.00    +0.000 C 
ATOM      4  C   UNL     1       0.631  10.272  20.494  0.00  0.00    +0.000 A 
ATOM      5  C   UNL     1       0.050  11.379  21.128  0.00  0.00    +0.000 A 
ATOM      6  C   UNL     1      -0.047  12.604  20.492  0.00  0.00    +0.000 A 
ATOM      7  C   UNL     1       0.378  12.733  19.168  0.00  0.00    +0.000 A 
ATOM      8  C   UNL     1       0.945  11.643  18.502  0.00  0.00    +0.000 A 
ATOM      9  C   UNL     1       1.094  10.418  19.161  0.00  0.00    +0.000 A 
ATOM     10  C   UNL     1       1.768   9.297  18.424  0.00  0.00    +0.000 C 
ATOM     11  O   UNL     1       2.146   9.433  17.266  0.00  0.00    +0.000 OA
ATOM     12  C   UNL     1       1.948   8.080  19.176  0.00  0.00    +0.000 A 
ATOM     13  C   UNL     1       1.479   7.960  20.462  0.00  0.00    +0.000 A 
ATOM     14  O   UNL     1       1.743   6.737  20.980  0.00  0.00    +0.000 OA
ATOM     15  C   UNL     1       2.401   6.050  20.007  0.00  0.00    +0.000 A 
ATOM     16  C   UNL     1       2.853   4.741  20.124  0.00  0.00    +0.000 A 
ATOM     17  C   UNL     1       3.503   4.207  19.010  0.00  0.00    +0.000 A 
ATOM     18  C   UNL     1       3.684   4.963  17.844  0.00  0.00    +0.000 A 
ATOM     19  C   UNL     1       3.218   6.283  17.759  0.00  0.00    +0.000 A 
ATOM     20  C   UNL     1       2.557   6.838  18.867  0.00  0.00    +0.000 A 
ENDROOT
BRANCH   6  21
ATOM     21  O   UNL     1      -0.554  13.584  21.300  0.00  0.00    +0.000 OA
BRANCH  21  22
ATOM     22  C   UNL     1      -0.732  13.177  22.642  0.00  0.00    +0.000 C 
BRANCH  22  23
ATOM     23  C   UNL     1      -1.588  14.195  23.400  0.00  0.00    +0.000 C 
BRANCH  23  24
ATOM     24  N   UNL     1      -2.697  13.514  24.075  0.00  0.00    +0.000 NA
ATOM     25  C   UNL     1      -3.751  14.433  24.550  0.00  0.00    +0.000 C 
ATOM     26  C   UNL     1      -4.705  14.927  23.451  0.00  0.00    +0.000 C 
ATOM     27  N   UNL     1      -5.375  13.783  22.774  0.00  0.00    +0.000 NA
ATOM     28  C   UNL     1      -4.333  12.859  22.211  0.00  0.00    +0.000 C 
ATOM     29  C   UNL     1      -3.286  12.428  23.263  0.00  0.00    +0.000 C 
BRANCH  27  30
ATOM     30  S   UNL     1      -6.657  13.037  23.611  0.00  0.00    +0.000 S 
ATOM     31  C   UNL     1      -7.619  12.329  22.286  0.00  0.00    +0.000 C 
ATOM     32  O   UNL     1      -6.099  11.939  24.369  0.00  0.00    +0.000 OA
ATOM     33  O   UNL     1      -7.464  14.046  24.255  0.00  0.00    +0.000 OA
ENDBRANCH  27  30
ENDBRANCH  23  24
ENDBRANCH  22  23
ENDBRANCH  21  22
ENDBRANCH   6  21
TORSDOF 5
ENDMDL
MODEL 2
REMARK VINA RESULT:      -8.1      5.239     10.450
REMARK  Name = 
REMARK  8 active torsions:
REMARK  status: ('A' for Active; 'I' for Inactive)
REMARK    1  A    between atoms: C_1  and  C_2
REMARK    2  A    between atoms: C_2  and  C_3
REMARK    3  A    between atoms: C_6  and  O_7
REMARK    4  A    between atoms: O_7  and  C_8
REMARK    5  A    between atoms: C_8  and  C_9
REMARK    6  A    between atoms: C_9  and  N_10
REMARK    7  A    between atoms: N_13  and  S_14
REMARK    8  A    between atoms: S_14  and  C_15
REMARK                            x       y       z     vdW  Elec       q    Type
REMARK                         _______ _______ _______ _____ _____    ______ ____
ROOT
ATOM      1  C   UNL     1      -0.589   8.555  21.928  0.00  0.00    +0.000 C 
ATOM      2  C   UNL     1       0.596   9.503  21.651  0.00  0.00    +0.000 C 
ATOM      3  C   UNL     1       1.709   9.333  22.705  0.00  0.00    +0.000 C 
ATOM      4  C   UNL     1       1.182   9.206  20.266  0.00  0.00    +0.000 A 
ATOM      5  C   UNL     1       1.605   7.898  19.991  0.00  0.00    +0.000 A 
ATOM      6  C   UNL     1       2.111   7.552  18.750  0.00  0.00    +0.000 A 
ATOM      7  C   UNL     1       2.270   8.532  17.768  0.00  0.00    +0.000 A 
ATOM      8  C   UNL     1       1.874   9.848  18.018  0.00  0.00    +0.000 A 
ATOM      9  C   UNL     1       1.312  10.190  19.252  0.00  0.00    +0.000 A 
ATOM     10  C   UNL     1       0.843  11.603  19.448  0.00  0.00    +0.000 C 
ATOM     11  O   UNL     1       0.980  12.446  18.569  0.00  0.00    +0.000 OA
ATOM     12  C   UNL     1       0.217  11.879  20.717  0.00  0.00    +0.000 A 
ATOM     13  C   UNL     1       0.115  10.910  21.687  0.00  0.00    +0.000 A 
ATOM     14  O   UNL     1      -0.495  11.380  22.802  0.00  0.00    +0.000 OA
ATOM     15  C   UNL     1      -0.797  12.681  22.545  0.00  0.00    +0.000 A 
ATOM     16  C   UNL     1      -1.430  13.542  23.436  0.00  0.00    +0.000 A 
ATOM     17  C   UNL     1      -1.648  14.846  22.988  0.00  0.00    +0.000 A 
ATOM     18  C   UNL     1      -1.247  15.251  21.708  0.00  0.00    +0.000 A 
ATOM     19  C   UNL     1      -0.613  14.357  20.833  0.00  0.00    +0.000 A 
ATOM     20  C   UNL     1      -0.380  13.042  21.265  0.00  0.00    +0.000 A 
ENDROOT
BRANCH   6  21
ATOM     21  O   UNL     1       2.382   6.215  18.640  0.00  0.00    +0.000 OA
BRANCH  21  22
ATOM     22  C   UNL     1       3.204   5.716  19.677  0.00  0.00    +0.000 C 
BRANCH  22  23
ATOM     23  C   UNL     1       3.424   4.212  19.507  0.00  0.00    +0.000 C 
BRANCH  23  24
ATOM     24  N   UNL     1       4.782   3.956  19.014  0.00  0.00    +0.000 NA
ATOM     25  C   UNL     1       4.816   3.366  17.660  0.00  0.00    +0.000 C 
ATOM     26  C   UNL     1       4.578   4.372  16.523  0.00  0.00    +0.000 C 
ATOM     27  N   UNL     1       5.584   5.469  16.563  0.00  0.00    +0.000 NA
ATOM     28  C   UNL     1       5.529   6.145  17.904  0.00  0.00    +0.000 C 
ATOM     29  C   UNL     1       5.652   5.149  19.079  0.00  0.00    +0.000 C 
BRANCH  27  30
ATOM     30  S   UNL     1       7.140   5.107  15.975  0.00  0.00    +0.000 S 
ATOM     31  C   UNL     1       6.786   4.326  14.411  0.00  0.00    +0.000 C 
ATOM     32  O   UNL     1       7.798   6.362  15.688  0.00  0.00    +0.000 OA
ATOM     33  O   UNL     1       7.762   4.125  16.831  0.00  0.00    +0.000 OA
ENDBRANCH  27  30
ENDBRANCH  23  24
ENDBRANCH  22  23
ENDBRANCH  21  22
ENDBRANCH   6  21
TORSDOF 5
ENDMDL
MODEL 3
REMARK VINA RESULT:      -8.1      4.946     10.283
REMARK  Name = 
REMARK  8 active torsions:
REMARK  status: ('A' for Active; 'I' for Inactive)
REMARK    1  A    between atoms: C_1  and  C_2
REMARK    2  A    between atoms: C_2  and  C_3
REMARK    3  A    between atoms: C_6  and  O_7
REMARK    4  A    between atoms: O_7  and  C_8
REMARK    5  A    between atoms: C_8  and  C_9
REMARK    6  A    between atoms: C_9  and  N_10
REMARK    7  A    between atoms: N_13  and  S_14
REMARK    8  A    between atoms: S_14  and  C_15
REMARK                            x       y       z     vdW  Elec       q    Type
REMARK                         _______ _______ _______ _____ _____    ______ ____
ROOT
ATOM      1  C   UNL     1      -3.055  11.095  15.996  0.00  0.00    +0.000 C 
ATOM      2  C   UNL     1      -3.264  10.653  17.460  0.00  0.00    +0.000 C 
ATOM      3  C   UNL     1      -3.819   9.216  17.538  0.00  0.00    +0.000 C 
ATOM      4  C   UNL     1      -1.928  10.706  18.210  0.00  0.00    +0.000 A 
ATOM      5  C   UNL     1      -0.847   9.979  17.692  0.00  0.00    +0.000 A 
ATOM      6  C   UNL     1       0.397  10.010  18.299  0.00  0.00    +0.000 A 
ATOM      7  C   UNL     1       0.571  10.721  19.488  0.00  0.00    +0.000 A 
ATOM      8  C   UNL     1      -0.491  11.441  20.038  0.00  0.00    +0.000 A 
ATOM      9  C   UNL     1      -1.735  11.456  19.398  0.00  0.00    +0.000 A 
ATOM     10  C   UNL     1      -2.826  12.298  19.995  0.00  0.00    +0.000 C 
ATOM     11  O   UNL     1      -2.650  12.926  21.033  0.00  0.00    +0.000 OA
ATOM     12  C   UNL     1      -4.065  12.322  19.257  0.00  0.00    +0.000 A 
ATOM     13  C   UNL     1      -4.229  11.575  18.115  0.00  0.00    +0.000 A 
ATOM     14  O   UNL     1      -5.466  11.734  17.586  0.00  0.00    +0.000 OA
ATOM     15  C   UNL     1      -6.116  12.606  18.404  0.00  0.00    +0.000 A 
ATOM     16  C   UNL     1      -7.424  13.041  18.224  0.00  0.00    +0.000 A 
ATOM     17  C   UNL     1      -7.916  13.935  19.178  0.00  0.00    +0.000 A 
ATOM     18  C   UNL     1      -7.123  14.364  20.249  0.00  0.00    +0.000 A 
ATOM     19  C   UNL     1      -5.805  13.908  20.400  0.00  0.00    +0.000 A 
ATOM     20  C   UNL     1      -5.291  13.005  19.455  0.00  0.00    +0.000 A 
ENDROOT
BRANCH   6  21
ATOM     21  O   UNL     1       1.347   9.317  17.599  0.00  0.00    +0.000 OA
BRANCH  21  22
ATOM     22  C   UNL     1       2.192   8.530  18.417  0.00  0.00    +0.000 C 
BRANCH  22  23
ATOM     23  C   UNL     1       3.081   7.631  17.555  0.00  0.00    +0.000 C 
BRANCH  23  24
ATOM     24  N   UNL     1       3.834   6.705  18.408  0.00  0.00    +0.000 NA
ATOM     25  C   UNL     1       3.034   6.140  19.514  0.00  0.00    +0.000 C 
ATOM     26  C   UNL     1       2.084   5.006  19.096  0.00  0.00    +0.000 C 
ATOM     27  N   UNL     1       2.837   3.887  18.466  0.00  0.00    +0.000 NA
ATOM     28  C   UNL     1       3.609   4.409  17.287  0.00  0.00    +0.000 C 
ATOM     29  C   UNL     1       4.492   5.625  17.644  0.00  0.00    +0.000 C 
BRANCH  27  30
ATOM     30  S   UNL     1       3.688   2.847  19.512  0.00  0.00    +0.000 S 
ATOM     31  C   UNL     1       3.662   1.302  18.619  0.00  0.00    +0.000 C 
ATOM     32  O   UNL     1       5.062   3.298  19.548  0.00  0.00    +0.000 OA
ATOM     33  O   UNL     1       2.936   2.668  20.731  0.00  0.00    +0.000 OA
ENDBRANCH  27  30
ENDBRANCH  23  24
ENDBRANCH  22  23
ENDBRANCH  21  22
ENDBRANCH   6  21
TORSDOF 5
ENDMDL
MODEL 4
REMARK VINA RESULT:      -8.1      5.234     10.814
REMARK  Name = 
REMARK  8 active torsions:
REMARK  status: ('A' for Active; 'I' for Inactive)
REMARK    1  A    between atoms: C_1  and  C_2
REMARK    2  A    between atoms: C_2  and  C_3
REMARK    3  A    between atoms: C_6  and  O_7
REMARK    4  A    between atoms: O_7  and  C_8
REMARK    5  A    between atoms: C_8  and  C_9
REMARK    6  A    between atoms: C_9  and  N_10
REMARK    7  A    between atoms: N_13  and  S_14
REMARK    8  A    between atoms: S_14  and  C_15
REMARK                            x       y       z     vdW  Elec       q    Type
REMARK                         _______ _______ _______ _____ _____    ______ ____
ROOT
ATOM      1  C   UNL     1       1.525  11.971  18.612  0.00  0.00    +0.000 C 
ATOM      2  C   UNL     1       0.292  11.340  19.291  0.00  0.00    +0.000 C 
ATOM      3  C   UNL     1      -0.847  11.102  18.278  0.00  0.00    +0.000 C 
ATOM      4  C   UNL     1       0.680   9.995  19.918  0.00  0.00    +0.000 A 
ATOM      5  C   UNL     1       1.262   9.022  19.094  0.00  0.00    +0.000 A 
ATOM      6  C   UNL     1       1.668   7.800  19.600  0.00  0.00    +0.000 A 
ATOM      7  C   UNL     1       1.438   7.495  20.943  0.00  0.00    +0.000 A 
ATOM      8  C   UNL     1       0.844   8.437  21.786  0.00  0.00    +0.000 A 
ATOM      9  C   UNL     1       0.481   9.693  21.289  0.00  0.00    +0.000 A 
ATOM     10  C   UNL     1      -0.093  10.694  22.251  0.00  0.00    +0.000 C 
ATOM     11  O   UNL     1      -0.276  10.412  23.429  0.00  0.00    +0.000 OA
ATOM     12  C   UNL     1      -0.389  11.990  21.693  0.00  0.00    +0.000 A 
ATOM     13  C   UNL     1      -0.199  12.253  20.357  0.00  0.00    +0.000 A 
ATOM     14  O   UNL     1      -0.548  13.523  20.042  0.00  0.00    +0.000 OA
ATOM     15  C   UNL     1      -0.971  14.096  21.201  0.00  0.00    +0.000 A 
ATOM     16  C   UNL     1      -1.428  15.404  21.321  0.00  0.00    +0.000 A 
ATOM     17  C   UNL     1      -1.825  15.806  22.598  0.00  0.00    +0.000 A 
ATOM     18  C   UNL     1      -1.759  14.930  23.689  0.00  0.00    +0.000 A 
ATOM     19  C   UNL     1      -1.291  13.617  23.534  0.00  0.00    +0.000 A 
ATOM     20  C   UNL     1      -0.891  13.190  22.257  0.00  0.00    +0.000 A 
ENDROOT
BRANCH   6  21
ATOM     21  O   UNL     1       2.297   7.020  18.668  0.00  0.00    +0.000 OA
BRANCH  21  22
ATOM     22  C   UNL     1       2.792   5.802  19.188  0.00  0.00    +0.000 C 
BRANCH  22  23
ATOM     23  C   UNL     1       4.275   5.936  19.542  0.00  0.00    +0.000 C 
BRANCH  23  24
ATOM     24  N   UNL     1       5.065   4.980  18.758  0.00  0.00    +0.000 NA
ATOM     25  C   UNL     1       4.547   4.769  17.391  0.00  0.00    +0.000 C 
ATOM     26  C   UNL     1       4.895   5.890  16.400  0.00  0.00    +0.000 C 
ATOM     27  N   UNL     1       6.369   6.075  16.300  0.00  0.00    +0.000 NA
ATOM     28  C   UNL     1       6.926   6.368  17.665  0.00  0.00    +0.000 C 
ATOM     29  C   UNL     1       6.503   5.319  18.719  0.00  0.00    +0.000 C 
BRANCH  27  30
ATOM     30  S   UNL     1       7.228   4.933  15.375  0.00  0.00    +0.000 S 
ATOM     31  C   UNL     1       5.920   4.079  14.513  0.00  0.00    +0.000 C 
ATOM     32  O   UNL     1       7.989   5.661  14.385  0.00  0.00    +0.000 OA
ATOM     33  O   UNL     1       7.871   3.986  16.255  0.00  0.00    +0.000 OA
ENDBRANCH  27  30
ENDBRANCH  23  24
ENDBRANCH  22  23
ENDBRANCH  21  22
ENDBRANCH   6  21
TORSDOF 5
ENDMDL
MODEL 5
REMARK VINA RESULT:      -8.1      4.902     10.225
REMARK  Name = 
REMARK  8 active torsions:
REMARK  status: ('A' for Active; 'I' for Inactive)
REMARK    1  A    between atoms: C_1  and  C_2
REMARK    2  A    between atoms: C_2  and  C_3
REMARK    3  A    between atoms: C_6  and  O_7
REMARK    4  A    between atoms: O_7  and  C_8
REMARK    5  A    between atoms: C_8  and  C_9
REMARK    6  A    between atoms: C_9  and  N_10
REMARK    7  A    between atoms: N_13  and  S_14
REMARK    8  A    between atoms: S_14  and  C_15
REMARK                            x       y       z     vdW  Elec       q    Type
REMARK                         _______ _______ _______ _____ _____    ______ ____
ROOT
ATOM      1  C   UNL     1      -2.593  11.270  16.304  0.00  0.00    +0.000 C 
ATOM      2  C   UNL     1      -2.873  10.787  17.743  0.00  0.00    +0.000 C 
ATOM      3  C   UNL     1      -3.320   9.311  17.762  0.00  0.00    +0.000 C 
ATOM      4  C   UNL     1      -1.602  10.926  18.590  0.00  0.00    +0.000 A 
ATOM      5  C   UNL     1      -0.434  10.293  18.144  0.00  0.00    +0.000 A 
ATOM      6  C   UNL     1       0.756  10.405  18.841  0.00  0.00    +0.000 A 
ATOM      7  C   UNL     1       0.789  11.106  20.049  0.00  0.00    +0.000 A 
ATOM      8  C   UNL     1      -0.363  11.733  20.528  0.00  0.00    +0.000 A 
ATOM      9  C   UNL     1      -1.555  11.666  19.799  0.00  0.00    +0.000 A 
ATOM     10  C   UNL     1      -2.747  12.412  20.325  0.00  0.00    +0.000 C 
ATOM     11  O   UNL     1      -2.696  13.032  21.381  0.00  0.00    +0.000 OA
ATOM     12  C   UNL     1      -3.928  12.356  19.498  0.00  0.00    +0.000 A 
ATOM     13  C   UNL     1      -3.951  11.621  18.337  0.00  0.00    +0.000 A 
ATOM     14  O   UNL     1      -5.155  11.696  17.720  0.00  0.00    +0.000 OA
ATOM     15  C   UNL     1      -5.927  12.501  18.499  0.00  0.00    +0.000 A 
ATOM     16  C   UNL     1      -7.248  12.839  18.230  0.00  0.00    +0.000 A 
ATOM     17  C   UNL     1      -7.875  13.675  19.156  0.00  0.00    +0.000 A 
ATOM     18  C   UNL     1      -7.197  14.143  20.288  0.00  0.00    +0.000 A 
ATOM     19  C   UNL     1      -5.862  13.785  20.529  0.00  0.00    +0.000 A 
ATOM     20  C   UNL     1      -5.214  12.941  19.614  0.00  0.00    +0.000 A 
ENDROOT
BRANCH   6  21
ATOM     21  O   UNL     1       1.805   9.799  18.204  0.00  0.00    +0.000 OA
BRANCH  21  22
ATOM     22  C   UNL     1       1.824   8.393  18.357  0.00  0.00    +0.000 C 
BRANCH  22  23
ATOM     23  C   UNL     1       3.177   7.828  17.918  0.00  0.00    +0.000 C 
BRANCH  23  24
ATOM     24  N   UNL     1       3.055   6.393  17.641  0.00  0.00    +0.000 NA
ATOM     25  C   UNL     1       4.355   5.699  17.542  0.00  0.00    +0.000 C 
ATOM     26  C   UNL     1       5.016   5.395  18.895  0.00  0.00    +0.000 C 
ATOM     27  N   UNL     1       4.125   4.563  19.749  0.00  0.00    +0.000 NA
ATOM     28  C   UNL     1       2.813   5.272  19.935  0.00  0.00    +0.000 C 
ATOM     29  C   UNL     1       2.169   5.695  18.596  0.00  0.00    +0.000 C 
BRANCH  27  30
ATOM     30  S   UNL     1       4.029   2.905  19.375  0.00  0.00    +0.000 S 
ATOM     31  C   UNL     1       2.405   2.472  19.975  0.00  0.00    +0.000 C 
ATOM     32  O   UNL     1       3.998   2.786  17.935  0.00  0.00    +0.000 OA
ATOM     33  O   UNL     1       5.000   2.177  20.158  0.00  0.00    +0.000 OA
ENDBRANCH  27  30
ENDBRANCH  23  24
ENDBRANCH  22  23
ENDBRANCH  21  22
ENDBRANCH   6  21
TORSDOF 5
ENDMDL
MODEL 6
REMARK VINA RESULT:      -8.0      4.665     10.073
REMARK  Name = 
REMARK  8 active torsions:
REMARK  status: ('A' for Active; 'I' for Inactive)
REMARK    1  A    between atoms: C_1  and  C_2
REMARK    2  A    between atoms: C_2  and  C_3
REMARK    3  A    between atoms: C_6  and  O_7
REMARK    4  A    between atoms: O_7  and  C_8
REMARK    5  A    between atoms: C_8  and  C_9
REMARK    6  A    between atoms: C_9  and  N_10
REMARK    7  A    between atoms: N_13  and  S_14
REMARK    8  A    between atoms: S_14  and  C_15
REMARK                            x       y       z     vdW  Elec       q    Type
REMARK                         _______ _______ _______ _____ _____    ______ ____
ROOT
ATOM      1  C   UNL     1      -0.644  12.665  18.305  0.00  0.00    +0.000 C 
ATOM      2  C   UNL     1      -1.333  11.556  19.128  0.00  0.00    +0.000 C 
ATOM      3  C   UNL     1      -2.465  10.882  18.325  0.00  0.00    +0.000 C 
ATOM      4  C   UNL     1      -0.304  10.488  19.518  0.00  0.00    +0.000 A 
ATOM      5  C   UNL     1       0.431   9.870  18.497  0.00  0.00    +0.000 A 
ATOM      6  C   UNL     1       1.400   8.923  18.780  0.00  0.00    +0.000 A 
ATOM      7  C   UNL     1       1.610   8.520  20.100  0.00  0.00    +0.000 A 
ATOM      8  C   UNL     1       0.881   9.103  21.137  0.00  0.00    +0.000 A 
ATOM      9  C   UNL     1      -0.061  10.100  20.860  0.00  0.00    +0.000 A 
ATOM     10  C   UNL     1      -0.772  10.742  22.017  0.00  0.00    +0.000 C 
ATOM     11  O   UNL     1      -0.565  10.382  23.170  0.00  0.00    +0.000 OA
ATOM     12  C   UNL     1      -1.684  11.803  21.672  0.00  0.00    +0.000 A 
ATOM     13  C   UNL     1      -1.911  12.152  20.361  0.00  0.00    +0.000 A 
ATOM     14  O   UNL     1      -2.808  13.162  20.259  0.00  0.00    +0.000 OA
ATOM     15  C   UNL     1      -3.167  13.476  21.533  0.00  0.00    +0.000 A 
ATOM     16  C   UNL     1      -4.080  14.466  21.881  0.00  0.00    +0.000 A 
ATOM     17  C   UNL     1      -4.321  14.634  23.246  0.00  0.00    +0.000 A 
ATOM     18  C   UNL     1      -3.669  13.844  24.202  0.00  0.00    +0.000 A 
ATOM     19  C   UNL     1      -2.751  12.856  23.817  0.00  0.00    +0.000 A 
ATOM     20  C   UNL     1      -2.498  12.666  22.449  0.00  0.00    +0.000 A 
ENDROOT
BRANCH   6  21
ATOM     21  O   UNL     1       2.075   8.504  17.666  0.00  0.00    +0.000 OA
BRANCH  21  22
ATOM     22  C   UNL     1       3.426   8.169  17.914  0.00  0.00    +0.000 C 
BRANCH  22  23
ATOM     23  C   UNL     1       3.852   6.986  17.043  0.00  0.00    +0.000 C 
BRANCH  23  24
ATOM     24  N   UNL     1       4.545   5.984  17.860  0.00  0.00    +0.000 NA
ATOM     25  C   UNL     1       3.895   5.735  19.163  0.00  0.00    +0.000 C 
ATOM     26  C   UNL     1       2.651   4.836  19.091  0.00  0.00    +0.000 C 
ATOM     27  N   UNL     1       2.984   3.514  18.493  0.00  0.00    +0.000 NA
ATOM     28  C   UNL     1       3.582   3.722  17.130  0.00  0.00    +0.000 C 
ATOM     29  C   UNL     1       4.769   4.711  17.144  0.00  0.00    +0.000 C 
BRANCH  27  30
ATOM     30  S   UNL     1       3.787   2.396  19.495  0.00  0.00    +0.000 S 
ATOM     31  C   UNL     1       2.850   2.499  21.010  0.00  0.00    +0.000 C 
ATOM     32  O   UNL     1       3.564   1.079  18.942  0.00  0.00    +0.000 OA
ATOM     33  O   UNL     1       5.125   2.867  19.767  0.00  0.00    +0.000 OA
ENDBRANCH  27  30
ENDBRANCH  23  24
ENDBRANCH  22  23
ENDBRANCH  21  22
ENDBRANCH   6  21
TORSDOF 5
ENDMDL
MODEL 7
REMARK VINA RESULT:      -8.0      0.851      1.255
REMARK  Name = 
REMARK  8 active torsions:
REMARK  status: ('A' for Active; 'I' for Inactive)
REMARK    1  A    between atoms: C_1  and  C_2
REMARK    2  A    between atoms: C_2  and  C_3
REMARK    3  A    between atoms: C_6  and  O_7
REMARK    4  A    between atoms: O_7  and  C_8
REMARK    5  A    between atoms: C_8  and  C_9
REMARK    6  A    between atoms: C_9  and  N_10
REMARK    7  A    between atoms: N_13  and  S_14
REMARK    8  A    between atoms: S_14  and  C_15
REMARK                            x       y       z     vdW  Elec       q    Type
REMARK                         _______ _______ _______ _____ _____    ______ ____
ROOT
ATOM      1  C   UNL     1       1.405   9.309  22.570  0.00  0.00    +0.000 C 
ATOM      2  C   UNL     1       0.673   9.003  21.246  0.00  0.00    +0.000 C 
ATOM      3  C   UNL     1      -0.742   8.444  21.503  0.00  0.00    +0.000 C 
ATOM      4  C   UNL     1       0.551  10.286  20.416  0.00  0.00    +0.000 A 
ATOM      5  C   UNL     1      -0.069  11.399  21.002  0.00  0.00    +0.000 A 
ATOM      6  C   UNL     1      -0.182  12.600  20.323  0.00  0.00    +0.000 A 
ATOM      7  C   UNL     1       0.266  12.695  19.004  0.00  0.00    +0.000 A 
ATOM      8  C   UNL     1       0.871  11.599  18.387  0.00  0.00    +0.000 A 
ATOM      9  C   UNL     1       1.036  10.400  19.088  0.00  0.00    +0.000 A 
ATOM     10  C   UNL     1       1.751   9.272  18.402  0.00  0.00    +0.000 C 
ATOM     11  O   UNL     1       2.149   9.379  17.248  0.00  0.00    +0.000 OA
ATOM     12  C   UNL     1       1.945   8.085  19.198  0.00  0.00    +0.000 A 
ATOM     13  C   UNL     1       1.453   7.996  20.478  0.00  0.00    +0.000 A 
ATOM     14  O   UNL     1       1.735   6.797  21.042  0.00  0.00    +0.000 OA
ATOM     15  C   UNL     1       2.428   6.095  20.105  0.00  0.00    +0.000 A 
ATOM     16  C   UNL     1       2.909   4.801  20.275  0.00  0.00    +0.000 A 
ATOM     17  C   UNL     1       3.593   4.247  19.191  0.00  0.00    +0.000 A 
ATOM     18  C   UNL     1       3.780   4.968  18.005  0.00  0.00    +0.000 A 
ATOM     19  C   UNL     1       3.285   6.273  17.867  0.00  0.00    +0.000 A 
ATOM     20  C   UNL     1       2.589   6.848  18.943  0.00  0.00    +0.000 A 
ENDROOT
BRANCH   6  21
ATOM     21  O   UNL     1      -0.728  13.594  21.088  0.00  0.00    +0.000 OA
BRANCH  21  22
ATOM     22  C   UNL     1      -0.347  13.537  22.449  0.00  0.00    +0.000 C 
BRANCH  22  23
ATOM     23  C   UNL     1      -1.543  13.851  23.351  0.00  0.00    +0.000 C 
BRANCH  23  24
ATOM     24  N   UNL     1      -2.793  13.521  22.661  0.00  0.00    +0.000 NA
ATOM     25  C   UNL     1      -3.412  12.264  23.131  0.00  0.00    +0.000 C 
ATOM     26  C   UNL     1      -4.165  12.387  24.464  0.00  0.00    +0.000 C 
ATOM     27  N   UNL     1      -5.239  13.413  24.377  0.00  0.00    +0.000 NA
ATOM     28  C   UNL     1      -4.637  14.729  23.972  0.00  0.00    +0.000 C 
ATOM     29  C   UNL     1      -3.778  14.623  22.692  0.00  0.00    +0.000 C 
BRANCH  27  30
ATOM     30  S   UNL     1      -6.666  12.966  23.563  0.00  0.00    +0.000 S 
ATOM     31  C   UNL     1      -7.850  14.144  24.192  0.00  0.00    +0.000 C 
ATOM     32  O   UNL     1      -6.475  13.258  22.160  0.00  0.00    +0.000 OA
ATOM     33  O   UNL     1      -7.076  11.651  23.997  0.00  0.00    +0.000 OA
ENDBRANCH  27  30
ENDBRANCH  23  24
ENDBRANCH  22  23
ENDBRANCH  21  22
ENDBRANCH   6  21
TORSDOF 5
ENDMDL
MODEL 8
REMARK VINA RESULT:      -7.8      5.533     10.446
REMARK  Name = 
REMARK  8 active torsions:
REMARK  status: ('A' for Active; 'I' for Inactive)
REMARK    1  A    between atoms: C_1  and  C_2
REMARK    2  A    between atoms: C_2  and  C_3
REMARK    3  A    between atoms: C_6  and  O_7
REMARK    4  A    between atoms: O_7  and  C_8
REMARK    5  A    between atoms: C_8  and  C_9
REMARK    6  A    between atoms: C_9  and  N_10
REMARK    7  A    between atoms: N_13  and  S_14
REMARK    8  A    between atoms: S_14  and  C_15
REMARK                            x       y       z     vdW  Elec       q    Type
REMARK                         _______ _______ _______ _____ _____    ______ ____
ROOT
ATOM      1  C   UNL     1      -0.564   8.731  21.823  0.00  0.00    +0.000 C 
ATOM      2  C   UNL     1       0.826   9.228  21.370  0.00  0.00    +0.000 C 
ATOM      3  C   UNL     1       1.820   9.265  22.549  0.00  0.00    +0.000 C 
ATOM      4  C   UNL     1       1.381   8.293  20.289  0.00  0.00    +0.000 A 
ATOM      5  C   UNL     1       1.489   6.927  20.584  0.00  0.00    +0.000 A 
ATOM      6  C   UNL     1       1.949   6.022  19.643  0.00  0.00    +0.000 A 
ATOM      7  C   UNL     1       2.379   6.478  18.395  0.00  0.00    +0.000 A 
ATOM      8  C   UNL     1       2.301   7.836  18.078  0.00  0.00    +0.000 A 
ATOM      9  C   UNL     1       1.786   8.746  19.007  0.00  0.00    +0.000 A 
ATOM     10  C   UNL     1       1.662  10.184  18.594  0.00  0.00    +0.000 C 
ATOM     11  O   UNL     1       2.035  10.563  17.489  0.00  0.00    +0.000 OA
ATOM     12  C   UNL     1       1.068  11.062  19.571  0.00  0.00    +0.000 A 
ATOM     13  C   UNL     1       0.695  10.600  20.811  0.00  0.00    +0.000 A 
ATOM     14  O   UNL     1       0.170  11.586  21.576  0.00  0.00    +0.000 OA
ATOM     15  C   UNL     1       0.200  12.712  20.812  0.00  0.00    +0.000 A 
ATOM     16  C   UNL     1      -0.245  13.964  21.222  0.00  0.00    +0.000 A 
ATOM     17  C   UNL     1      -0.123  14.999  20.293  0.00  0.00    +0.000 A 
ATOM     18  C   UNL     1       0.416  14.773  19.020  0.00  0.00    +0.000 A 
ATOM     19  C   UNL     1       0.853  13.497  18.637  0.00  0.00    +0.000 A 
ATOM     20  C   UNL     1       0.745  12.442  19.558  0.00  0.00    +0.000 A 
ENDROOT
BRANCH   6  21
ATOM     21  O   UNL     1       1.895   4.727  20.080  0.00  0.00    +0.000 OA
BRANCH  21  22
ATOM     22  C   UNL     1       3.053   3.976  19.773  0.00  0.00    +0.000 C 
BRANCH  22  23
ATOM     23  C   UNL     1       4.303   4.851  19.895  0.00  0.00    +0.000 C 
BRANCH  23  24
ATOM     24  N   UNL     1       5.395   4.279  19.100  0.00  0.00    +0.000 NA
ATOM     25  C   UNL     1       4.950   3.709  17.812  0.00  0.00    +0.000 C 
ATOM     26  C   UNL     1       4.680   4.751  16.716  0.00  0.00    +0.000 C 
ATOM     27  N   UNL     1       5.893   5.572  16.451  0.00  0.00    +0.000 NA
ATOM     28  C   UNL     1       6.335   6.231  17.727  0.00  0.00    +0.000 C 
ATOM     29  C   UNL     1       6.510   5.226  18.888  0.00  0.00    +0.000 C 
BRANCH  27  30
ATOM     30  S   UNL     1       7.123   4.850  15.521  0.00  0.00    +0.000 S 
ATOM     31  C   UNL     1       6.204   3.742  14.466  0.00  0.00    +0.000 C 
ATOM     32  O   UNL     1       7.687   5.878  14.675  0.00  0.00    +0.000 OA
ATOM     33  O   UNL     1       7.967   4.050  16.377  0.00  0.00    +0.000 OA
ENDBRANCH  27  30
ENDBRANCH  23  24
ENDBRANCH  22  23
ENDBRANCH  21  22
ENDBRANCH   6  21
TORSDOF 5
ENDMDL
MODEL 9
REMARK VINA RESULT:      -7.8      0.862      1.122
REMARK  Name = 
REMARK  8 active torsions:
REMARK  status: ('A' for Active; 'I' for Inactive)
REMARK    1  A    between atoms: C_1  and  C_2
REMARK    2  A    between atoms: C_2  and  C_3
REMARK    3  A    between atoms: C_6  and  O_7
REMARK    4  A    between atoms: O_7  and  C_8
REMARK    5  A    between atoms: C_8  and  C_9
REMARK    6  A    between atoms: C_9  and  N_10
REMARK    7  A    between atoms: N_13  and  S_14
REMARK    8  A    between atoms: S_14  and  C_15
REMARK                            x       y       z     vdW  Elec       q    Type
REMARK                         _______ _______ _______ _____ _____    ______ ____
ROOT
ATOM      1  C   UNL     1       1.602   8.938  22.536  0.00  0.00    +0.000 C 
ATOM      2  C   UNL     1       0.852   8.711  21.207  0.00  0.00    +0.000 C 
ATOM      3  C   UNL     1      -0.603   8.262  21.453  0.00  0.00    +0.000 C 
ATOM      4  C   UNL     1       0.834  10.013  20.396  0.00  0.00    +0.000 A 
ATOM      5  C   UNL     1       0.303  11.162  20.998  0.00  0.00    +0.000 A 
ATOM      6  C   UNL     1       0.287  12.378  20.337  0.00  0.00    +0.000 A 
ATOM      7  C   UNL     1       0.744  12.457  19.020  0.00  0.00    +0.000 A 
ATOM      8  C   UNL     1       1.263  11.326  18.387  0.00  0.00    +0.000 A 
ATOM      9  C   UNL     1       1.330  10.107  19.071  0.00  0.00    +0.000 A 
ATOM     10  C   UNL     1       1.956   8.937  18.369  0.00  0.00    +0.000 C 
ATOM     11  O   UNL     1       2.364   9.029  17.216  0.00  0.00    +0.000 OA
ATOM     12  C   UNL     1       2.053   7.726  19.146  0.00  0.00    +0.000 A 
ATOM     13  C   UNL     1       1.552   7.658  20.425  0.00  0.00    +0.000 A 
ATOM     14  O   UNL     1       1.738   6.432  20.970  0.00  0.00    +0.000 OA
ATOM     15  C   UNL     1       2.376   5.691  20.024  0.00  0.00    +0.000 A 
ATOM     16  C   UNL     1       2.752   4.361  20.174  0.00  0.00    +0.000 A 
ATOM     17  C   UNL     1       3.393   3.771  19.084  0.00  0.00    +0.000 A 
ATOM     18  C   UNL     1       3.640   4.493  17.909  0.00  0.00    +0.000 A 
ATOM     19  C   UNL     1       3.250   5.835  17.790  0.00  0.00    +0.000 A 
ATOM     20  C   UNL     1       2.599   6.447  18.874  0.00  0.00    +0.000 A 
ENDROOT
BRANCH   6  21
ATOM     21  O   UNL     1      -0.182  13.400  21.116  0.00  0.00    +0.000 OA
BRANCH  21  22
ATOM     22  C   UNL     1      -1.584  13.376  21.302  0.00  0.00    +0.000 C 
BRANCH  22  23
ATOM     23  C   UNL     1      -1.924  13.309  22.792  0.00  0.00    +0.000 C 
BRANCH  23  24
ATOM     24  N   UNL     1      -3.080  14.164  23.082  0.00  0.00    +0.000 NA
ATOM     25  C   UNL     1      -4.122  14.120  22.036  0.00  0.00    +0.000 C 
ATOM     26  C   UNL     1      -5.017  12.872  22.083  0.00  0.00    +0.000 C 
ATOM     27  N   UNL     1      -5.696  12.753  23.402  0.00  0.00    +0.000 NA
ATOM     28  C   UNL     1      -4.662  12.719  24.492  0.00  0.00    +0.000 C 
ATOM     29  C   UNL     1      -3.671  13.902  24.411  0.00  0.00    +0.000 C 
BRANCH  27  30
ATOM     30  S   UNL     1      -7.032  13.773  23.674  0.00  0.00    +0.000 S 
ATOM     31  C   UNL     1      -7.836  13.785  22.082  0.00  0.00    +0.000 C 
ATOM     32  O   UNL     1      -7.916  13.094  24.595  0.00  0.00    +0.000 OA
ATOM     33  O   UNL     1      -6.567  15.113  23.947  0.00  0.00    +0.000 OA
ENDBRANCH  27  30
ENDBRANCH  23  24
ENDBRANCH  22  23
ENDBRANCH  21  22
ENDBRANCH   6  21
TORSDOF 5
ENDMDL
