MODEL 1
REMARK VINA RESULT:      -7.6      0.000      0.000
REMARK  Name = 
REMARK  11 active torsions:
REMARK  status: ('A' for Active; 'I' for Inactive)
REMARK    1  A    between atoms: C_1  and  N_2
REMARK    2  A    between atoms: N_2  and  C_3
REMARK    3  A    between atoms: N_2  and  C_20
REMARK    4  A    between atoms: C_3  and  C_4
REMARK    5  A    between atoms: N_6  and  C_7
REMARK    6  A    between atoms: C_10  and  O_11
REMARK    7  A    between atoms: O_11  and  C_12
REMARK    8  A    between atoms: N_24  and  C_25
REMARK    9  A    between atoms: C_25  and  C_26
REMARK   10  A    between atoms: C_29  and  C_30
REMARK   11  A    between atoms: C_30  and  O_32
REMARK                            x       y       z     vdW  Elec       q    Type
REMARK                         _______ _______ _______ _____ _____    ______ ____
ROOT
ATOM      1  C   UNL     1      -2.375  13.085  20.130  0.00  0.00    +0.000 C 
ATOM      2  N   UNL     1      -0.972  12.867  19.742  0.00  0.00    +0.000 NA
ENDROOT
BRANCH   2   3
ATOM      3  C   UNL     1      -0.183  14.153  19.814  0.00  0.00    +0.000 C 
ATOM      4  C   UNL     1      -0.571  15.156  18.702  0.00  0.00    +0.000 C 
ATOM      5  C   UNL     1       0.114  16.515  18.736  0.00  0.00    +0.000 C 
ATOM      6  C   UNL     1       1.640  16.485  18.663  0.00  0.00    +0.000 C 
ATOM      7  N   UNL     1       2.210  16.247  19.989  0.00  0.00    +0.000 NA
ATOM      8  C   UNL     1       2.275  14.831  20.383  0.00  0.00    +0.000 C 
ATOM      9  C   UNL     1       1.316  13.812  19.766  0.00  0.00    +0.000 C 
BRANCH   7  10
ATOM     10  C   UNL     1       3.569  16.821  20.114  0.00  0.00    +0.000 C 
BRANCH  10  11
ATOM     11  C   UNL     1       4.704  15.961  19.586  0.00  0.00    +0.000 A 
ATOM     12  C   UNL     1       4.736  15.547  18.248  0.00  0.00    +0.000 A 
ATOM     13  C   UNL     1       5.839  14.844  17.751  0.00  0.00    +0.000 A 
ATOM     14  C   UNL     1       6.922  14.533  18.586  0.00  0.00    +0.000 A 
ATOM     15  C   UNL     1       6.887  14.933  19.924  0.00  0.00    +0.000 A 
ATOM     16  C   UNL     1       5.787  15.638  20.420  0.00  0.00    +0.000 A 
BRANCH  14  17
ATOM     17  C   UNL     1       8.147  13.846  18.091  0.00  0.00    +0.000 C 
ATOM     18  O   UNL     1       9.207  13.866  18.694  0.00  0.00    +0.000 OA
BRANCH  17  19
ATOM     19  O   UNL     1       7.965  13.165  16.940  0.00  0.00    +0.000 OA
ATOM     20  H   UNL     1       7.059  13.220  16.580  0.00  0.00    +0.000 HD
ENDBRANCH  17  19
ENDBRANCH  14  17
ENDBRANCH  10  11
ENDBRANCH   7  10
ENDBRANCH   2   3
BRANCH   2  21
ATOM     21  C   UNL     1      -0.888  12.242  18.392  0.00  0.00    +0.000 C 
BRANCH  21  22
ATOM     22  C   UNL     1      -0.438  10.788  18.405  0.00  0.00    +0.000 C 
ATOM     23  O   UNL     1      -1.084   9.926  17.810  0.00  0.00    +0.000 OA
ATOM     24  N   UNL     1       0.740  10.568  19.089  0.00  0.00    +0.000 N 
ATOM     25  H   UNL     1       0.925  11.245  19.822  0.00  0.00    +0.000 HD
BRANCH  24  26
ATOM     26  C   UNL     1       1.359   9.308  19.151  0.00  0.00    +0.000 A 
ATOM     27  C   UNL     1       2.034   8.755  18.054  0.00  0.00    +0.000 A 
ATOM     28  C   UNL     1       2.675   7.520  18.170  0.00  0.00    +0.000 A 
ATOM     29  C   UNL     1       2.605   6.816  19.371  0.00  0.00    +0.000 A 
ATOM     30  C   UNL     1       1.852   7.330  20.433  0.00  0.00    +0.000 A 
ATOM     31  C   UNL     1       1.290   8.602  20.348  0.00  0.00    +0.000 A 
BRANCH  29  32
ATOM     32  O   UNL     1       3.269   5.609  19.409  0.00  0.00    +0.000 OA
BRANCH  32  33
ATOM     33  C   UNL     1       2.557   4.441  19.235  0.00  0.00    +0.000 A 
ATOM     34  C   UNL     1       2.883   3.690  18.105  0.00  0.00    +0.000 A 
ATOM     35  C   UNL     1       2.186   2.513  17.819  0.00  0.00    +0.000 A 
ATOM     36  C   UNL     1       1.157   2.087  18.660  0.00  0.00    +0.000 A 
ATOM     37  C   UNL     1       0.855   2.815  19.810  0.00  0.00    +0.000 A 
ATOM     38  C   UNL     1       1.578   3.967  20.116  0.00  0.00    +0.000 A 
ENDBRANCH  32  33
ENDBRANCH  29  32
ENDBRANCH  24  26
ENDBRANCH  21  22
ENDBRANCH   2  21
TORSDOF 10
ENDMDL
MODEL 2
REMARK VINA RESULT:      -7.5      1.985      3.019
REMARK  Name = 
REMARK  11 active torsions:
REMARK  status: ('A' for Active; 'I' for Inactive)
REMARK    1  A    between atoms: C_1  and  N_2
REMARK    2  A    between atoms: N_2  and  C_3
REMARK    3  A    between atoms: N_2  and  C_20
REMARK    4  A    between atoms: C_3  and  C_4
REMARK    5  A    between atoms: N_6  and  C_7
REMARK    6  A    between atoms: C_10  and  O_11
REMARK    7  A    between atoms: O_11  and  C_12
REMARK    8  A    between atoms: N_24  and  C_25
REMARK    9  A    between atoms: C_25  and  C_26
REMARK   10  A    between atoms: C_29  and  C_30
REMARK   11  A    between atoms: C_30  and  O_32
REMARK                            x       y       z     vdW  Elec       q    Type
REMARK                         _______ _______ _______ _____ _____    ______ ____
ROOT
ATOM      1  C   UNL     1      -0.129  12.739  18.092  0.00  0.00    +0.000 C 
ATOM      2  N   UNL     1       0.190  13.165  19.464  0.00  0.00    +0.000 NA
ENDROOT
BRANCH   2   3
ATOM      3  C   UNL     1       1.659  13.485  19.606  0.00  0.00    +0.000 C 
ATOM      4  C   UNL     1       2.047  13.882  21.049  0.00  0.00    +0.000 C 
ATOM      5  C   UNL     1       3.523  14.149  21.312  0.00  0.00    +0.000 C 
ATOM      6  C   UNL     1       4.156  15.250  20.463  0.00  0.00    +0.000 C 
ATOM      7  N   UNL     1       4.559  14.722  19.160  0.00  0.00    +0.000 NA
ATOM      8  C   UNL     1       3.481  14.671  18.160  0.00  0.00    +0.000 C 
ATOM      9  C   UNL     1       2.020  14.591  18.600  0.00  0.00    +0.000 C 
BRANCH   7  10
ATOM     10  C   UNL     1       5.687  15.488  18.582  0.00  0.00    +0.000 C 
BRANCH  10  11
ATOM     11  C   UNL     1       6.959  14.701  18.321  0.00  0.00    +0.000 A 
ATOM     12  C   UNL     1       6.929  13.488  17.622  0.00  0.00    +0.000 A 
ATOM     13  C   UNL     1       8.120  12.827  17.299  0.00  0.00    +0.000 A 
ATOM     14  C   UNL     1       9.358  13.362  17.681  0.00  0.00    +0.000 A 
ATOM     15  C   UNL     1       9.391  14.566  18.390  0.00  0.00    +0.000 A 
ATOM     16  C   UNL     1       8.202  15.227  18.710  0.00  0.00    +0.000 A 
BRANCH  14  17
ATOM     17  C   UNL     1      10.656  12.735  17.304  0.00  0.00    +0.000 C 
ATOM     18  O   UNL     1      11.411  13.219  16.479  0.00  0.00    +0.000 OA
BRANCH  17  19
ATOM     19  O   UNL     1      10.938  11.610  17.993  0.00  0.00    +0.000 OA
ATOM     20  H   UNL     1      11.522  11.745  18.764  0.00  0.00    +0.000 HD
ENDBRANCH  17  19
ENDBRANCH  14  17
ENDBRANCH  10  11
ENDBRANCH   7  10
ENDBRANCH   2   3
BRANCH   2  21
ATOM     21  C   UNL     1      -0.252  12.141  20.452  0.00  0.00    +0.000 C 
BRANCH  21  22
ATOM     22  C   UNL     1      -0.066  10.704  19.985  0.00  0.00    +0.000 C 
ATOM     23  O   UNL     1      -0.990  10.096  19.446  0.00  0.00    +0.000 OA
ATOM     24  N   UNL     1       1.204  10.205  20.187  0.00  0.00    +0.000 N 
ATOM     25  H   UNL     1       1.702  10.639  20.957  0.00  0.00    +0.000 HD
BRANCH  24  26
ATOM     26  C   UNL     1       1.595   8.926  19.754  0.00  0.00    +0.000 A 
ATOM     27  C   UNL     1       2.006   8.677  18.438  0.00  0.00    +0.000 A 
ATOM     28  C   UNL     1       2.429   7.402  18.061  0.00  0.00    +0.000 A 
ATOM     29  C   UNL     1       2.404   6.362  18.990  0.00  0.00    +0.000 A 
ATOM     30  C   UNL     1       1.906   6.595  20.277  0.00  0.00    +0.000 A 
ATOM     31  C   UNL     1       1.569   7.886  20.679  0.00  0.00    +0.000 A 
BRANCH  29  32
ATOM     32  O   UNL     1       2.844   5.136  18.544  0.00  0.00    +0.000 OA
BRANCH  32  33
ATOM     33  C   UNL     1       4.163   4.986  18.170  0.00  0.00    +0.000 A 
ATOM     34  C   UNL     1       5.113   5.311  19.139  0.00  0.00    +0.000 A 
ATOM     35  C   UNL     1       6.475   5.234  18.840  0.00  0.00    +0.000 A 
ATOM     36  C   UNL     1       6.891   4.837  17.569  0.00  0.00    +0.000 A 
ATOM     37  C   UNL     1       5.946   4.476  16.611  0.00  0.00    +0.000 A 
ATOM     38  C   UNL     1       4.587   4.513  16.923  0.00  0.00    +0.000 A 
ENDBRANCH  32  33
ENDBRANCH  29  32
ENDBRANCH  24  26
ENDBRANCH  21  22
ENDBRANCH   2  21
TORSDOF 10
ENDMDL
MODEL 3
REMARK VINA RESULT:      -7.4      2.231      3.210
REMARK  Name = 
REMARK  11 active torsions:
REMARK  status: ('A' for Active; 'I' for Inactive)
REMARK    1  A    between atoms: C_1  and  N_2
REMARK    2  A    between atoms: N_2  and  C_3
REMARK    3  A    between atoms: N_2  and  C_20
REMARK    4  A    between atoms: C_3  and  C_4
REMARK    5  A    between atoms: N_6  and  C_7
REMARK    6  A    between atoms: C_10  and  O_11
REMARK    7  A    between atoms: O_11  and  C_12
REMARK    8  A    between atoms: N_24  and  C_25
REMARK    9  A    between atoms: C_25  and  C_26
REMARK   10  A    between atoms: C_29  and  C_30
REMARK   11  A    between atoms: C_30  and  O_32
REMARK                            x       y       z     vdW  Elec       q    Type
REMARK                         _______ _______ _______ _____ _____    ______ ____
ROOT
ATOM      1  C   UNL     1      -1.145  10.658  19.581  0.00  0.00    +0.000 C 
ATOM      2  N   UNL     1      -0.707  11.355  20.801  0.00  0.00    +0.000 NA
ENDROOT
BRANCH   2   3
ATOM      3  C   UNL     1       0.425  12.311  20.504  0.00  0.00    +0.000 C 
ATOM      4  C   UNL     1       0.482  13.496  21.495  0.00  0.00    +0.000 C 
ATOM      5  C   UNL     1       1.636  14.475  21.327  0.00  0.00    +0.000 C 
ATOM      6  C   UNL     1       1.729  15.154  19.962  0.00  0.00    +0.000 C 
ATOM      7  N   UNL     1       2.421  14.288  19.007  0.00  0.00    +0.000 NA
ATOM      8  C   UNL     1       1.565  13.280  18.363  0.00  0.00    +0.000 C 
ATOM      9  C   UNL     1       0.288  12.796  19.051  0.00  0.00    +0.000 C 
BRANCH   7  10
ATOM     10  C   UNL     1       3.090  15.070  17.942  0.00  0.00    +0.000 C 
BRANCH  10  11
ATOM     11  C   UNL     1       4.541  15.436  18.199  0.00  0.00    +0.000 A 
ATOM     12  C   UNL     1       5.582  14.583  17.811  0.00  0.00    +0.000 A 
ATOM     13  C   UNL     1       6.916  14.981  17.960  0.00  0.00    +0.000 A 
ATOM     14  C   UNL     1       7.230  16.231  18.511  0.00  0.00    +0.000 A 
ATOM     15  C   UNL     1       6.194  17.079  18.912  0.00  0.00    +0.000 A 
ATOM     16  C   UNL     1       4.862  16.683  18.759  0.00  0.00    +0.000 A 
BRANCH  14  17
ATOM     17  C   UNL     1       8.628  16.729  18.629  0.00  0.00    +0.000 C 
ATOM     18  O   UNL     1       8.921  17.909  18.545  0.00  0.00    +0.000 OA
BRANCH  17  19
ATOM     19  O   UNL     1       9.533  15.760  18.883  0.00  0.00    +0.000 OA
ATOM     20  H   UNL     1      10.421  16.090  19.119  0.00  0.00    +0.000 HD
ENDBRANCH  17  19
ENDBRANCH  14  17
ENDBRANCH  10  11
ENDBRANCH   7  10
ENDBRANCH   2   3
BRANCH   2  21
ATOM     21  C   UNL     1      -0.342  10.379  21.865  0.00  0.00    +0.000 C 
BRANCH  21  22
ATOM     22  C   UNL     1       0.073   9.011  21.341  0.00  0.00    +0.000 C 
ATOM     23  O   UNL     1      -0.671   8.038  21.471  0.00  0.00    +0.000 OA
ATOM     24  N   UNL     1       1.294   8.999  20.700  0.00  0.00    +0.000 N 
ATOM     25  H   UNL     1       1.932   9.725  21.010  0.00  0.00    +0.000 HD
BRANCH  24  26
ATOM     26  C   UNL     1       1.815   7.850  20.081  0.00  0.00    +0.000 A 
ATOM     27  C   UNL     1       1.921   6.625  20.753  0.00  0.00    +0.000 A 
ATOM     28  C   UNL     1       2.402   5.496  20.088  0.00  0.00    +0.000 A 
ATOM     29  C   UNL     1       2.818   5.599  18.762  0.00  0.00    +0.000 A 
ATOM     30  C   UNL     1       2.796   6.845  18.124  0.00  0.00    +0.000 A 
ATOM     31  C   UNL     1       2.232   7.951  18.757  0.00  0.00    +0.000 A 
BRANCH  29  32
ATOM     32  O   UNL     1       3.273   4.440  18.173  0.00  0.00    +0.000 OA
BRANCH  32  33
ATOM     33  C   UNL     1       4.524   4.422  17.594  0.00  0.00    +0.000 A 
ATOM     34  C   UNL     1       5.600   4.641  18.456  0.00  0.00    +0.000 A 
ATOM     35  C   UNL     1       6.903   4.685  17.955  0.00  0.00    +0.000 A 
ATOM     36  C   UNL     1       7.134   4.516  16.589  0.00  0.00    +0.000 A 
ATOM     37  C   UNL     1       6.066   4.260  15.732  0.00  0.00    +0.000 A 
ATOM     38  C   UNL     1       4.769   4.175  16.238  0.00  0.00    +0.000 A 
ENDBRANCH  32  33
ENDBRANCH  29  32
ENDBRANCH  24  26
ENDBRANCH  21  22
ENDBRANCH   2  21
TORSDOF 10
ENDMDL
MODEL 4
REMARK VINA RESULT:      -7.3      1.360      2.092
REMARK  Name = 
REMARK  11 active torsions:
REMARK  status: ('A' for Active; 'I' for Inactive)
REMARK    1  A    between atoms: C_1  and  N_2
REMARK    2  A    between atoms: N_2  and  C_3
REMARK    3  A    between atoms: N_2  and  C_20
REMARK    4  A    between atoms: C_3  and  C_4
REMARK    5  A    between atoms: N_6  and  C_7
REMARK    6  A    between atoms: C_10  and  O_11
REMARK    7  A    between atoms: O_11  and  C_12
REMARK    8  A    between atoms: N_24  and  C_25
REMARK    9  A    between atoms: C_25  and  C_26
REMARK   10  A    between atoms: C_29  and  C_30
REMARK   11  A    between atoms: C_30  and  O_32
REMARK                            x       y       z     vdW  Elec       q    Type
REMARK                         _______ _______ _______ _____ _____    ______ ____
ROOT
ATOM      1  C   UNL     1      -0.510  13.361  18.182  0.00  0.00    +0.000 C 
ATOM      2  N   UNL     1      -0.275  13.656  19.605  0.00  0.00    +0.000 NA
ENDROOT
BRANCH   2   3
ATOM      3  C   UNL     1       1.187  13.922  19.871  0.00  0.00    +0.000 C 
ATOM      4  C   UNL     1       1.459  14.371  21.326  0.00  0.00    +0.000 C 
ATOM      5  C   UNL     1       2.915  14.589  21.715  0.00  0.00    +0.000 C 
ATOM      6  C   UNL     1       3.671  15.622  20.882  0.00  0.00    +0.000 C 
ATOM      7  N   UNL     1       4.169  15.017  19.647  0.00  0.00    +0.000 NA
ATOM      8  C   UNL     1       3.187  14.964  18.553  0.00  0.00    +0.000 C 
ATOM      9  C   UNL     1       1.689  14.963  18.857  0.00  0.00    +0.000 C 
BRANCH   7  10
ATOM     10  C   UNL     1       5.379  15.709  19.145  0.00  0.00    +0.000 C 
BRANCH  10  11
ATOM     11  C   UNL     1       6.608  14.838  18.951  0.00  0.00    +0.000 A 
ATOM     12  C   UNL     1       6.913  14.286  17.701  0.00  0.00    +0.000 A 
ATOM     13  C   UNL     1       8.104  13.574  17.513  0.00  0.00    +0.000 A 
ATOM     14  C   UNL     1       9.000  13.392  18.575  0.00  0.00    +0.000 A 
ATOM     15  C   UNL     1       8.693  13.930  19.827  0.00  0.00    +0.000 A 
ATOM     16  C   UNL     1       7.505  14.644  20.014  0.00  0.00    +0.000 A 
BRANCH  14  17
ATOM     17  C   UNL     1      10.310  12.701  18.412  0.00  0.00    +0.000 C 
ATOM     18  O   UNL     1      11.365  13.300  18.295  0.00  0.00    +0.000 OA
BRANCH  17  19
ATOM     19  O   UNL     1      10.225  11.354  18.451  0.00  0.00    +0.000 OA
ATOM     20  H   UNL     1       9.397  10.992  18.080  0.00  0.00    +0.000 HD
ENDBRANCH  17  19
ENDBRANCH  14  17
ENDBRANCH  10  11
ENDBRANCH   7  10
ENDBRANCH   2   3
BRANCH   2  21
ATOM     21  C   UNL     1      -0.804  12.561  20.466  0.00  0.00    +0.000 C 
BRANCH  21  22
ATOM     22  C   UNL     1      -0.491  11.161  19.957  0.00  0.00    +0.000 C 
ATOM     23  O   UNL     1      -1.352  10.496  19.381  0.00  0.00    +0.000 OA
ATOM     24  N   UNL     1       0.814  10.764  20.166  0.00  0.00    +0.000 N 
ATOM     25  H   UNL     1       1.261  11.212  20.958  0.00  0.00    +0.000 HD
BRANCH  24  26
ATOM     26  C   UNL     1       1.318   9.537  19.700  0.00  0.00    +0.000 A 
ATOM     27  C   UNL     1       1.720   9.353  18.370  0.00  0.00    +0.000 A 
ATOM     28  C   UNL     1       2.257   8.132  17.959  0.00  0.00    +0.000 A 
ATOM     29  C   UNL     1       2.356   7.079  18.868  0.00  0.00    +0.000 A 
ATOM     30  C   UNL     1       1.868   7.240  20.170  0.00  0.00    +0.000 A 
ATOM     31  C   UNL     1       1.416   8.484  20.605  0.00  0.00    +0.000 A 
BRANCH  29  32
ATOM     32  O   UNL     1       2.904   5.910  18.388  0.00  0.00    +0.000 OA
BRANCH  32  33
ATOM     33  C   UNL     1       2.405   4.701  18.826  0.00  0.00    +0.000 A 
ATOM     34  C   UNL     1       2.909   4.238  20.043  0.00  0.00    +0.000 A 
ATOM     35  C   UNL     1       2.497   3.001  20.547  0.00  0.00    +0.000 A 
ATOM     36  C   UNL     1       1.585   2.223  19.834  0.00  0.00    +0.000 A 
ATOM     37  C   UNL     1       1.052   2.700  18.638  0.00  0.00    +0.000 A 
ATOM     38  C   UNL     1       1.432   3.952  18.155  0.00  0.00    +0.000 A 
ENDBRANCH  32  33
ENDBRANCH  29  32
ENDBRANCH  24  26
ENDBRANCH  21  22
ENDBRANCH   2  21
TORSDOF 10
ENDMDL
MODEL 5
REMARK VINA RESULT:      -7.2      4.399      9.409
REMARK  Name = 
REMARK  11 active torsions:
REMARK  status: ('A' for Active; 'I' for Inactive)
REMARK    1  A    between atoms: C_1  and  N_2
REMARK    2  A    between atoms: N_2  and  C_3
REMARK    3  A    between atoms: N_2  and  C_20
REMARK    4  A    between atoms: C_3  and  C_4
REMARK    5  A    between atoms: N_6  and  C_7
REMARK    6  A    between atoms: C_10  and  O_11
REMARK    7  A    between atoms: O_11  and  C_12
REMARK    8  A    between atoms: N_24  and  C_25
REMARK    9  A    between atoms: C_25  and  C_26
REMARK   10  A    between atoms: C_29  and  C_30
REMARK   11  A    between atoms: C_30  and  O_32
REMARK                            x       y       z     vdW  Elec       q    Type
REMARK                         _______ _______ _______ _____ _____    ______ ____
ROOT
ATOM      1  C   UNL     1       0.242  17.876  20.092  0.00  0.00    +0.000 C 
ATOM      2  N   UNL     1       0.748  16.542  19.729  0.00  0.00    +0.000 NA
ENDROOT
BRANCH   2   3
ATOM      3  C   UNL     1      -0.356  15.513  19.769  0.00  0.00    +0.000 C 
ATOM      4  C   UNL     1      -1.105  15.491  21.122  0.00  0.00    +0.000 C 
ATOM      5  C   UNL     1      -2.288  14.539  21.235  0.00  0.00    +0.000 C 
ATOM      6  C   UNL     1      -1.973  13.065  20.984  0.00  0.00    +0.000 C 
ATOM      7  N   UNL     1      -1.974  12.779  19.550  0.00  0.00    +0.000 NA
ATOM      8  C   UNL     1      -0.711  13.089  18.863  0.00  0.00    +0.000 C 
ATOM      9  C   UNL     1       0.245  14.137  19.435  0.00  0.00    +0.000 C 
BRANCH   7  10
ATOM     10  C   UNL     1      -2.313  11.365  19.272  0.00  0.00    +0.000 C 
BRANCH  10  11
ATOM     11  C   UNL     1      -2.549  11.013  17.814  0.00  0.00    +0.000 A 
ATOM     12  C   UNL     1      -1.784  10.029  17.174  0.00  0.00    +0.000 A 
ATOM     13  C   UNL     1      -2.082   9.643  15.862  0.00  0.00    +0.000 A 
ATOM     14  C   UNL     1      -3.141  10.242  15.166  0.00  0.00    +0.000 A 
ATOM     15  C   UNL     1      -3.898  11.233  15.796  0.00  0.00    +0.000 A 
ATOM     16  C   UNL     1      -3.602  11.616  17.108  0.00  0.00    +0.000 A 
BRANCH  14  17
ATOM     17  C   UNL     1      -3.542   9.821  13.794  0.00  0.00    +0.000 C 
ATOM     18  O   UNL     1      -4.700   9.616  13.476  0.00  0.00    +0.000 OA
BRANCH  17  19
ATOM     19  O   UNL     1      -2.511   9.730  12.928  0.00  0.00    +0.000 OA
ATOM     20  H   UNL     1      -2.776   9.690  11.989  0.00  0.00    +0.000 HD
ENDBRANCH  17  19
ENDBRANCH  14  17
ENDBRANCH  10  11
ENDBRANCH   7  10
ENDBRANCH   2   3
BRANCH   2  21
ATOM     21  C   UNL     1       1.895  16.158  20.600  0.00  0.00    +0.000 C 
BRANCH  21  22
ATOM     22  C   UNL     1       3.258  16.316  19.942  0.00  0.00    +0.000 C 
ATOM     23  O   UNL     1       3.625  17.410  19.514  0.00  0.00    +0.000 OA
ATOM     24  N   UNL     1       4.012  15.161  19.923  0.00  0.00    +0.000 N 
ATOM     25  H   UNL     1       3.464  14.308  19.934  0.00  0.00    +0.000 HD
BRANCH  24  26
ATOM     26  C   UNL     1       5.328  15.122  19.428  0.00  0.00    +0.000 A 
ATOM     27  C   UNL     1       6.433  15.447  20.225  0.00  0.00    +0.000 A 
ATOM     28  C   UNL     1       7.727  15.351  19.708  0.00  0.00    +0.000 A 
ATOM     29  C   UNL     1       7.915  14.969  18.381  0.00  0.00    +0.000 A 
ATOM     30  C   UNL     1       6.803  14.734  17.564  0.00  0.00    +0.000 A 
ATOM     31  C   UNL     1       5.518  14.741  18.103  0.00  0.00    +0.000 A 
BRANCH  29  32
ATOM     32  O   UNL     1       9.220  14.890  17.949  0.00  0.00    +0.000 OA
BRANCH  32  33
ATOM     33  C   UNL     1      10.008  13.839  18.366  0.00  0.00    +0.000 A 
ATOM     34  C   UNL     1       9.739  12.602  17.776  0.00  0.00    +0.000 A 
ATOM     35  C   UNL     1      10.455  11.468  18.167  0.00  0.00    +0.000 A 
ATOM     36  C   UNL     1      11.439  11.566  19.151  0.00  0.00    +0.000 A 
ATOM     37  C   UNL     1      11.736  12.806  19.714  0.00  0.00    +0.000 A 
ATOM     38  C   UNL     1      11.049  13.945  19.295  0.00  0.00    +0.000 A 
ENDBRANCH  32  33
ENDBRANCH  29  32
ENDBRANCH  24  26
ENDBRANCH  21  22
ENDBRANCH   2  21
TORSDOF 10
ENDMDL
MODEL 6
REMARK VINA RESULT:      -7.2      2.227      3.382
REMARK  Name = 
REMARK  11 active torsions:
REMARK  status: ('A' for Active; 'I' for Inactive)
REMARK    1  A    between atoms: C_1  and  N_2
REMARK    2  A    between atoms: N_2  and  C_3
REMARK    3  A    between atoms: N_2  and  C_20
REMARK    4  A    between atoms: C_3  and  C_4
REMARK    5  A    between atoms: N_6  and  C_7
REMARK    6  A    between atoms: C_10  and  O_11
REMARK    7  A    between atoms: O_11  and  C_12
REMARK    8  A    between atoms: N_24  and  C_25
REMARK    9  A    between atoms: C_25  and  C_26
REMARK   10  A    between atoms: C_29  and  C_30
REMARK   11  A    between atoms: C_30  and  O_32
REMARK                            x       y       z     vdW  Elec       q    Type
REMARK                         _______ _______ _______ _____ _____    ______ ____
ROOT
ATOM      1  C   UNL     1       0.124  12.674  18.569  0.00  0.00    +0.000 C 
ATOM      2  N   UNL     1       0.350  13.111  19.956  0.00  0.00    +0.000 NA
ENDROOT
BRANCH   2   3
ATOM      3  C   UNL     1       1.774  13.574  20.154  0.00  0.00    +0.000 C 
ATOM      4  C   UNL     1       1.955  14.416  21.438  0.00  0.00    +0.000 C 
ATOM      5  C   UNL     1       3.372  14.866  21.768  0.00  0.00    +0.000 C 
ATOM      6  C   UNL     1       4.062  15.709  20.697  0.00  0.00    +0.000 C 
ATOM      7  N   UNL     1       4.652  14.848  19.672  0.00  0.00    +0.000 NA
ATOM      8  C   UNL     1       3.717  14.414  18.623  0.00  0.00    +0.000 C 
ATOM      9  C   UNL     1       2.215  14.353  18.903  0.00  0.00    +0.000 C 
BRANCH   7  10
ATOM     10  C   UNL     1       5.812  15.493  19.015  0.00  0.00    +0.000 C 
BRANCH  10  11
ATOM     11  C   UNL     1       7.084  14.666  18.952  0.00  0.00    +0.000 A 
ATOM     12  C   UNL     1       7.899  14.504  20.079  0.00  0.00    +0.000 A 
ATOM     13  C   UNL     1       9.011  13.655  20.033  0.00  0.00    +0.000 A 
ATOM     14  C   UNL     1       9.332  12.964  18.857  0.00  0.00    +0.000 A 
ATOM     15  C   UNL     1       8.529  13.132  17.726  0.00  0.00    +0.000 A 
ATOM     16  C   UNL     1       7.416  13.978  17.773  0.00  0.00    +0.000 A 
BRANCH  14  17
ATOM     17  C   UNL     1      10.463  11.998  18.775  0.00  0.00    +0.000 C 
ATOM     18  O   UNL     1      11.289  11.868  19.662  0.00  0.00    +0.000 OA
BRANCH  17  19
ATOM     19  O   UNL     1      10.461  11.250  17.652  0.00  0.00    +0.000 OA
ATOM     20  H   UNL     1      11.138  11.506  16.996  0.00  0.00    +0.000 HD
ENDBRANCH  17  19
ENDBRANCH  14  17
ENDBRANCH  10  11
ENDBRANCH   7  10
ENDBRANCH   2   3
BRANCH   2  21
ATOM     21  C   UNL     1      -0.020  12.034  20.916  0.00  0.00    +0.000 C 
BRANCH  21  22
ATOM     22  C   UNL     1       0.885  10.811  20.861  0.00  0.00    +0.000 C 
ATOM     23  O   UNL     1       1.682  10.580  21.770  0.00  0.00    +0.000 OA
ATOM     24  N   UNL     1       0.686  10.012  19.755  0.00  0.00    +0.000 N 
ATOM     25  H   UNL     1       0.320  10.506  18.947  0.00  0.00    +0.000 HD
BRANCH  24  26
ATOM     26  C   UNL     1       1.369   8.799  19.561  0.00  0.00    +0.000 A 
ATOM     27  C   UNL     1       1.403   7.798  20.542  0.00  0.00    +0.000 A 
ATOM     28  C   UNL     1       2.055   6.589  20.293  0.00  0.00    +0.000 A 
ATOM     29  C   UNL     1       2.709   6.394  19.078  0.00  0.00    +0.000 A 
ATOM     30  C   UNL     1       2.751   7.431  18.139  0.00  0.00    +0.000 A 
ATOM     31  C   UNL     1       2.025   8.602  18.349  0.00  0.00    +0.000 A 
BRANCH  29  32
ATOM     32  O   UNL     1       3.322   5.173  18.905  0.00  0.00    +0.000 OA
BRANCH  32  33
ATOM     33  C   UNL     1       4.603   5.126  18.397  0.00  0.00    +0.000 A 
ATOM     34  C   UNL     1       5.621   5.513  19.271  0.00  0.00    +0.000 A 
ATOM     35  C   UNL     1       6.948   5.540  18.834  0.00  0.00    +0.000 A 
ATOM     36  C   UNL     1       7.260   5.186  17.521  0.00  0.00    +0.000 A 
ATOM     37  C   UNL     1       6.251   4.763  16.658  0.00  0.00    +0.000 A 
ATOM     38  C   UNL     1       4.932   4.696  17.107  0.00  0.00    +0.000 A 
ENDBRANCH  32  33
ENDBRANCH  29  32
ENDBRANCH  24  26
ENDBRANCH  21  22
ENDBRANCH   2  21
TORSDOF 10
ENDMDL
MODEL 7
REMARK VINA RESULT:      -7.2      1.072      1.706
REMARK  Name = 
REMARK  11 active torsions:
REMARK  status: ('A' for Active; 'I' for Inactive)
REMARK    1  A    between atoms: C_1  and  N_2
REMARK    2  A    between atoms: N_2  and  C_3
REMARK    3  A    between atoms: N_2  and  C_20
REMARK    4  A    between atoms: C_3  and  C_4
REMARK    5  A    between atoms: N_6  and  C_7
REMARK    6  A    between atoms: C_10  and  O_11
REMARK    7  A    between atoms: O_11  and  C_12
REMARK    8  A    between atoms: N_24  and  C_25
REMARK    9  A    between atoms: C_25  and  C_26
REMARK   10  A    between atoms: C_29  and  C_30
REMARK   11  A    between atoms: C_30  and  O_32
REMARK                            x       y       z     vdW  Elec       q    Type
REMARK                         _______ _______ _______ _____ _____    ______ ____
ROOT
ATOM      1  C   UNL     1      -1.524  13.614  20.563  0.00  0.00    +0.000 C 
ATOM      2  N   UNL     1      -0.299  13.142  19.897  0.00  0.00    +0.000 NA
ENDROOT
BRANCH   2   3
ATOM      3  C   UNL     1       0.709  14.259  19.758  0.00  0.00    +0.000 C 
ATOM      4  C   UNL     1       0.049  15.627  19.468  0.00  0.00    +0.000 C 
ATOM      5  C   UNL     1       0.976  16.831  19.386  0.00  0.00    +0.000 C 
ATOM      6  C   UNL     1       2.079  16.744  18.332  0.00  0.00    +0.000 C 
ATOM      7  N   UNL     1       3.221  15.991  18.850  0.00  0.00    +0.000 NA
ATOM      8  C   UNL     1       3.096  14.530  18.733  0.00  0.00    +0.000 C 
ATOM      9  C   UNL     1       1.716  13.875  18.661  0.00  0.00    +0.000 C 
BRANCH   7  10
ATOM     10  C   UNL     1       4.487  16.397  18.197  0.00  0.00    +0.000 C 
BRANCH  10  11
ATOM     11  C   UNL     1       5.701  15.543  18.515  0.00  0.00    +0.000 A 
ATOM     12  C   UNL     1       6.267  14.701  17.550  0.00  0.00    +0.000 A 
ATOM     13  C   UNL     1       7.447  14.000  17.825  0.00  0.00    +0.000 A 
ATOM     14  C   UNL     1       8.072  14.119  19.073  0.00  0.00    +0.000 A 
ATOM     15  C   UNL     1       7.504  14.948  20.044  0.00  0.00    +0.000 A 
ATOM     16  C   UNL     1       6.327  15.652  19.768  0.00  0.00    +0.000 A 
BRANCH  14  17
ATOM     17  C   UNL     1       9.363  13.449  19.394  0.00  0.00    +0.000 C 
ATOM     18  O   UNL     1       9.900  12.652  18.644  0.00  0.00    +0.000 OA
BRANCH  17  19
ATOM     19  O   UNL     1       9.903  13.838  20.568  0.00  0.00    +0.000 OA
ATOM     20  H   UNL     1       9.415  14.554  21.018  0.00  0.00    +0.000 HD
ENDBRANCH  17  19
ENDBRANCH  14  17
ENDBRANCH  10  11
ENDBRANCH   7  10
ENDBRANCH   2   3
BRANCH   2  21
ATOM     21  C   UNL     1      -0.619  12.518  18.583  0.00  0.00    +0.000 C 
BRANCH  21  22
ATOM     22  C   UNL     1      -0.225  11.052  18.476  0.00  0.00    +0.000 C 
ATOM     23  O   UNL     1      -0.912  10.264  17.827  0.00  0.00    +0.000 OA
ATOM     24  N   UNL     1       0.953  10.736  19.121  0.00  0.00    +0.000 N 
ATOM     25  H   UNL     1       1.175  11.346  19.901  0.00  0.00    +0.000 HD
BRANCH  24  26
ATOM     26  C   UNL     1       1.523   9.452  19.074  0.00  0.00    +0.000 A 
ATOM     27  C   UNL     1       1.478   8.576  20.167  0.00  0.00    +0.000 A 
ATOM     28  C   UNL     1       2.017   7.292  20.064  0.00  0.00    +0.000 A 
ATOM     29  C   UNL     1       2.639   6.897  18.881  0.00  0.00    +0.000 A 
ATOM     30  C   UNL     1       2.763   7.807  17.825  0.00  0.00    +0.000 A 
ATOM     31  C   UNL     1       2.146   9.055  17.894  0.00  0.00    +0.000 A 
BRANCH  29  32
ATOM     32  O   UNL     1       3.139   5.613  18.855  0.00  0.00    +0.000 OA
BRANCH  32  33
ATOM     33  C   UNL     1       2.407   4.592  19.422  0.00  0.00    +0.000 A 
ATOM     34  C   UNL     1       2.646   4.347  20.775  0.00  0.00    +0.000 A 
ATOM     35  C   UNL     1       1.984   3.303  21.427  0.00  0.00    +0.000 A 
ATOM     36  C   UNL     1       1.086   2.498  20.725  0.00  0.00    +0.000 A 
ATOM     37  C   UNL     1       0.817   2.764  19.384  0.00  0.00    +0.000 A 
ATOM     38  C   UNL     1       1.447   3.831  18.745  0.00  0.00    +0.000 A 
ENDBRANCH  32  33
ENDBRANCH  29  32
ENDBRANCH  24  26
ENDBRANCH  21  22
ENDBRANCH   2  21
TORSDOF 10
ENDMDL
MODEL 8
REMARK VINA RESULT:      -7.2      2.014      2.822
REMARK  Name = 
REMARK  11 active torsions:
REMARK  status: ('A' for Active; 'I' for Inactive)
REMARK    1  A    between atoms: C_1  and  N_2
REMARK    2  A    between atoms: N_2  and  C_3
REMARK    3  A    between atoms: N_2  and  C_20
REMARK    4  A    between atoms: C_3  and  C_4
REMARK    5  A    between atoms: N_6  and  C_7
REMARK    6  A    between atoms: C_10  and  O_11
REMARK    7  A    between atoms: O_11  and  C_12
REMARK    8  A    between atoms: N_24  and  C_25
REMARK    9  A    between atoms: C_25  and  C_26
REMARK   10  A    between atoms: C_29  and  C_30
REMARK   11  A    between atoms: C_30  and  O_32
REMARK                            x       y       z     vdW  Elec       q    Type
REMARK                         _______ _______ _______ _____ _____    ______ ____
ROOT
ATOM      1  C   UNL     1      -0.950  12.964  18.373  0.00  0.00    +0.000 C 
ATOM      2  N   UNL     1      -0.721  13.204  19.807  0.00  0.00    +0.000 NA
ENDROOT
BRANCH   2   3
ATOM      3  C   UNL     1       0.675  13.723  20.054  0.00  0.00    +0.000 C 
ATOM      4  C   UNL     1       0.810  14.452  21.411  0.00  0.00    +0.000 C 
ATOM      5  C   UNL     1       2.201  14.946  21.789  0.00  0.00    +0.000 C 
ATOM      6  C   UNL     1       2.844  15.919  20.802  0.00  0.00    +0.000 C 
ATOM      7  N   UNL     1       3.481  15.189  19.707  0.00  0.00    +0.000 NA
ATOM      8  C   UNL     1       2.570  14.803  18.617  0.00  0.00    +0.000 C 
ATOM      9  C   UNL     1       1.074  14.636  18.882  0.00  0.00    +0.000 C 
BRANCH   7  10
ATOM     10  C   UNL     1       4.604  15.953  19.117  0.00  0.00    +0.000 C 
BRANCH  10  11
ATOM     11  C   UNL     1       5.958  15.266  19.140  0.00  0.00    +0.000 A 
ATOM     12  C   UNL     1       6.568  14.828  17.958  0.00  0.00    +0.000 A 
ATOM     13  C   UNL     1       7.860  14.292  17.984  0.00  0.00    +0.000 A 
ATOM     14  C   UNL     1       8.559  14.173  19.194  0.00  0.00    +0.000 A 
ATOM     15  C   UNL     1       7.949  14.597  20.378  0.00  0.00    +0.000 A 
ATOM     16  C   UNL     1       6.659  15.136  20.351  0.00  0.00    +0.000 A 
BRANCH  14  17
ATOM     17  C   UNL     1       9.960  13.673  19.268  0.00  0.00    +0.000 C 
ATOM     18  O   UNL     1      10.257  12.610  19.785  0.00  0.00    +0.000 OA
BRANCH  17  19
ATOM     19  O   UNL     1      10.860  14.482  18.673  0.00  0.00    +0.000 OA
ATOM     20  H   UNL     1      10.758  15.429  18.891  0.00  0.00    +0.000 HD
ENDBRANCH  17  19
ENDBRANCH  14  17
ENDBRANCH  10  11
ENDBRANCH   7  10
ENDBRANCH   2   3
BRANCH   2  21
ATOM     21  C   UNL     1      -1.003  11.975  20.600  0.00  0.00    +0.000 C 
BRANCH  21  22
ATOM     22  C   UNL     1      -0.520  10.687  19.948  0.00  0.00    +0.000 C 
ATOM     23  O   UNL     1      -1.277  10.018  19.246  0.00  0.00    +0.000 OA
ATOM     24  N   UNL     1       0.807  10.397  20.188  0.00  0.00    +0.000 N 
ATOM     25  H   UNL     1       1.166  10.785  21.055  0.00  0.00    +0.000 HD
BRANCH  24  26
ATOM     26  C   UNL     1       1.459   9.293  19.612  0.00  0.00    +0.000 A 
ATOM     27  C   UNL     1       1.885   9.293  18.276  0.00  0.00    +0.000 A 
ATOM     28  C   UNL     1       2.569   8.194  17.755  0.00  0.00    +0.000 A 
ATOM     29  C   UNL     1       2.794   7.076  18.557  0.00  0.00    +0.000 A 
ATOM     30  C   UNL     1       2.287   7.045  19.861  0.00  0.00    +0.000 A 
ATOM     31  C   UNL     1       1.684   8.175  20.410  0.00  0.00    +0.000 A 
BRANCH  29  32
ATOM     32  O   UNL     1       3.483   6.036  17.972  0.00  0.00    +0.000 OA
BRANCH  32  33
ATOM     33  C   UNL     1       4.850   5.957  18.131  0.00  0.00    +0.000 A 
ATOM     34  C   UNL     1       5.611   6.756  17.276  0.00  0.00    +0.000 A 
ATOM     35  C   UNL     1       7.006   6.712  17.331  0.00  0.00    +0.000 A 
ATOM     36  C   UNL     1       7.645   5.865  18.237  0.00  0.00    +0.000 A 
ATOM     37  C   UNL     1       6.888   5.095  19.118  0.00  0.00    +0.000 A 
ATOM     38  C   UNL     1       5.495   5.170  19.091  0.00  0.00    +0.000 A 
ENDBRANCH  32  33
ENDBRANCH  29  32
ENDBRANCH  24  26
ENDBRANCH  21  22
ENDBRANCH   2  21
TORSDOF 10
ENDMDL
MODEL 9
REMARK VINA RESULT:      -7.1      4.601      8.199
REMARK  Name = 
REMARK  11 active torsions:
REMARK  status: ('A' for Active; 'I' for Inactive)
REMARK    1  A    between atoms: C_1  and  N_2
REMARK    2  A    between atoms: N_2  and  C_3
REMARK    3  A    between atoms: N_2  and  C_20
REMARK    4  A    between atoms: C_3  and  C_4
REMARK    5  A    between atoms: N_6  and  C_7
REMARK    6  A    between atoms: C_10  and  O_11
REMARK    7  A    between atoms: O_11  and  C_12
REMARK    8  A    between atoms: N_24  and  C_25
REMARK    9  A    between atoms: C_25  and  C_26
REMARK   10  A    between atoms: C_29  and  C_30
REMARK   11  A    between atoms: C_30  and  O_32
REMARK                            x       y       z     vdW  Elec       q    Type
REMARK                         _______ _______ _______ _____ _____    ______ ____
ROOT
ATOM      1  C   UNL     1       0.792  11.252  21.395  0.00  0.00    +0.000 C 
ATOM      2  N   UNL     1       0.658  10.314  20.269  0.00  0.00    +0.000 NA
ENDROOT
BRANCH   2   3
ATOM      3  C   UNL     1      -0.711  10.413  19.640  0.00  0.00    +0.000 C 
ATOM      4  C   UNL     1      -0.685  10.179  18.112  0.00  0.00    +0.000 C 
ATOM      5  C   UNL     1      -2.028  10.182  17.395  0.00  0.00    +0.000 C 
ATOM      6  C   UNL     1      -2.849  11.462  17.539  0.00  0.00    +0.000 C 
ATOM      7  N   UNL     1      -3.601  11.448  18.793  0.00  0.00    +0.000 NA
ATOM      8  C   UNL     1      -2.838  11.893  19.970  0.00  0.00    +0.000 C 
ATOM      9  C   UNL     1      -1.313  11.784  19.990  0.00  0.00    +0.000 C 
BRANCH   7  10
ATOM     10  C   UNL     1      -4.830  12.269  18.706  0.00  0.00    +0.000 C 
BRANCH  10  11
ATOM     11  C   UNL     1      -5.286  12.922  19.999  0.00  0.00    +0.000 A 
ATOM     12  C   UNL     1      -5.965  12.189  20.980  0.00  0.00    +0.000 A 
ATOM     13  C   UNL     1      -6.285  12.778  22.209  0.00  0.00    +0.000 A 
ATOM     14  C   UNL     1      -5.943  14.112  22.471  0.00  0.00    +0.000 A 
ATOM     15  C   UNL     1      -5.278  14.851  21.490  0.00  0.00    +0.000 A 
ATOM     16  C   UNL     1      -4.954  14.261  20.263  0.00  0.00    +0.000 A 
BRANCH  14  17
ATOM     17  C   UNL     1      -6.201  14.765  23.785  0.00  0.00    +0.000 C 
ATOM     18  O   UNL     1      -5.614  15.768  24.153  0.00  0.00    +0.000 OA
BRANCH  17  19
ATOM     19  O   UNL     1      -7.173  14.171  24.508  0.00  0.00    +0.000 OA
ATOM     20  H   UNL     1      -7.999  14.006  24.014  0.00  0.00    +0.000 HD
ENDBRANCH  17  19
ENDBRANCH  14  17
ENDBRANCH  10  11
ENDBRANCH   7  10
ENDBRANCH   2   3
BRANCH   2  21
ATOM     21  C   UNL     1       0.969   8.922  20.702  0.00  0.00    +0.000 C 
BRANCH  21  22
ATOM     22  C   UNL     1       1.746   8.109  19.676  0.00  0.00    +0.000 C 
ATOM     23  O   UNL     1       2.200   8.645  18.665  0.00  0.00    +0.000 OA
ATOM     24  N   UNL     1       1.911   6.783  20.016  0.00  0.00    +0.000 N 
ATOM     25  H   UNL     1       1.185   6.418  20.624  0.00  0.00    +0.000 HD
BRANCH  24  26
ATOM     26  C   UNL     1       2.664   5.887  19.237  0.00  0.00    +0.000 A 
ATOM     27  C   UNL     1       2.121   5.226  18.128  0.00  0.00    +0.000 A 
ATOM     28  C   UNL     1       2.916   4.379  17.354  0.00  0.00    +0.000 A 
ATOM     29  C   UNL     1       4.245   4.160  17.711  0.00  0.00    +0.000 A 
ATOM     30  C   UNL     1       4.756   4.751  18.872  0.00  0.00    +0.000 A 
ATOM     31  C   UNL     1       3.992   5.666  19.593  0.00  0.00    +0.000 A 
BRANCH  29  32
ATOM     32  O   UNL     1       4.966   3.318  16.893  0.00  0.00    +0.000 OA
BRANCH  32  33
ATOM     33  C   UNL     1       5.733   3.853  15.880  0.00  0.00    +0.000 A 
ATOM     34  C   UNL     1       5.315   3.565  14.580  0.00  0.00    +0.000 A 
ATOM     35  C   UNL     1       6.052   4.026  13.487  0.00  0.00    +0.000 A 
ATOM     36  C   UNL     1       7.213   4.773  13.691  0.00  0.00    +0.000 A 
ATOM     37  C   UNL     1       7.612   5.095  14.987  0.00  0.00    +0.000 A 
ATOM     38  C   UNL     1       6.853   4.669  16.076  0.00  0.00    +0.000 A 
ENDBRANCH  32  33
ENDBRANCH  29  32
ENDBRANCH  24  26
ENDBRANCH  21  22
ENDBRANCH   2  21
TORSDOF 10
ENDMDL
