MODEL 1
REMARK VINA RESULT:      -7.2      0.000      0.000
REMARK  Name = 
REMARK  8 active torsions:
REMARK  status: ('A' for Active; 'I' for Inactive)
REMARK    1  A    between atoms: C_1  and  N_2
REMARK    2  A    between atoms: N_2  and  C_3
REMARK    3  A    between atoms: N_2  and  C_4
REMARK    4  A    between atoms: C_4  and  C_5
REMARK    5  A    between atoms: C_5  and  N_6
REMARK    6  A    between atoms: C_10  and  C_11
REMARK    7  A    between atoms: C_15  and  C_17
REMARK    8  A    between atoms: N_19  and  C_20
REMARK                            x       y       z     vdW  Elec       q    Type
REMARK                         _______ _______ _______ _____ _____    ______ ____
ROOT
ATOM      1  C   UNL     1      -0.101  10.800  19.027  0.00  0.00    +0.000 C 
ATOM      2  C   UNL     1      -0.208  10.013  20.343  0.00  0.00    +0.000 C 
ATOM      3  C   UNL     1       1.044   9.195  20.659  0.00  0.00    +0.000 C 
ATOM      4  N   UNL     1       1.432   8.330  19.545  0.00  0.00    +0.000 N 
ATOM      5  C   UNL     1       2.075   7.124  19.879  0.00  0.00    +0.000 C 
ATOM      6  O   UNL     1       2.112   6.725  21.042  0.00  0.00    +0.000 OA
ATOM      7  C   UNL     1       1.628   9.056  18.286  0.00  0.00    +0.000 C 
ATOM      8  C   UNL     1       0.377   9.855  17.909  0.00  0.00    +0.000 C 
ENDROOT
BRANCH   5   9
ATOM      9  C   UNL     1       2.744   6.354  18.832  0.00  0.00    +0.000 A 
ATOM     10  C   UNL     1       3.756   6.772  17.981  0.00  0.00    +0.000 A 
ATOM     11  N   UNL     1       4.192   5.691  17.263  0.00  0.00    +0.000 N 
ATOM     12  C   UNL     1       5.281   5.719  16.314  0.00  0.00    +0.000 C 
ATOM     13  C   UNL     1       3.430   4.581  17.563  0.00  0.00    +0.000 A 
ATOM     14  C   UNL     1       3.514   3.254  17.118  0.00  0.00    +0.000 A 
ATOM     15  C   UNL     1       2.540   2.350  17.560  0.00  0.00    +0.000 A 
ATOM     16  C   UNL     1       1.498   2.767  18.382  0.00  0.00    +0.000 A 
ATOM     17  C   UNL     1       1.442   4.086  18.839  0.00  0.00    +0.000 A 
ATOM     18  C   UNL     1       2.440   5.005  18.453  0.00  0.00    +0.000 A 
ENDBRANCH   5   9
BRANCH   1  23
ATOM     19  N   UNL     1       0.621  13.069  20.025  0.00  0.00    +0.000 N 
ATOM     20  C   UNL     1       1.708  13.900  19.869  0.00  0.00    +0.000 A 
ATOM     21  C   UNL     1       2.490  13.318  18.908  0.00  0.00    +0.000 A 
ATOM     22  N   UNL     1       1.929  12.149  18.496  0.00  0.00    +0.000 NA
ATOM     23  C   UNL     1       0.807  11.996  19.176  0.00  0.00    +0.000 A 
BRANCH  19  24
ATOM     24  C   UNL     1      -0.518  13.408  20.867  0.00  0.00    +0.000 C 
BRANCH  24  25
ATOM     25  C   UNL     1      -0.156  13.787  22.311  0.00  0.00    +0.000 C 
BRANCH  25  27
ATOM     26  C   UNL     1      -2.227  14.202  23.472  0.00  0.00    +0.000 C 
ATOM     27  N   UNL     1      -1.094  13.275  23.337  0.00  0.00    +0.000 NA
ATOM     28  C   UNL     1      -1.615  11.941  23.024  0.00  0.00    +0.000 C 
ENDBRANCH  25  27
ENDBRANCH  24  25
ENDBRANCH  19  24
ENDBRANCH   1  23
TORSDOF 5
ENDMDL
MODEL 2
REMARK VINA RESULT:      -7.0      1.010      1.359
REMARK  Name = 
REMARK  8 active torsions:
REMARK  status: ('A' for Active; 'I' for Inactive)
REMARK    1  A    between atoms: C_1  and  N_2
REMARK    2  A    between atoms: N_2  and  C_3
REMARK    3  A    between atoms: N_2  and  C_4
REMARK    4  A    between atoms: C_4  and  C_5
REMARK    5  A    between atoms: C_5  and  N_6
REMARK    6  A    between atoms: C_10  and  C_11
REMARK    7  A    between atoms: C_15  and  C_17
REMARK    8  A    between atoms: N_19  and  C_20
REMARK                            x       y       z     vdW  Elec       q    Type
REMARK                         _______ _______ _______ _____ _____    ______ ____
ROOT
ATOM      1  C   UNL     1       0.121  10.817  18.918  0.00  0.00    +0.000 C 
ATOM      2  C   UNL     1      -0.088  10.038  20.226  0.00  0.00    +0.000 C 
ATOM      3  C   UNL     1       1.105   9.159  20.601  0.00  0.00    +0.000 C 
ATOM      4  N   UNL     1       1.502   8.275  19.506  0.00  0.00    +0.000 N 
ATOM      5  C   UNL     1       2.068   7.039  19.869  0.00  0.00    +0.000 C 
ATOM      6  O   UNL     1       2.029   6.639  21.033  0.00  0.00    +0.000 OA
ATOM      7  C   UNL     1       1.795   8.988  18.259  0.00  0.00    +0.000 C 
ATOM      8  C   UNL     1       0.605   9.848  17.824  0.00  0.00    +0.000 C 
ENDROOT
BRANCH   5   9
ATOM      9  C   UNL     1       2.747   6.235  18.855  0.00  0.00    +0.000 A 
ATOM     10  C   UNL     1       3.782   6.618  18.016  0.00  0.00    +0.000 A 
ATOM     11  N   UNL     1       4.217   5.515  17.333  0.00  0.00    +0.000 N 
ATOM     12  C   UNL     1       5.326   5.505  16.406  0.00  0.00    +0.000 C 
ATOM     13  C   UNL     1       3.433   4.423  17.643  0.00  0.00    +0.000 A 
ATOM     14  C   UNL     1       3.507   3.085  17.230  0.00  0.00    +0.000 A 
ATOM     15  C   UNL     1       2.512   2.205  17.672  0.00  0.00    +0.000 A 
ATOM     16  C   UNL     1       1.459   2.655  18.462  0.00  0.00    +0.000 A 
ATOM     17  C   UNL     1       1.413   3.986  18.888  0.00  0.00    +0.000 A 
ATOM     18  C   UNL     1       2.431   4.881  18.501  0.00  0.00    +0.000 A 
ENDBRANCH   5   9
BRANCH   1  23
ATOM     19  N   UNL     1       1.037  12.912  20.117  0.00  0.00    +0.000 N 
ATOM     20  C   UNL     1       2.122  13.740  19.938  0.00  0.00    +0.000 A 
ATOM     21  C   UNL     1       2.758  13.288  18.814  0.00  0.00    +0.000 A 
ATOM     22  N   UNL     1       2.112  12.197  18.321  0.00  0.00    +0.000 NA
ATOM     23  C   UNL     1       1.080  11.967  19.112  0.00  0.00    +0.000 A 
BRANCH  19  24
ATOM     24  C   UNL     1       0.024  13.147  21.137  0.00  0.00    +0.000 C 
BRANCH  24  25
ATOM     25  C   UNL     1      -1.269  13.793  20.617  0.00  0.00    +0.000 C 
BRANCH  25  27
ATOM     26  C   UNL     1      -0.571  15.645  21.993  0.00  0.00    +0.000 C 
ATOM     27  N   UNL     1      -1.343  15.261  20.802  0.00  0.00    +0.000 NA
ATOM     28  C   UNL     1      -0.833  16.011  19.650  0.00  0.00    +0.000 C 
ENDBRANCH  25  27
ENDBRANCH  24  25
ENDBRANCH  19  24
ENDBRANCH   1  23
TORSDOF 5
ENDMDL
MODEL 3
REMARK VINA RESULT:      -6.9      0.899      1.084
REMARK  Name = 
REMARK  8 active torsions:
REMARK  status: ('A' for Active; 'I' for Inactive)
REMARK    1  A    between atoms: C_1  and  N_2
REMARK    2  A    between atoms: N_2  and  C_3
REMARK    3  A    between atoms: N_2  and  C_4
REMARK    4  A    between atoms: C_4  and  C_5
REMARK    5  A    between atoms: C_5  and  N_6
REMARK    6  A    between atoms: C_10  and  C_11
REMARK    7  A    between atoms: C_15  and  C_17
REMARK    8  A    between atoms: N_19  and  C_20
REMARK                            x       y       z     vdW  Elec       q    Type
REMARK                         _______ _______ _______ _____ _____    ______ ____
ROOT
ATOM      1  C   UNL     1      -0.272  10.824  19.752  0.00  0.00    +0.000 C 
ATOM      2  C   UNL     1      -0.349   9.885  20.966  0.00  0.00    +0.000 C 
ATOM      3  C   UNL     1       0.918   9.053  21.165  0.00  0.00    +0.000 C 
ATOM      4  N   UNL     1       1.298   8.331  19.950  0.00  0.00    +0.000 N 
ATOM      5  C   UNL     1       1.961   7.103  20.130  0.00  0.00    +0.000 C 
ATOM      6  O   UNL     1       2.021   6.569  21.237  0.00  0.00    +0.000 OA
ATOM      7  C   UNL     1       1.465   9.203  18.784  0.00  0.00    +0.000 C 
ATOM      8  C   UNL     1       0.199  10.025  18.523  0.00  0.00    +0.000 C 
ENDROOT
BRANCH   5   9
ATOM      9  C   UNL     1       2.622   6.472  18.989  0.00  0.00    +0.000 A 
ATOM     10  C   UNL     1       3.536   7.037  18.113  0.00  0.00    +0.000 A 
ATOM     11  N   UNL     1       4.014   6.054  17.291  0.00  0.00    +0.000 N 
ATOM     12  C   UNL     1       5.031   6.246  16.283  0.00  0.00    +0.000 C 
ATOM     13  C   UNL     1       3.371   4.861  17.551  0.00  0.00    +0.000 A 
ATOM     14  C   UNL     1       3.538   3.582  17.002  0.00  0.00    +0.000 A 
ATOM     15  C   UNL     1       2.677   2.565  17.432  0.00  0.00    +0.000 A 
ATOM     16  C   UNL     1       1.660   2.827  18.344  0.00  0.00    +0.000 A 
ATOM     17  C   UNL     1       1.522   4.101  18.903  0.00  0.00    +0.000 A 
ATOM     18  C   UNL     1       2.410   5.130  18.528  0.00  0.00    +0.000 A 
ENDBRANCH   5   9
BRANCH   1  23
ATOM     19  N   UNL     1       0.506  12.900  21.074  0.00  0.00    +0.000 N 
ATOM     20  C   UNL     1       1.555  13.786  20.968  0.00  0.00    +0.000 A 
ATOM     21  C   UNL     1       2.245  13.416  19.845  0.00  0.00    +0.000 A 
ATOM     22  N   UNL     1       1.667  12.321  19.283  0.00  0.00    +0.000 NA
ATOM     23  C   UNL     1       0.623  12.006  20.028  0.00  0.00    +0.000 A 
BRANCH  19  24
ATOM     24  C   UNL     1      -0.548  13.040  22.070  0.00  0.00    +0.000 C 
BRANCH  24  25
ATOM     25  C   UNL     1      -0.929  14.492  22.398  0.00  0.00    +0.000 C 
BRANCH  25  27
ATOM     26  C   UNL     1      -0.226  16.253  23.885  0.00  0.00    +0.000 C 
ATOM     27  N   UNL     1      -0.733  14.875  23.815  0.00  0.00    +0.000 NA
ATOM     28  C   UNL     1      -1.962  14.787  24.610  0.00  0.00    +0.000 C 
ENDBRANCH  25  27
ENDBRANCH  24  25
ENDBRANCH  19  24
ENDBRANCH   1  23
TORSDOF 5
ENDMDL
MODEL 4
REMARK VINA RESULT:      -6.7      1.140      1.273
REMARK  Name = 
REMARK  8 active torsions:
REMARK  status: ('A' for Active; 'I' for Inactive)
REMARK    1  A    between atoms: C_1  and  N_2
REMARK    2  A    between atoms: N_2  and  C_3
REMARK    3  A    between atoms: N_2  and  C_4
REMARK    4  A    between atoms: C_4  and  C_5
REMARK    5  A    between atoms: C_5  and  N_6
REMARK    6  A    between atoms: C_10  and  C_11
REMARK    7  A    between atoms: C_15  and  C_17
REMARK    8  A    between atoms: N_19  and  C_20
REMARK                            x       y       z     vdW  Elec       q    Type
REMARK                         _______ _______ _______ _____ _____    ______ ____
ROOT
ATOM      1  C   UNL     1      -0.303  11.335  18.943  0.00  0.00    +0.000 C 
ATOM      2  C   UNL     1      -0.386  10.858  20.401  0.00  0.00    +0.000 C 
ATOM      3  C   UNL     1       0.827  10.036  20.836  0.00  0.00    +0.000 C 
ATOM      4  N   UNL     1       1.095   8.926  19.921  0.00  0.00    +0.000 N 
ATOM      5  C   UNL     1       1.677   7.774  20.483  0.00  0.00    +0.000 C 
ATOM      6  O   UNL     1       1.755   7.632  21.703  0.00  0.00    +0.000 OA
ATOM      7  C   UNL     1       1.266   9.348  18.528  0.00  0.00    +0.000 C 
ATOM      8  C   UNL     1       0.050  10.139  18.038  0.00  0.00    +0.000 C 
ENDROOT
BRANCH   5   9
ATOM      9  C   UNL     1       2.236   6.750  19.602  0.00  0.00    +0.000 A 
ATOM     10  C   UNL     1       3.105   6.924  18.537  0.00  0.00    +0.000 A 
ATOM     11  N   UNL     1       3.490   5.690  18.086  0.00  0.00    +0.000 N 
ATOM     12  C   UNL     1       4.441   5.463  17.022  0.00  0.00    +0.000 C 
ATOM     13  C   UNL     1       2.826   4.700  18.781  0.00  0.00    +0.000 A 
ATOM     14  C   UNL     1       2.910   3.303  18.706  0.00  0.00    +0.000 A 
ATOM     15  C   UNL     1       2.046   2.549  19.509  0.00  0.00    +0.000 A 
ATOM     16  C   UNL     1       1.104   3.169  20.325  0.00  0.00    +0.000 A 
ATOM     17  C   UNL     1       1.050   4.563  20.409  0.00  0.00    +0.000 A 
ATOM     18  C   UNL     1       1.945   5.346  19.652  0.00  0.00    +0.000 A 
ENDBRANCH   5   9
BRANCH   1  23
ATOM     19  N   UNL     1       0.484  13.786  19.130  0.00  0.00    +0.000 N 
ATOM     20  C   UNL     1       1.658  14.455  18.867  0.00  0.00    +0.000 A 
ATOM     21  C   UNL     1       2.513  13.521  18.346  0.00  0.00    +0.000 A 
ATOM     22  N   UNL     1       1.907  12.304  18.310  0.00  0.00    +0.000 NA
ATOM     23  C   UNL     1       0.687  12.464  18.789  0.00  0.00    +0.000 A 
BRANCH  19  24
ATOM     24  C   UNL     1      -0.728  14.463  19.570  0.00  0.00    +0.000 C 
BRANCH  24  25
ATOM     25  C   UNL     1      -0.731  14.870  21.052  0.00  0.00    +0.000 C 
BRANCH  25  27
ATOM     26  C   UNL     1      -1.040  14.265  23.364  0.00  0.00    +0.000 C 
ATOM     27  N   UNL     1      -1.255  13.837  21.974  0.00  0.00    +0.000 NA
ATOM     28  C   UNL     1      -2.683  13.566  21.783  0.00  0.00    +0.000 C 
ENDBRANCH  25  27
ENDBRANCH  24  25
ENDBRANCH  19  24
ENDBRANCH   1  23
TORSDOF 5
ENDMDL
MODEL 5
REMARK VINA RESULT:      -6.7      1.749      2.326
REMARK  Name = 
REMARK  8 active torsions:
REMARK  status: ('A' for Active; 'I' for Inactive)
REMARK    1  A    between atoms: C_1  and  N_2
REMARK    2  A    between atoms: N_2  and  C_3
REMARK    3  A    between atoms: N_2  and  C_4
REMARK    4  A    between atoms: C_4  and  C_5
REMARK    5  A    between atoms: C_5  and  N_6
REMARK    6  A    between atoms: C_10  and  C_11
REMARK    7  A    between atoms: C_15  and  C_17
REMARK    8  A    between atoms: N_19  and  C_20
REMARK                            x       y       z     vdW  Elec       q    Type
REMARK                         _______ _______ _______ _____ _____    ______ ____
ROOT
ATOM      1  C   UNL     1      -0.082  11.355  18.806  0.00  0.00    +0.000 C 
ATOM      2  C   UNL     1      -0.217  10.899  20.267  0.00  0.00    +0.000 C 
ATOM      3  C   UNL     1       0.955  10.040  20.740  0.00  0.00    +0.000 C 
ATOM      4  N   UNL     1       1.205   8.910  19.845  0.00  0.00    +0.000 N 
ATOM      5  C   UNL     1       1.732   7.746  20.434  0.00  0.00    +0.000 C 
ATOM      6  O   UNL     1       1.775   7.615  21.657  0.00  0.00    +0.000 OA
ATOM      7  C   UNL     1       1.425   9.309  18.452  0.00  0.00    +0.000 C 
ATOM      8  C   UNL     1       0.250  10.138  17.924  0.00  0.00    +0.000 C 
ENDROOT
BRANCH   5   9
ATOM      9  C   UNL     1       2.275   6.692  19.578  0.00  0.00    +0.000 A 
ATOM     10  C   UNL     1       3.120   6.829  18.488  0.00  0.00    +0.000 A 
ATOM     11  N   UNL     1       3.499   5.582  18.074  0.00  0.00    +0.000 N 
ATOM     12  C   UNL     1       4.428   5.319  16.998  0.00  0.00    +0.000 C 
ATOM     13  C   UNL     1       2.854   4.616  18.818  0.00  0.00    +0.000 A 
ATOM     14  C   UNL     1       2.942   3.217  18.793  0.00  0.00    +0.000 A 
ATOM     15  C   UNL     1       2.098   2.490  19.641  0.00  0.00    +0.000 A 
ATOM     16  C   UNL     1       1.173   3.136  20.454  0.00  0.00    +0.000 A 
ATOM     17  C   UNL     1       1.115   4.532  20.489  0.00  0.00    +0.000 A 
ATOM     18  C   UNL     1       1.990   5.290  19.685  0.00  0.00    +0.000 A 
ENDBRANCH   5   9
BRANCH   1  23
ATOM     19  N   UNL     1       0.762  13.794  18.902  0.00  0.00    +0.000 N 
ATOM     20  C   UNL     1       1.973  14.414  18.696  0.00  0.00    +0.000 A 
ATOM     21  C   UNL     1       2.839  13.427  18.309  0.00  0.00    +0.000 A 
ATOM     22  N   UNL     1       2.201  12.226  18.300  0.00  0.00    +0.000 NA
ATOM     23  C   UNL     1       0.951  12.447  18.664  0.00  0.00    +0.000 A 
BRANCH  19  24
ATOM     24  C   UNL     1      -0.461  14.528  19.196  0.00  0.00    +0.000 C 
BRANCH  24  25
ATOM     25  C   UNL     1      -0.323  15.587  20.300  0.00  0.00    +0.000 C 
BRANCH  25  27
ATOM     26  C   UNL     1       0.793  17.712  20.082  0.00  0.00    +0.000 C 
ATOM     27  N   UNL     1      -0.461  16.986  19.834  0.00  0.00    +0.000 NA
ATOM     28  C   UNL     1      -0.787  17.087  18.408  0.00  0.00    +0.000 C 
ENDBRANCH  25  27
ENDBRANCH  24  25
ENDBRANCH  19  24
ENDBRANCH   1  23
TORSDOF 5
ENDMDL
MODEL 6
REMARK VINA RESULT:      -6.5      3.595      9.153
REMARK  Name = 
REMARK  8 active torsions:
REMARK  status: ('A' for Active; 'I' for Inactive)
REMARK    1  A    between atoms: C_1  and  N_2
REMARK    2  A    between atoms: N_2  and  C_3
REMARK    3  A    between atoms: N_2  and  C_4
REMARK    4  A    between atoms: C_4  and  C_5
REMARK    5  A    between atoms: C_5  and  N_6
REMARK    6  A    between atoms: C_10  and  C_11
REMARK    7  A    between atoms: C_15  and  C_17
REMARK    8  A    between atoms: N_19  and  C_20
REMARK                            x       y       z     vdW  Elec       q    Type
REMARK                         _______ _______ _______ _____ _____    ______ ____
ROOT
ATOM      1  C   UNL     1       0.652  10.340  18.517  0.00  0.00    +0.000 C 
ATOM      2  C   UNL     1       0.879  11.752  19.078  0.00  0.00    +0.000 C 
ATOM      3  C   UNL     1      -0.157  12.157  20.126  0.00  0.00    +0.000 C 
ATOM      4  N   UNL     1      -1.526  11.985  19.641  0.00  0.00    +0.000 N 
ATOM      5  C   UNL     1      -2.492  12.871  20.155  0.00  0.00    +0.000 C 
ATOM      6  O   UNL     1      -2.163  13.863  20.803  0.00  0.00    +0.000 OA
ATOM      7  C   UNL     1      -1.811  10.626  19.174  0.00  0.00    +0.000 C 
ATOM      8  C   UNL     1      -0.820  10.196  18.088  0.00  0.00    +0.000 C 
ENDROOT
BRANCH   5   9
ATOM      9  C   UNL     1      -3.910  12.584  19.948  0.00  0.00    +0.000 A 
ATOM     10  C   UNL     1      -4.544  12.226  18.769  0.00  0.00    +0.000 A 
ATOM     11  N   UNL     1      -5.843  11.905  19.055  0.00  0.00    +0.000 N 
ATOM     12  C   UNL     1      -6.805  11.425  18.089  0.00  0.00    +0.000 C 
ATOM     13  C   UNL     1      -6.105  12.125  20.392  0.00  0.00    +0.000 A 
ATOM     14  C   UNL     1      -7.261  11.913  21.155  0.00  0.00    +0.000 A 
ATOM     15  C   UNL     1      -7.242  12.300  22.500  0.00  0.00    +0.000 A 
ATOM     16  C   UNL     1      -6.121  12.915  23.051  0.00  0.00    +0.000 A 
ATOM     17  C   UNL     1      -4.966  13.095  22.285  0.00  0.00    +0.000 A 
ATOM     18  C   UNL     1      -4.940  12.665  20.943  0.00  0.00    +0.000 A 
ENDBRANCH   5   9
BRANCH   1  23
ATOM     19  N   UNL     1       1.860   8.189  19.277  0.00  0.00    +0.000 N 
ATOM     20  C   UNL     1       1.996   7.518  20.472  0.00  0.00    +0.000 A 
ATOM     21  C   UNL     1       1.237   8.209  21.378  0.00  0.00    +0.000 A 
ATOM     22  N   UNL     1       0.668   9.290  20.780  0.00  0.00    +0.000 NA
ATOM     23  C   UNL     1       1.050   9.281  19.516  0.00  0.00    +0.000 A 
BRANCH  19  24
ATOM     24  C   UNL     1       2.410   7.689  18.024  0.00  0.00    +0.000 C 
BRANCH  24  25
ATOM     25  C   UNL     1       2.947   6.251  18.090  0.00  0.00    +0.000 C 
BRANCH  25  27
ATOM     26  C   UNL     1       4.940   5.307  19.062  0.00  0.00    +0.000 C 
ATOM     27  N   UNL     1       4.419   6.136  17.966  0.00  0.00    +0.000 NA
ATOM     28  C   UNL     1       4.844   5.550  16.692  0.00  0.00    +0.000 C 
ENDBRANCH  25  27
ENDBRANCH  24  25
ENDBRANCH  19  24
ENDBRANCH   1  23
TORSDOF 5
ENDMDL
MODEL 7
REMARK VINA RESULT:      -6.4      2.302      8.681
REMARK  Name = 
REMARK  8 active torsions:
REMARK  status: ('A' for Active; 'I' for Inactive)
REMARK    1  A    between atoms: C_1  and  N_2
REMARK    2  A    between atoms: N_2  and  C_3
REMARK    3  A    between atoms: N_2  and  C_4
REMARK    4  A    between atoms: C_4  and  C_5
REMARK    5  A    between atoms: C_5  and  N_6
REMARK    6  A    between atoms: C_10  and  C_11
REMARK    7  A    between atoms: C_15  and  C_17
REMARK    8  A    between atoms: N_19  and  C_20
REMARK                            x       y       z     vdW  Elec       q    Type
REMARK                         _______ _______ _______ _____ _____    ______ ____
ROOT
ATOM      1  C   UNL     1       3.808   6.439  18.305  0.00  0.00    +0.000 C 
ATOM      2  C   UNL     1       3.613   6.606  19.820  0.00  0.00    +0.000 C 
ATOM      3  C   UNL     1       2.195   7.030  20.201  0.00  0.00    +0.000 C 
ATOM      4  N   UNL     1       1.761   8.219  19.468  0.00  0.00    +0.000 N 
ATOM      5  C   UNL     1       0.854   9.069  20.129  0.00  0.00    +0.000 C 
ATOM      6  O   UNL     1       0.613   8.932  21.328  0.00  0.00    +0.000 OA
ATOM      7  C   UNL     1       1.851   8.072  18.013  0.00  0.00    +0.000 C 
ATOM      8  C   UNL     1       3.271   7.689  17.584  0.00  0.00    +0.000 C 
ENDROOT
BRANCH   5   9
ATOM      9  C   UNL     1       0.159  10.106  19.369  0.00  0.00    +0.000 A 
ATOM     10  C   UNL     1      -1.029   9.994  18.663  0.00  0.00    +0.000 A 
ATOM     11  N   UNL     1      -1.395  11.239  18.230  0.00  0.00    +0.000 N 
ATOM     12  C   UNL     1      -2.612  11.534  17.509  0.00  0.00    +0.000 C 
ATOM     13  C   UNL     1      -0.428  12.163  18.565  0.00  0.00    +0.000 A 
ATOM     14  C   UNL     1      -0.368  13.551  18.371  0.00  0.00    +0.000 A 
ATOM     15  C   UNL     1       0.795  14.220  18.769  0.00  0.00    +0.000 A 
ATOM     16  C   UNL     1       1.875  13.523  19.302  0.00  0.00    +0.000 A 
ATOM     17  C   UNL     1       1.791  12.144  19.513  0.00  0.00    +0.000 A 
ATOM     18  C   UNL     1       0.611  11.453  19.172  0.00  0.00    +0.000 A 
ENDBRANCH   5   9
BRANCH   1  23
ATOM     19  N   UNL     1       3.774   4.126  17.160  0.00  0.00    +0.000 N 
ATOM     20  C   UNL     1       2.812   3.170  16.922  0.00  0.00    +0.000 A 
ATOM     21  C   UNL     1       1.639   3.694  17.397  0.00  0.00    +0.000 A 
ATOM     22  N   UNL     1       1.863   4.921  17.939  0.00  0.00    +0.000 NA
ATOM     23  C   UNL     1       3.151   5.177  17.802  0.00  0.00    +0.000 A 
BRANCH  19  24
ATOM     24  C   UNL     1       5.143   4.005  16.675  0.00  0.00    +0.000 C 
BRANCH  24  25
ATOM     25  C   UNL     1       5.773   5.324  16.203  0.00  0.00    +0.000 C 
BRANCH  25  27
ATOM     26  C   UNL     1       7.305   6.901  17.189  0.00  0.00    +0.000 C 
ATOM     27  N   UNL     1       7.167   5.538  16.654  0.00  0.00    +0.000 NA
ATOM     28  C   UNL     1       7.590   4.585  17.684  0.00  0.00    +0.000 C 
ENDBRANCH  25  27
ENDBRANCH  24  25
ENDBRANCH  19  24
ENDBRANCH   1  23
TORSDOF 5
ENDMDL
MODEL 8
REMARK VINA RESULT:      -6.4      2.608      9.095
REMARK  Name = 
REMARK  8 active torsions:
REMARK  status: ('A' for Active; 'I' for Inactive)
REMARK    1  A    between atoms: C_1  and  N_2
REMARK    2  A    between atoms: N_2  and  C_3
REMARK    3  A    between atoms: N_2  and  C_4
REMARK    4  A    between atoms: C_4  and  C_5
REMARK    5  A    between atoms: C_5  and  N_6
REMARK    6  A    between atoms: C_10  and  C_11
REMARK    7  A    between atoms: C_15  and  C_17
REMARK    8  A    between atoms: N_19  and  C_20
REMARK                            x       y       z     vdW  Elec       q    Type
REMARK                         _______ _______ _______ _____ _____    ______ ____
ROOT
ATOM      1  C   UNL     1       4.038   4.845  18.031  0.00  0.00    +0.000 C 
ATOM      2  C   UNL     1       3.704   5.729  16.819  0.00  0.00    +0.000 C 
ATOM      3  C   UNL     1       3.582   7.211  17.169  0.00  0.00    +0.000 C 
ATOM      4  N   UNL     1       2.651   7.440  18.274  0.00  0.00    +0.000 N 
ATOM      5  C   UNL     1       1.957   8.664  18.268  0.00  0.00    +0.000 C 
ATOM      6  O   UNL     1       1.972   9.399  17.280  0.00  0.00    +0.000 OA
ATOM      7  C   UNL     1       2.983   6.680  19.482  0.00  0.00    +0.000 C 
ATOM      8  C   UNL     1       3.072   5.180  19.183  0.00  0.00    +0.000 C 
ENDROOT
BRANCH   5   9
ATOM      9  C   UNL     1       1.240   9.088  19.469  0.00  0.00    +0.000 A 
ATOM     10  C   UNL     1       1.437   8.665  20.774  0.00  0.00    +0.000 A 
ATOM     11  N   UNL     1       0.656   9.427  21.600  0.00  0.00    +0.000 N 
ATOM     12  C   UNL     1       0.635   9.322  23.041  0.00  0.00    +0.000 C 
ATOM     13  C   UNL     1      -0.121  10.292  20.856  0.00  0.00    +0.000 A 
ATOM     14  C   UNL     1      -1.038  11.278  21.246  0.00  0.00    +0.000 A 
ATOM     15  C   UNL     1      -1.732  11.963  20.242  0.00  0.00    +0.000 A 
ATOM     16  C   UNL     1      -1.547  11.645  18.900  0.00  0.00    +0.000 A 
ATOM     17  C   UNL     1      -0.610  10.678  18.525  0.00  0.00    +0.000 A 
ATOM     18  C   UNL     1       0.142  10.011  19.514  0.00  0.00    +0.000 A 
ENDBRANCH   5   9
BRANCH   1  23
ATOM     19  N   UNL     1       6.592   4.723  17.678  0.00  0.00    +0.000 N 
ATOM     20  C   UNL     1       7.697   5.057  18.429  0.00  0.00    +0.000 A 
ATOM     21  C   UNL     1       7.213   5.495  19.633  0.00  0.00    +0.000 A 
ATOM     22  N   UNL     1       5.853   5.463  19.627  0.00  0.00    +0.000 NA
ATOM     23  C   UNL     1       5.480   5.005  18.446  0.00  0.00    +0.000 A 
BRANCH  19  24
ATOM     24  C   UNL     1       6.689   4.083  16.373  0.00  0.00    +0.000 C 
BRANCH  24  25
ATOM     25  C   UNL     1       6.909   5.052  15.201  0.00  0.00    +0.000 C 
BRANCH  25  27
ATOM     26  C   UNL     1       5.989   3.813  13.350  0.00  0.00    +0.000 C 
ATOM     27  N   UNL     1       7.217   4.397  13.909  0.00  0.00    +0.000 NA
ATOM     28  C   UNL     1       7.791   5.316  12.922  0.00  0.00    +0.000 C 
ENDBRANCH  25  27
ENDBRANCH  24  25
ENDBRANCH  19  24
ENDBRANCH   1  23
TORSDOF 5
ENDMDL
MODEL 9
REMARK VINA RESULT:      -6.3      2.305      9.120
REMARK  Name = 
REMARK  8 active torsions:
REMARK  status: ('A' for Active; 'I' for Inactive)
REMARK    1  A    between atoms: C_1  and  N_2
REMARK    2  A    between atoms: N_2  and  C_3
REMARK    3  A    between atoms: N_2  and  C_4
REMARK    4  A    between atoms: C_4  and  C_5
REMARK    5  A    between atoms: C_5  and  N_6
REMARK    6  A    between atoms: C_10  and  C_11
REMARK    7  A    between atoms: C_15  and  C_17
REMARK    8  A    between atoms: N_19  and  C_20
REMARK                            x       y       z     vdW  Elec       q    Type
REMARK                         _______ _______ _______ _____ _____    ______ ____
ROOT
ATOM      1  C   UNL     1       3.750   6.384  18.310  0.00  0.00    +0.000 C 
ATOM      2  C   UNL     1       3.587   6.584  19.825  0.00  0.00    +0.000 C 
ATOM      3  C   UNL     1       2.186   7.046  20.224  0.00  0.00    +0.000 C 
ATOM      4  N   UNL     1       1.765   8.231  19.478  0.00  0.00    +0.000 N 
ATOM      5  C   UNL     1       0.890   9.114  20.139  0.00  0.00    +0.000 C 
ATOM      6  O   UNL     1       0.669   9.005  21.344  0.00  0.00    +0.000 OA
ATOM      7  C   UNL     1       1.824   8.054  18.024  0.00  0.00    +0.000 C 
ATOM      8  C   UNL     1       3.226   7.632  17.576  0.00  0.00    +0.000 C 
ENDROOT
BRANCH   5   9
ATOM      9  C   UNL     1       0.203  10.151  19.372  0.00  0.00    +0.000 A 
ATOM     10  C   UNL     1      -0.961  10.032  18.628  0.00  0.00    +0.000 A 
ATOM     11  N   UNL     1      -1.332  11.278  18.201  0.00  0.00    +0.000 N 
ATOM     12  C   UNL     1      -2.531  11.566  17.447  0.00  0.00    +0.000 C 
ATOM     13  C   UNL     1      -0.389  12.211  18.579  0.00  0.00    +0.000 A 
ATOM     14  C   UNL     1      -0.344  13.602  18.407  0.00  0.00    +0.000 A 
ATOM     15  C   UNL     1       0.797  14.283  18.850  0.00  0.00    +0.000 A 
ATOM     16  C   UNL     1       1.870  13.593  19.405  0.00  0.00    +0.000 A 
ATOM     17  C   UNL     1       1.800  12.210  19.595  0.00  0.00    +0.000 A 
ATOM     18  C   UNL     1       0.641  11.507  19.207  0.00  0.00    +0.000 A 
ENDBRANCH   5   9
BRANCH   1  23
ATOM     19  N   UNL     1       3.631   4.077  17.158  0.00  0.00    +0.000 N 
ATOM     20  C   UNL     1       2.651   3.128  16.978  0.00  0.00    +0.000 A 
ATOM     21  C   UNL     1       1.514   3.654  17.529  0.00  0.00    +0.000 A 
ATOM     22  N   UNL     1       1.778   4.877  18.062  0.00  0.00    +0.000 NA
ATOM     23  C   UNL     1       3.056   5.128  17.844  0.00  0.00    +0.000 A 
BRANCH  19  24
ATOM     24  C   UNL     1       4.965   3.953  16.586  0.00  0.00    +0.000 C 
BRANCH  24  25
ATOM     25  C   UNL     1       5.082   4.420  15.127  0.00  0.00    +0.000 C 
BRANCH  25  27
ATOM     26  C   UNL     1       5.949   3.562  13.048  0.00  0.00    +0.000 C 
ATOM     27  N   UNL     1       6.297   3.948  14.424  0.00  0.00    +0.000 NA
ATOM     28  C   UNL     1       7.360   4.955  14.374  0.00  0.00    +0.000 C 
ENDBRANCH  25  27
ENDBRANCH  24  25
ENDBRANCH  19  24
ENDBRANCH   1  23
TORSDOF 5
ENDMDL
