MODEL 1
REMARK VINA RESULT:      -8.1      0.000      0.000
REMARK  Name = 
REMARK  3 active torsions:
REMARK  status: ('A' for Active; 'I' for Inactive)
REMARK    1  A    between atoms: C_1  and  C_2
REMARK    2  A    between atoms: C_5  and  S_6
REMARK    3  A    between atoms: S_6  and  N_9
REMARK                            x       y       z     vdW  Elec       q    Type
REMARK                         _______ _______ _______ _____ _____    ______ ____
ROOT
ATOM      1  S   UNL     1       6.268   5.320  18.813  0.00  0.00    +0.000 S 
ATOM      2  O   UNL     1       5.990   6.450  17.946  0.00  0.00    +0.000 OA
ATOM      3  O   UNL     1       7.104   5.473  19.983  0.00  0.00    +0.000 OA
ENDROOT
BRANCH   1   4
ATOM      4  N   UNL     1       6.850   4.106  17.798  0.00  0.00    +0.000 N 
ATOM      5  C   UNL     1       6.663   4.317  16.443  0.00  0.00    +0.000 A 
ATOM      6  N   UNL     1       5.631   3.736  15.835  0.00  0.00    +0.000 NA
ATOM      7  S   UNL     1       5.728   4.180  14.229  0.00  0.00    +0.000 S 
ATOM      8  C   UNL     1       7.237   4.987  14.440  0.00  0.00    +0.000 A 
ATOM      9  N   UNL     1       7.934   5.533  13.430  0.00  0.00    +0.000 N 
ATOM     10  N   UNL     1       7.621   4.977  15.693  0.00  0.00    +0.000 NA
ATOM     11  H   UNL     1       6.360   3.260  18.087  0.00  0.00    +0.000 HD
ATOM     12  H   UNL     1       7.703   5.296  12.472  0.00  0.00    +0.000 HD
ATOM     13  H   UNL     1       8.914   5.730  13.596  0.00  0.00    +0.000 HD
ENDBRANCH   1   4
BRANCH   1  18
ATOM     14  C   UNL     1       1.025   3.019  20.828  0.00  0.00    +0.000 C 
ATOM     15  C   UNL     1       2.312   3.585  20.303  0.00  0.00    +0.000 A 
ATOM     16  C   UNL     1       3.371   2.741  19.943  0.00  0.00    +0.000 A 
ATOM     17  C   UNL     1       4.568   3.272  19.462  0.00  0.00    +0.000 A 
ATOM     18  C   UNL     1       4.707   4.656  19.334  0.00  0.00    +0.000 A 
ATOM     19  C   UNL     1       3.667   5.513  19.703  0.00  0.00    +0.000 A 
ATOM     20  C   UNL     1       2.469   4.974  20.180  0.00  0.00    +0.000 A 
ENDBRANCH   1  18
TORSDOF 2
ENDMDL
MODEL 2
REMARK VINA RESULT:      -8.0      0.210      1.192
REMARK  Name = 
REMARK  3 active torsions:
REMARK  status: ('A' for Active; 'I' for Inactive)
REMARK    1  A    between atoms: C_1  and  C_2
REMARK    2  A    between atoms: C_5  and  S_6
REMARK    3  A    between atoms: S_6  and  N_9
REMARK                            x       y       z     vdW  Elec       q    Type
REMARK                         _______ _______ _______ _____ _____    ______ ____
ROOT
ATOM      1  S   UNL     1       6.315   5.328  18.838  0.00  0.00    +0.000 S 
ATOM      2  O   UNL     1       6.079   6.475  17.980  0.00  0.00    +0.000 OA
ATOM      3  O   UNL     1       7.149   5.444  20.013  0.00  0.00    +0.000 OA
ENDROOT
BRANCH   1   4
ATOM      4  N   UNL     1       6.865   4.106  17.815  0.00  0.00    +0.000 N 
ATOM      5  C   UNL     1       6.664   4.322  16.462  0.00  0.00    +0.000 A 
ATOM      6  N   UNL     1       5.615   3.759  15.867  0.00  0.00    +0.000 NA
ATOM      7  S   UNL     1       5.699   4.203  14.260  0.00  0.00    +0.000 S 
ATOM      8  C   UNL     1       7.223   4.984  14.453  0.00  0.00    +0.000 A 
ATOM      9  N   UNL     1       7.916   5.520  13.434  0.00  0.00    +0.000 N 
ATOM     10  N   UNL     1       7.623   4.967  15.701  0.00  0.00    +0.000 NA
ATOM     11  H   UNL     1       6.364   3.268  18.109  0.00  0.00    +0.000 HD
ATOM     12  H   UNL     1       7.670   5.287  12.479  0.00  0.00    +0.000 HD
ATOM     13  H   UNL     1       8.902   5.700  13.588  0.00  0.00    +0.000 HD
ENDBRANCH   1   4
BRANCH   1  18
ATOM     14  C   UNL     1       0.820   3.231  20.331  0.00  0.00    +0.000 C 
ATOM     15  C   UNL     1       2.184   3.753  19.990  0.00  0.00    +0.000 A 
ATOM     16  C   UNL     1       2.406   5.128  19.835  0.00  0.00    +0.000 A 
ATOM     17  C   UNL     1       3.675   5.609  19.511  0.00  0.00    +0.000 A 
ATOM     18  C   UNL     1       4.731   4.710  19.345  0.00  0.00    +0.000 A 
ATOM     19  C   UNL     1       4.524   3.335  19.480  0.00  0.00    +0.000 A 
ATOM     20  C   UNL     1       3.252   2.861  19.809  0.00  0.00    +0.000 A 
ENDBRANCH   1  18
TORSDOF 2
ENDMDL
MODEL 3
REMARK VINA RESULT:      -8.0      1.111      1.111
REMARK  Name = 
REMARK  3 active torsions:
REMARK  status: ('A' for Active; 'I' for Inactive)
REMARK    1  A    between atoms: C_1  and  C_2
REMARK    2  A    between atoms: C_5  and  S_6
REMARK    3  A    between atoms: S_6  and  N_9
REMARK                            x       y       z     vdW  Elec       q    Type
REMARK                         _______ _______ _______ _____ _____    ______ ____
ROOT
ATOM      1  S   UNL     1       6.055   5.287  18.354  0.00  0.00    +0.000 S 
ATOM      2  O   UNL     1       5.875   6.471  17.532  0.00  0.00    +0.000 OA
ATOM      3  O   UNL     1       6.572   5.393  19.699  0.00  0.00    +0.000 OA
ENDROOT
BRANCH   1   4
ATOM      4  N   UNL     1       6.980   4.229  17.423  0.00  0.00    +0.000 N 
ATOM      5  C   UNL     1       6.821   4.341  16.052  0.00  0.00    +0.000 A 
ATOM      6  N   UNL     1       6.004   3.496  15.426  0.00  0.00    +0.000 NA
ATOM      7  S   UNL     1       6.074   3.897  13.807  0.00  0.00    +0.000 S 
ATOM      8  C   UNL     1       7.315   5.068  14.048  0.00  0.00    +0.000 A 
ATOM      9  N   UNL     1       7.906   5.740  13.046  0.00  0.00    +0.000 N 
ATOM     10  N   UNL     1       7.620   5.198  15.317  0.00  0.00    +0.000 NA
ATOM     11  H   UNL     1       6.704   3.296  17.728  0.00  0.00    +0.000 HD
ATOM     12  H   UNL     1       7.796   5.420  12.091  0.00  0.00    +0.000 HD
ATOM     13  H   UNL     1       8.795   6.186  13.247  0.00  0.00    +0.000 HD
ENDBRANCH   1   4
BRANCH   1  18
ATOM     14  C   UNL     1       0.662   2.544  18.829  0.00  0.00    +0.000 C 
ATOM     15  C   UNL     1       2.002   3.204  18.691  0.00  0.00    +0.000 A 
ATOM     16  C   UNL     1       3.120   2.705  19.373  0.00  0.00    +0.000 A 
ATOM     17  C   UNL     1       4.362   3.327  19.246  0.00  0.00    +0.000 A 
ATOM     18  C   UNL     1       4.491   4.452  18.428  0.00  0.00    +0.000 A 
ATOM     19  C   UNL     1       3.384   4.971  17.753  0.00  0.00    +0.000 A 
ATOM     20  C   UNL     1       2.143   4.342  17.881  0.00  0.00    +0.000 A 
ENDBRANCH   1  18
TORSDOF 2
ENDMDL
MODEL 4
REMARK VINA RESULT:      -7.6      2.995      5.832
REMARK  Name = 
REMARK  3 active torsions:
REMARK  status: ('A' for Active; 'I' for Inactive)
REMARK    1  A    between atoms: C_1  and  C_2
REMARK    2  A    between atoms: C_5  and  S_6
REMARK    3  A    between atoms: S_6  and  N_9
REMARK                            x       y       z     vdW  Elec       q    Type
REMARK                         _______ _______ _______ _____ _____    ______ ____
ROOT
ATOM      1  S   UNL     1       5.450   4.796  19.122  0.00  0.00    +0.000 S 
ATOM      2  O   UNL     1       6.711   5.074  19.786  0.00  0.00    +0.000 OA
ATOM      3  O   UNL     1       4.308   5.662  19.310  0.00  0.00    +0.000 OA
ENDROOT
BRANCH   1   4
ATOM      4  N   UNL     1       5.078   3.198  19.514  0.00  0.00    +0.000 N 
ATOM      5  C   UNL     1       3.745   2.943  19.788  0.00  0.00    +0.000 A 
ATOM      6  N   UNL     1       3.344   2.897  21.056  0.00  0.00    +0.000 NA
ATOM      7  S   UNL     1       1.713   2.548  21.015  0.00  0.00    +0.000 S 
ATOM      8  C   UNL     1       1.702   2.328  19.305  0.00  0.00    +0.000 A 
ATOM      9  N   UNL     1       0.620   1.930  18.615  0.00  0.00    +0.000 N 
ATOM     10  N   UNL     1       2.876   2.574  18.776  0.00  0.00    +0.000 NA
ATOM     11  H   UNL     1       5.646   2.987  20.334  0.00  0.00    +0.000 HD
ATOM     12  H   UNL     1      -0.171   1.529  19.105  0.00  0.00    +0.000 HD
ATOM     13  H   UNL     1       0.774   1.563  17.682  0.00  0.00    +0.000 HD
ENDBRANCH   1   4
BRANCH   1  18
ATOM     14  C   UNL     1       6.652   4.187  13.204  0.00  0.00    +0.000 C 
ATOM     15  C   UNL     1       6.353   4.366  14.664  0.00  0.00    +0.000 A 
ATOM     16  C   UNL     1       7.382   4.628  15.578  0.00  0.00    +0.000 A 
ATOM     17  C   UNL     1       7.100   4.787  16.935  0.00  0.00    +0.000 A 
ATOM     18  C   UNL     1       5.780   4.688  17.382  0.00  0.00    +0.000 A 
ATOM     19  C   UNL     1       4.745   4.411  16.486  0.00  0.00    +0.000 A 
ATOM     20  C   UNL     1       5.034   4.257  15.128  0.00  0.00    +0.000 A 
ENDBRANCH   1  18
TORSDOF 2
ENDMDL
MODEL 5
REMARK VINA RESULT:      -7.6      3.005      5.884
REMARK  Name = 
REMARK  3 active torsions:
REMARK  status: ('A' for Active; 'I' for Inactive)
REMARK    1  A    between atoms: C_1  and  C_2
REMARK    2  A    between atoms: C_5  and  S_6
REMARK    3  A    between atoms: S_6  and  N_9
REMARK                            x       y       z     vdW  Elec       q    Type
REMARK                         _______ _______ _______ _____ _____    ______ ____
ROOT
ATOM      1  S   UNL     1       5.452   4.749  19.092  0.00  0.00    +0.000 S 
ATOM      2  O   UNL     1       6.692   5.058  19.781  0.00  0.00    +0.000 OA
ATOM      3  O   UNL     1       4.308   5.626  19.198  0.00  0.00    +0.000 OA
ENDROOT
BRANCH   1   4
ATOM      4  N   UNL     1       5.062   3.174  19.553  0.00  0.00    +0.000 N 
ATOM      5  C   UNL     1       3.722   2.940  19.809  0.00  0.00    +0.000 A 
ATOM      6  N   UNL     1       3.293   2.957  21.069  0.00  0.00    +0.000 NA
ATOM      7  S   UNL     1       1.661   2.615  21.009  0.00  0.00    +0.000 S 
ATOM      8  C   UNL     1       1.685   2.312  19.313  0.00  0.00    +0.000 A 
ATOM      9  N   UNL     1       0.616   1.887  18.619  0.00  0.00    +0.000 N 
ATOM     10  N   UNL     1       2.872   2.527  18.798  0.00  0.00    +0.000 NA
ATOM     11  H   UNL     1       5.611   3.000  20.394  0.00  0.00    +0.000 HD
ATOM     12  H   UNL     1      -0.187   1.514  19.111  0.00  0.00    +0.000 HD
ATOM     13  H   UNL     1       0.788   1.474  17.709  0.00  0.00    +0.000 HD
ENDBRANCH   1   4
BRANCH   1  18
ATOM     14  C   UNL     1       6.690   4.312  13.166  0.00  0.00    +0.000 C 
ATOM     15  C   UNL     1       6.386   4.392  14.634  0.00  0.00    +0.000 A 
ATOM     16  C   UNL     1       5.077   4.222  15.104  0.00  0.00    +0.000 A 
ATOM     17  C   UNL     1       4.799   4.304  16.469  0.00  0.00    +0.000 A 
ATOM     18  C   UNL     1       5.837   4.552  17.371  0.00  0.00    +0.000 A 
ATOM     19  C   UNL     1       7.145   4.738  16.917  0.00  0.00    +0.000 A 
ATOM     20  C   UNL     1       7.417   4.651  15.550  0.00  0.00    +0.000 A 
ENDBRANCH   1  18
TORSDOF 2
ENDMDL
MODEL 6
REMARK VINA RESULT:      -7.1      3.191      6.078
REMARK  Name = 
REMARK  3 active torsions:
REMARK  status: ('A' for Active; 'I' for Inactive)
REMARK    1  A    between atoms: C_1  and  C_2
REMARK    2  A    between atoms: C_5  and  S_6
REMARK    3  A    between atoms: S_6  and  N_9
REMARK                            x       y       z     vdW  Elec       q    Type
REMARK                         _______ _______ _______ _____ _____    ______ ____
ROOT
ATOM      1  S   UNL     1       5.452   4.589  19.090  0.00  0.00    +0.000 S 
ATOM      2  O   UNL     1       5.401   3.209  19.537  0.00  0.00    +0.000 OA
ATOM      3  O   UNL     1       6.360   5.532  19.703  0.00  0.00    +0.000 OA
ENDROOT
BRANCH   1   4
ATOM      4  N   UNL     1       3.860   5.141  19.152  0.00  0.00    +0.000 N 
ATOM      5  C   UNL     1       2.912   4.197  19.508  0.00  0.00    +0.000 A 
ATOM      6  N   UNL     1       2.212   3.593  18.552  0.00  0.00    +0.000 NA
ATOM      7  S   UNL     1       1.161   2.555  19.330  0.00  0.00    +0.000 S 
ATOM      8  C   UNL     1       1.614   3.113  20.897  0.00  0.00    +0.000 A 
ATOM      9  N   UNL     1       1.030   2.692  22.031  0.00  0.00    +0.000 N 
ATOM     10  N   UNL     1       2.573   4.005  20.836  0.00  0.00    +0.000 NA
ATOM     11  H   UNL     1       3.663   5.492  18.215  0.00  0.00    +0.000 HD
ATOM     12  H   UNL     1       0.149   2.195  21.990  0.00  0.00    +0.000 HD
ATOM     13  H   UNL     1       1.159   3.265  22.859  0.00  0.00    +0.000 HD
ENDBRANCH   1   4
BRANCH   1  18
ATOM     14  C   UNL     1       6.670   4.297  13.151  0.00  0.00    +0.000 C 
ATOM     15  C   UNL     1       6.362   4.397  14.616  0.00  0.00    +0.000 A 
ATOM     16  C   UNL     1       7.335   4.835  15.524  0.00  0.00    +0.000 A 
ATOM     17  C   UNL     1       7.046   4.919  16.887  0.00  0.00    +0.000 A 
ATOM     18  C   UNL     1       5.774   4.568  17.345  0.00  0.00    +0.000 A 
ATOM     19  C   UNL     1       4.797   4.115  16.455  0.00  0.00    +0.000 A 
ATOM     20  C   UNL     1       5.092   4.037  15.092  0.00  0.00    +0.000 A 
ENDBRANCH   1  18
TORSDOF 2
ENDMDL
MODEL 7
REMARK VINA RESULT:      -7.1      1.301      1.482
REMARK  Name = 
REMARK  3 active torsions:
REMARK  status: ('A' for Active; 'I' for Inactive)
REMARK    1  A    between atoms: C_1  and  C_2
REMARK    2  A    between atoms: C_5  and  S_6
REMARK    3  A    between atoms: S_6  and  N_9
REMARK                            x       y       z     vdW  Elec       q    Type
REMARK                         _______ _______ _______ _____ _____    ______ ____
ROOT
ATOM      1  S   UNL     1       6.988   6.081  17.706  0.00  0.00    +0.000 S 
ATOM      2  O   UNL     1       6.811   7.124  16.711  0.00  0.00    +0.000 OA
ATOM      3  O   UNL     1       7.741   6.330  18.914  0.00  0.00    +0.000 OA
ENDROOT
BRANCH   1   4
ATOM      4  N   UNL     1       7.602   4.755  16.863  0.00  0.00    +0.000 N 
ATOM      5  C   UNL     1       7.162   4.619  15.558  0.00  0.00    +0.000 A 
ATOM      6  N   UNL     1       6.164   3.777  15.298  0.00  0.00    +0.000 NA
ATOM      7  S   UNL     1       5.917   3.845  13.648  0.00  0.00    +0.000 S 
ATOM      8  C   UNL     1       7.273   4.877  13.388  0.00  0.00    +0.000 A 
ATOM      9  N   UNL     1       7.687   5.264  12.170  0.00  0.00    +0.000 N 
ATOM     10  N   UNL     1       7.852   5.212  14.515  0.00  0.00    +0.000 NA
ATOM     11  H   UNL     1       7.323   3.941  17.409  0.00  0.00    +0.000 HD
ATOM     12  H   UNL     1       7.349   4.782  11.346  0.00  0.00    +0.000 HD
ATOM     13  H   UNL     1       8.632   5.626  12.095  0.00  0.00    +0.000 HD
ENDBRANCH   1   4
BRANCH   1  18
ATOM     14  C   UNL     1       1.503   4.231  19.530  0.00  0.00    +0.000 C 
ATOM     15  C   UNL     1       2.856   4.672  19.055  0.00  0.00    +0.000 A 
ATOM     16  C   UNL     1       3.999   3.914  19.346  0.00  0.00    +0.000 A 
ATOM     17  C   UNL     1       5.256   4.332  18.908  0.00  0.00    +0.000 A 
ATOM     18  C   UNL     1       5.372   5.513  18.171  0.00  0.00    +0.000 A 
ATOM     19  C   UNL     1       4.246   6.288  17.885  0.00  0.00    +0.000 A 
ATOM     20  C   UNL     1       2.989   5.861  18.323  0.00  0.00    +0.000 A 
ENDBRANCH   1  18
TORSDOF 2
ENDMDL
MODEL 8
REMARK VINA RESULT:      -6.8      2.897      6.256
REMARK  Name = 
REMARK  3 active torsions:
REMARK  status: ('A' for Active; 'I' for Inactive)
REMARK    1  A    between atoms: C_1  and  C_2
REMARK    2  A    between atoms: C_5  and  S_6
REMARK    3  A    between atoms: S_6  and  N_9
REMARK                            x       y       z     vdW  Elec       q    Type
REMARK                         _______ _______ _______ _____ _____    ______ ____
ROOT
ATOM      1  S   UNL     1       5.501   4.552  18.150  0.00  0.00    +0.000 S 
ATOM      2  O   UNL     1       6.746   4.405  18.882  0.00  0.00    +0.000 OA
ATOM      3  O   UNL     1       4.620   5.669  18.405  0.00  0.00    +0.000 OA
ENDROOT
BRANCH   1   4
ATOM      4  N   UNL     1       4.695   3.082  18.333  0.00  0.00    +0.000 N 
ATOM      5  C   UNL     1       3.714   3.054  19.309  0.00  0.00    +0.000 A 
ATOM      6  N   UNL     1       4.008   2.551  20.506  0.00  0.00    +0.000 NA
ATOM      7  S   UNL     1       2.608   2.651  21.409  0.00  0.00    +0.000 S 
ATOM      8  C   UNL     1       1.671   3.213  20.076  0.00  0.00    +0.000 A 
ATOM      9  N   UNL     1       0.346   3.425  20.138  0.00  0.00    +0.000 N 
ATOM     10  N   UNL     1       2.405   3.383  19.003  0.00  0.00    +0.000 NA
ATOM     11  H   UNL     1       5.424   2.405  18.556  0.00  0.00    +0.000 HD
ATOM     12  H   UNL     1      -0.190   3.048  20.911  0.00  0.00    +0.000 HD
ATOM     13  H   UNL     1      -0.157   3.480  19.258  0.00  0.00    +0.000 HD
ENDBRANCH   1   4
BRANCH   1  18
ATOM     14  C   UNL     1       6.997   4.327  12.272  0.00  0.00    +0.000 C 
ATOM     15  C   UNL     1       6.618   4.410  13.722  0.00  0.00    +0.000 A 
ATOM     16  C   UNL     1       7.518   4.918  14.669  0.00  0.00    +0.000 A 
ATOM     17  C   UNL     1       7.163   4.986  16.017  0.00  0.00    +0.000 A 
ATOM     18  C   UNL     1       5.900   4.548  16.421  0.00  0.00    +0.000 A 
ATOM     19  C   UNL     1       4.997   4.025  15.492  0.00  0.00    +0.000 A 
ATOM     20  C   UNL     1       5.357   3.963  14.144  0.00  0.00    +0.000 A 
ENDBRANCH   1  18
TORSDOF 2
ENDMDL
MODEL 9
REMARK VINA RESULT:      -6.8      1.926      2.553
REMARK  Name = 
REMARK  3 active torsions:
REMARK  status: ('A' for Active; 'I' for Inactive)
REMARK    1  A    between atoms: C_1  and  C_2
REMARK    2  A    between atoms: C_5  and  S_6
REMARK    3  A    between atoms: S_6  and  N_9
REMARK                            x       y       z     vdW  Elec       q    Type
REMARK                         _______ _______ _______ _____ _____    ______ ____
ROOT
ATOM      1  S   UNL     1       6.955   5.278  17.094  0.00  0.00    +0.000 S 
ATOM      2  O   UNL     1       7.432   6.424  17.846  0.00  0.00    +0.000 OA
ATOM      3  O   UNL     1       7.810   4.134  16.869  0.00  0.00    +0.000 OA
ENDROOT
BRANCH   1   4
ATOM      4  N   UNL     1       6.374   5.905  15.640  0.00  0.00    +0.000 N 
ATOM      5  C   UNL     1       6.670   5.164  14.508  0.00  0.00    +0.000 A 
ATOM      6  N   UNL     1       7.705   5.524  13.753  0.00  0.00    +0.000 NA
ATOM      7  S   UNL     1       7.750   4.445  12.481  0.00  0.00    +0.000 S 
ATOM      8  C   UNL     1       6.282   3.675  12.953  0.00  0.00    +0.000 A 
ATOM      9  N   UNL     1       5.693   2.700  12.240  0.00  0.00    +0.000 N 
ATOM     10  N   UNL     1       5.809   4.173  14.070  0.00  0.00    +0.000 NA
ATOM     11  H   UNL     1       6.791   6.832  15.565  0.00  0.00    +0.000 HD
ATOM     12  H   UNL     1       5.976   2.535  11.281  0.00  0.00    +0.000 HD
ATOM     13  H   UNL     1       4.717   2.508  12.435  0.00  0.00    +0.000 HD
ENDBRANCH   1   4
BRANCH   1  18
ATOM     14  C   UNL     1       1.750   3.538  19.684  0.00  0.00    +0.000 C 
ATOM     15  C   UNL     1       3.051   3.949  19.060  0.00  0.00    +0.000 A 
ATOM     16  C   UNL     1       3.855   4.928  19.660  0.00  0.00    +0.000 A 
ATOM     17  C   UNL     1       5.061   5.311  19.072  0.00  0.00    +0.000 A 
ATOM     18  C   UNL     1       5.469   4.710  17.879  0.00  0.00    +0.000 A 
ATOM     19  C   UNL     1       4.672   3.744  17.260  0.00  0.00    +0.000 A 
ATOM     20  C   UNL     1       3.468   3.362  17.856  0.00  0.00    +0.000 A 
ENDBRANCH   1  18
TORSDOF 2
ENDMDL
