MODEL 1
REMARK VINA RESULT:      -8.1      0.000      0.000
REMARK  Name = 
REMARK  12 active torsions:
REMARK  status: ('A' for Active; 'I' for Inactive)
REMARK    1  A    between atoms: C_1  and  O_2
REMARK    2  A    between atoms: O_2  and  C_3
REMARK    3  A    between atoms: C_8  and  C_9
REMARK    4  A    between atoms: C_12  and  C_13
REMARK    5  A    between atoms: C_13  and  CA_14
REMARK    6  A    between atoms: CA_14  and  N_15
REMARK    7  A    between atoms: CA_14  and  C_27
REMARK    8  A    between atoms: C_16  and  C_18
REMARK    9  A    between atoms: C_18  and  C_19
REMARK   10  A    between atoms: C_18  and  C_20
REMARK   11  A    between atoms: C_18  and  C_21
REMARK   12  A    between atoms: C_27  and  OXT_29
REMARK                            x       y       z     vdW  Elec       q    Type
REMARK                         _______ _______ _______ _____ _____    ______ ____
ROOT
ATOM      1  CA  UNL     1       0.076  11.978  19.011  0.00  0.00    +0.000 C 
ENDROOT
BRANCH   1   2
ATOM      2  N   UNL     1       0.340  13.298  19.613  0.00  0.00    +0.000 N 
ATOM      3  C   UNL     1       1.261  14.149  19.043  0.00  0.00    +0.000 C 
ATOM      4  O   UNL     1       1.885  13.782  18.043  0.00  0.00    +0.000 OA
ATOM      5  H   UNL     1      -0.394  13.698  20.186  0.00  0.00    +0.000 HD
BRANCH   3   6
ATOM      6  C   UNL     1       1.389  15.592  19.640  0.00  0.00    +0.000 C 
ATOM      7  C   UNL     1       0.691  15.661  21.019  0.00  0.00    +0.000 C 
ATOM      8  C   UNL     1       2.893  15.856  19.890  0.00  0.00    +0.000 C 
BRANCH   6   9
ATOM      9  C   UNL     1       0.867  16.656  18.652  0.00  0.00    +0.000 A 
ATOM     10  C   UNL     1      -0.486  17.044  18.615  0.00  0.00    +0.000 A 
ATOM     11  C   UNL     1      -0.948  17.982  17.683  0.00  0.00    +0.000 A 
ATOM     12  C   UNL     1      -0.066  18.566  16.780  0.00  0.00    +0.000 A 
ATOM     13  C   UNL     1       1.283  18.240  16.833  0.00  0.00    +0.000 A 
ATOM     14  C   UNL     1       1.746  17.311  17.769  0.00  0.00    +0.000 A 
ENDBRANCH   6   9
ENDBRANCH   3   6
ENDBRANCH   1   2
BRANCH   1  15
ATOM     15  C   UNL     1      -1.384  11.990  18.548  0.00  0.00    +0.000 C 
ATOM     16  O   UNL     1      -2.348  11.839  19.282  0.00  0.00    +0.000 OA
BRANCH  15  17
ATOM     17  OXT UNL     1      -1.515  12.337  17.240  0.00  0.00    +0.000 OA
ATOM     18  HXT UNL     1      -1.850  13.253  17.122  0.00  0.00    +0.000 HD
ENDBRANCH  15  17
ENDBRANCH   1  15
BRANCH   1  19
ATOM     19  C   UNL     1       0.348  10.846  20.012  0.00  0.00    +0.000 C 
BRANCH  19  23
ATOM     20  C   UNL     1       2.497   7.361  18.448  0.00  0.00    +0.000 A 
ATOM     21  C   UNL     1       2.104   8.426  17.614  0.00  0.00    +0.000 A 
ATOM     22  C   UNL     1       1.360   9.516  18.092  0.00  0.00    +0.000 A 
ATOM     23  C   UNL     1       0.995   9.598  19.439  0.00  0.00    +0.000 A 
ATOM     24  C   UNL     1       1.348   8.535  20.276  0.00  0.00    +0.000 A 
ATOM     25  C   UNL     1       2.077   7.437  19.787  0.00  0.00    +0.000 A 
BRANCH  20  31
ATOM     26  C   UNL     1       2.918   4.924  17.745  0.00  0.00    +0.000 A 
ATOM     27  C   UNL     1       3.772   3.956  17.188  0.00  0.00    +0.000 A 
ATOM     28  C   UNL     1       5.097   4.265  16.879  0.00  0.00    +0.000 A 
ATOM     29  C   UNL     1       5.574   5.543  17.112  0.00  0.00    +0.000 A 
ATOM     30  C   UNL     1       4.720   6.524  17.629  0.00  0.00    +0.000 A 
ATOM     31  C   UNL     1       3.370   6.254  17.950  0.00  0.00    +0.000 A 
BRANCH  26  33
ATOM     32  C   UNL     1       1.391   3.446  18.810  0.00  0.00    +0.000 C 
ATOM     33  O   UNL     1       1.613   4.639  18.069  0.00  0.00    +0.000 OA
ENDBRANCH  26  33
ENDBRANCH  20  31
ENDBRANCH  19  23
ENDBRANCH   1  19
TORSDOF 9
ENDMDL
MODEL 2
REMARK VINA RESULT:      -8.0      0.963      1.909
REMARK  Name = 
REMARK  12 active torsions:
REMARK  status: ('A' for Active; 'I' for Inactive)
REMARK    1  A    between atoms: C_1  and  O_2
REMARK    2  A    between atoms: O_2  and  C_3
REMARK    3  A    between atoms: C_8  and  C_9
REMARK    4  A    between atoms: C_12  and  C_13
REMARK    5  A    between atoms: C_13  and  CA_14
REMARK    6  A    between atoms: CA_14  and  N_15
REMARK    7  A    between atoms: CA_14  and  C_27
REMARK    8  A    between atoms: C_16  and  C_18
REMARK    9  A    between atoms: C_18  and  C_19
REMARK   10  A    between atoms: C_18  and  C_20
REMARK   11  A    between atoms: C_18  and  C_21
REMARK   12  A    between atoms: C_27  and  OXT_29
REMARK                            x       y       z     vdW  Elec       q    Type
REMARK                         _______ _______ _______ _____ _____    ______ ____
ROOT
ATOM      1  CA  UNL     1       0.485  12.094  18.961  0.00  0.00    +0.000 C 
ENDROOT
BRANCH   1   2
ATOM      2  N   UNL     1       0.802  13.439  19.474  0.00  0.00    +0.000 N 
ATOM      3  C   UNL     1       1.757  14.213  18.850  0.00  0.00    +0.000 C 
ATOM      4  O   UNL     1       2.366  13.753  17.879  0.00  0.00    +0.000 OA
ATOM      5  H   UNL     1       0.085  13.907  20.016  0.00  0.00    +0.000 HD
BRANCH   3   6
ATOM      6  C   UNL     1       1.943  15.686  19.349  0.00  0.00    +0.000 C 
ATOM      7  C   UNL     1       1.537  15.800  20.837  0.00  0.00    +0.000 C 
ATOM      8  C   UNL     1       3.454  16.011  19.275  0.00  0.00    +0.000 C 
BRANCH   6   9
ATOM      9  C   UNL     1       1.188  16.683  18.446  0.00  0.00    +0.000 A 
ATOM     10  C   UNL     1       1.846  17.453  17.467  0.00  0.00    +0.000 A 
ATOM     11  C   UNL     1       1.150  18.382  16.683  0.00  0.00    +0.000 A 
ATOM     12  C   UNL     1      -0.220  18.551  16.849  0.00  0.00    +0.000 A 
ATOM     13  C   UNL     1      -0.901  17.766  17.771  0.00  0.00    +0.000 A 
ATOM     14  C   UNL     1      -0.208  16.832  18.546  0.00  0.00    +0.000 A 
ENDBRANCH   6   9
ENDBRANCH   3   6
ENDBRANCH   1   2
BRANCH   1  15
ATOM     15  C   UNL     1      -1.001  12.103  18.590  0.00  0.00    +0.000 C 
ATOM     16  O   UNL     1      -1.905  11.746  19.329  0.00  0.00    +0.000 OA
BRANCH  15  17
ATOM     17  OXT UNL     1      -1.236  12.694  17.389  0.00  0.00    +0.000 OA
ATOM     18  HXT UNL     1      -0.767  13.553  17.291  0.00  0.00    +0.000 HD
ENDBRANCH  15  17
ENDBRANCH   1  15
BRANCH   1  19
ATOM     19  C   UNL     1       0.807  11.012  20.003  0.00  0.00    +0.000 C 
BRANCH  19  23
ATOM     20  C   UNL     1       2.301   7.193  18.458  0.00  0.00    +0.000 A 
ATOM     21  C   UNL     1       1.976   8.263  17.603  0.00  0.00    +0.000 A 
ATOM     22  C   UNL     1       1.437   9.467  18.081  0.00  0.00    +0.000 A 
ATOM     23  C   UNL     1       1.219   9.661  19.448  0.00  0.00    +0.000 A 
ATOM     24  C   UNL     1       1.507   8.598  20.311  0.00  0.00    +0.000 A 
ATOM     25  C   UNL     1       2.029   7.389  19.824  0.00  0.00    +0.000 A 
BRANCH  20  31
ATOM     26  C   UNL     1       4.318   5.897  17.531  0.00  0.00    +0.000 A 
ATOM     27  C   UNL     1       4.900   4.675  17.149  0.00  0.00    +0.000 A 
ATOM     28  C   UNL     1       4.143   3.503  17.116  0.00  0.00    +0.000 A 
ATOM     29  C   UNL     1       2.807   3.541  17.477  0.00  0.00    +0.000 A 
ATOM     30  C   UNL     1       2.231   4.745  17.897  0.00  0.00    +0.000 A 
ATOM     31  C   UNL     1       2.964   5.953  17.949  0.00  0.00    +0.000 A 
BRANCH  26  33
ATOM     32  C   UNL     1       6.423   6.964  17.240  0.00  0.00    +0.000 C 
ATOM     33  O   UNL     1       5.041   7.066  17.557  0.00  0.00    +0.000 OA
ENDBRANCH  26  33
ENDBRANCH  20  31
ENDBRANCH  19  23
ENDBRANCH   1  19
TORSDOF 9
ENDMDL
MODEL 3
REMARK VINA RESULT:      -7.9      0.429      1.002
REMARK  Name = 
REMARK  12 active torsions:
REMARK  status: ('A' for Active; 'I' for Inactive)
REMARK    1  A    between atoms: C_1  and  O_2
REMARK    2  A    between atoms: O_2  and  C_3
REMARK    3  A    between atoms: C_8  and  C_9
REMARK    4  A    between atoms: C_12  and  C_13
REMARK    5  A    between atoms: C_13  and  CA_14
REMARK    6  A    between atoms: CA_14  and  N_15
REMARK    7  A    between atoms: CA_14  and  C_27
REMARK    8  A    between atoms: C_16  and  C_18
REMARK    9  A    between atoms: C_18  and  C_19
REMARK   10  A    between atoms: C_18  and  C_20
REMARK   11  A    between atoms: C_18  and  C_21
REMARK   12  A    between atoms: C_27  and  OXT_29
REMARK                            x       y       z     vdW  Elec       q    Type
REMARK                         _______ _______ _______ _____ _____    ______ ____
ROOT
ATOM      1  CA  UNL     1       0.221  11.922  18.909  0.00  0.00    +0.000 C 
ENDROOT
BRANCH   1   2
ATOM      2  N   UNL     1       0.560  13.238  19.480  0.00  0.00    +0.000 N 
ATOM      3  C   UNL     1       1.525  14.024  18.889  0.00  0.00    +0.000 C 
ATOM      4  O   UNL     1       2.125  13.599  17.896  0.00  0.00    +0.000 OA
ATOM      5  H   UNL     1      -0.148  13.692  20.045  0.00  0.00    +0.000 HD
BRANCH   3   6
ATOM      6  C   UNL     1       1.736  15.471  19.452  0.00  0.00    +0.000 C 
ATOM      7  C   UNL     1       1.208  15.558  20.903  0.00  0.00    +0.000 C 
ATOM      8  C   UNL     1       3.261  15.723  19.518  0.00  0.00    +0.000 C 
BRANCH   6   9
ATOM      9  C   UNL     1       1.109  16.531  18.523  0.00  0.00    +0.000 A 
ATOM     10  C   UNL     1       1.886  17.311  17.645  0.00  0.00    +0.000 A 
ATOM     11  C   UNL     1       1.304  18.296  16.838  0.00  0.00    +0.000 A 
ATOM     12  C   UNL     1      -0.070  18.512  16.878  0.00  0.00    +0.000 A 
ATOM     13  C   UNL     1      -0.865  17.720  17.696  0.00  0.00    +0.000 A 
ATOM     14  C   UNL     1      -0.284  16.730  18.495  0.00  0.00    +0.000 A 
ENDBRANCH   6   9
ENDBRANCH   3   6
ENDBRANCH   1   2
BRANCH   1  15
ATOM     15  C   UNL     1      -1.248  11.994  18.479  0.00  0.00    +0.000 C 
ATOM     16  O   UNL     1      -1.840  11.113  17.876  0.00  0.00    +0.000 OA
BRANCH  15  17
ATOM     17  OXT UNL     1      -1.882  13.092  18.967  0.00  0.00    +0.000 OA
ATOM     18  HXT UNL     1      -2.329  12.921  19.826  0.00  0.00    +0.000 HD
ENDBRANCH  15  17
ENDBRANCH   1  15
BRANCH   1  19
ATOM     19  C   UNL     1       0.464  10.796  19.925  0.00  0.00    +0.000 C 
BRANCH  19  23
ATOM     20  C   UNL     1       2.552   7.256  18.405  0.00  0.00    +0.000 A 
ATOM     21  C   UNL     1       2.148   8.301  17.553  0.00  0.00    +0.000 A 
ATOM     22  C   UNL     1       1.423   9.409  18.019  0.00  0.00    +0.000 A 
ATOM     23  C   UNL     1       1.088   9.529  19.370  0.00  0.00    +0.000 A 
ATOM     24  C   UNL     1       1.453   8.485  20.227  0.00  0.00    +0.000 A 
ATOM     25  C   UNL     1       2.163   7.370  19.751  0.00  0.00    +0.000 A 
BRANCH  20  31
ATOM     26  C   UNL     1       2.924   4.814  17.693  0.00  0.00    +0.000 A 
ATOM     27  C   UNL     1       3.763   3.827  17.147  0.00  0.00    +0.000 A 
ATOM     28  C   UNL     1       5.102   4.103  16.868  0.00  0.00    +0.000 A 
ATOM     29  C   UNL     1       5.608   5.367  17.120  0.00  0.00    +0.000 A 
ATOM     30  C   UNL     1       4.769   6.366  17.626  0.00  0.00    +0.000 A 
ATOM     31  C   UNL     1       3.406   6.130  17.917  0.00  0.00    +0.000 A 
BRANCH  26  33
ATOM     32  C   UNL     1       1.322   3.310  18.602  0.00  0.00    +0.000 C 
ATOM     33  O   UNL     1       1.605   4.561  17.988  0.00  0.00    +0.000 OA
ENDBRANCH  26  33
ENDBRANCH  20  31
ENDBRANCH  19  23
ENDBRANCH   1  19
TORSDOF 9
ENDMDL
MODEL 4
REMARK VINA RESULT:      -7.7      5.128      9.898
REMARK  Name = 
REMARK  12 active torsions:
REMARK  status: ('A' for Active; 'I' for Inactive)
REMARK    1  A    between atoms: C_1  and  O_2
REMARK    2  A    between atoms: O_2  and  C_3
REMARK    3  A    between atoms: C_8  and  C_9
REMARK    4  A    between atoms: C_12  and  C_13
REMARK    5  A    between atoms: C_13  and  CA_14
REMARK    6  A    between atoms: CA_14  and  N_15
REMARK    7  A    between atoms: CA_14  and  C_27
REMARK    8  A    between atoms: C_16  and  C_18
REMARK    9  A    between atoms: C_18  and  C_19
REMARK   10  A    between atoms: C_18  and  C_20
REMARK   11  A    between atoms: C_18  and  C_21
REMARK   12  A    between atoms: C_27  and  OXT_29
REMARK                            x       y       z     vdW  Elec       q    Type
REMARK                         _______ _______ _______ _____ _____    ______ ____
ROOT
ATOM      1  CA  UNL     1       7.073   6.945  17.537  0.00  0.00    +0.000 C 
ENDROOT
BRANCH   1   2
ATOM      2  N   UNL     1       5.821   6.666  18.263  0.00  0.00    +0.000 N 
ATOM      3  C   UNL     1       4.639   6.507  17.573  0.00  0.00    +0.000 C 
ATOM      4  O   UNL     1       4.636   6.633  16.344  0.00  0.00    +0.000 OA
ATOM      5  H   UNL     1       5.903   6.239  19.178  0.00  0.00    +0.000 HD
BRANCH   3   6
ATOM      6  C   UNL     1       3.373   6.067  18.384  0.00  0.00    +0.000 C 
ATOM      7  C   UNL     1       2.573   5.009  17.588  0.00  0.00    +0.000 C 
ATOM      8  C   UNL     1       3.870   5.371  19.673  0.00  0.00    +0.000 C 
BRANCH   6   9
ATOM      9  C   UNL     1       2.516   7.284  18.790  0.00  0.00    +0.000 A 
ATOM     10  C   UNL     1       2.035   7.457  20.102  0.00  0.00    +0.000 A 
ATOM     11  C   UNL     1       1.224   8.548  20.441  0.00  0.00    +0.000 A 
ATOM     12  C   UNL     1       0.892   9.499  19.483  0.00  0.00    +0.000 A 
ATOM     13  C   UNL     1       1.398   9.379  18.194  0.00  0.00    +0.000 A 
ATOM     14  C   UNL     1       2.214   8.295  17.858  0.00  0.00    +0.000 A 
ENDBRANCH   6   9
ENDBRANCH   3   6
ENDBRANCH   1   2
BRANCH   1  15
ATOM     15  C   UNL     1       7.480   5.640  16.845  0.00  0.00    +0.000 C 
ATOM     16  O   UNL     1       7.782   4.610  17.426  0.00  0.00    +0.000 OA
BRANCH  15  17
ATOM     17  OXT UNL     1       7.331   5.696  15.496  0.00  0.00    +0.000 OA
ATOM     18  HXT UNL     1       6.480   5.307  15.192  0.00  0.00    +0.000 HD
ENDBRANCH  15  17
ENDBRANCH   1  15
BRANCH   1  19
ATOM     19  C   UNL     1       8.167   7.451  18.490  0.00  0.00    +0.000 C 
BRANCH  19  23
ATOM     20  C   UNL     1       9.154  11.708  18.159  0.00  0.00    +0.000 A 
ATOM     21  C   UNL     1       9.721  10.891  19.155  0.00  0.00    +0.000 A 
ATOM     22  C   UNL     1       9.364   9.542  19.310  0.00  0.00    +0.000 A 
ATOM     23  C   UNL     1       8.434   8.945  18.455  0.00  0.00    +0.000 A 
ATOM     24  C   UNL     1       7.835   9.749  17.479  0.00  0.00    +0.000 A 
ATOM     25  C   UNL     1       8.184  11.103  17.340  0.00  0.00    +0.000 A 
BRANCH  20  31
ATOM     26  C   UNL     1       8.960  14.250  18.490  0.00  0.00    +0.000 A 
ATOM     27  C   UNL     1       9.499  15.537  18.319  0.00  0.00    +0.000 A 
ATOM     28  C   UNL     1      10.653  15.733  17.559  0.00  0.00    +0.000 A 
ATOM     29  C   UNL     1      11.281  14.646  16.977  0.00  0.00    +0.000 A 
ATOM     30  C   UNL     1      10.774  13.357  17.175  0.00  0.00    +0.000 A 
ATOM     31  C   UNL     1       9.612  13.115  17.942  0.00  0.00    +0.000 A 
BRANCH  26  33
ATOM     32  C   UNL     1       6.759  14.965  19.035  0.00  0.00    +0.000 C 
ATOM     33  O   UNL     1       7.817  14.035  19.224  0.00  0.00    +0.000 OA
ENDBRANCH  26  33
ENDBRANCH  20  31
ENDBRANCH  19  23
ENDBRANCH   1  19
TORSDOF 9
ENDMDL
MODEL 5
REMARK VINA RESULT:      -7.7      1.887      3.536
REMARK  Name = 
REMARK  12 active torsions:
REMARK  status: ('A' for Active; 'I' for Inactive)
REMARK    1  A    between atoms: C_1  and  O_2
REMARK    2  A    between atoms: O_2  and  C_3
REMARK    3  A    between atoms: C_8  and  C_9
REMARK    4  A    between atoms: C_12  and  C_13
REMARK    5  A    between atoms: C_13  and  CA_14
REMARK    6  A    between atoms: CA_14  and  N_15
REMARK    7  A    between atoms: CA_14  and  C_27
REMARK    8  A    between atoms: C_16  and  C_18
REMARK    9  A    between atoms: C_18  and  C_19
REMARK   10  A    between atoms: C_18  and  C_20
REMARK   11  A    between atoms: C_18  and  C_21
REMARK   12  A    between atoms: C_27  and  OXT_29
REMARK                            x       y       z     vdW  Elec       q    Type
REMARK                         _______ _______ _______ _____ _____    ______ ____
ROOT
ATOM      1  CA  UNL     1       0.449  11.521  18.729  0.00  0.00    +0.000 C 
ENDROOT
BRANCH   1   2
ATOM      2  N   UNL     1       1.016  12.846  19.041  0.00  0.00    +0.000 N 
ATOM      3  C   UNL     1       2.258  13.200  18.561  0.00  0.00    +0.000 C 
ATOM      4  O   UNL     1       2.903  12.383  17.896  0.00  0.00    +0.000 OA
ATOM      5  H   UNL     1       0.362  13.585  19.270  0.00  0.00    +0.000 HD
BRANCH   3   6
ATOM      6  C   UNL     1       2.742  14.671  18.799  0.00  0.00    +0.000 C 
ATOM      7  C   UNL     1       3.260  15.282  17.476  0.00  0.00    +0.000 C 
ATOM      8  C   UNL     1       1.505  15.501  19.218  0.00  0.00    +0.000 C 
BRANCH   6   9
ATOM      9  C   UNL     1       3.781  14.741  19.938  0.00  0.00    +0.000 A 
ATOM     10  C   UNL     1       3.443  14.471  21.278  0.00  0.00    +0.000 A 
ATOM     11  C   UNL     1       4.391  14.579  22.303  0.00  0.00    +0.000 A 
ATOM     12  C   UNL     1       5.701  14.944  22.010  0.00  0.00    +0.000 A 
ATOM     13  C   UNL     1       6.072  15.165  20.690  0.00  0.00    +0.000 A 
ATOM     14  C   UNL     1       5.128  15.047  19.665  0.00  0.00    +0.000 A 
ENDBRANCH   6   9
ENDBRANCH   3   6
ENDBRANCH   1   2
BRANCH   1  15
ATOM     15  C   UNL     1      -1.026  11.744  18.383  0.00  0.00    +0.000 C 
ATOM     16  O   UNL     1      -1.965  11.244  18.982  0.00  0.00    +0.000 OA
BRANCH  15  17
ATOM     17  OXT UNL     1      -1.200  12.685  17.417  0.00  0.00    +0.000 OA
ATOM     18  HXT UNL     1      -1.927  12.460  16.794  0.00  0.00    +0.000 HD
ENDBRANCH  15  17
ENDBRANCH   1  15
BRANCH   1  19
ATOM     19  C   UNL     1       0.618  10.553  19.910  0.00  0.00    +0.000 C 
BRANCH  19  23
ATOM     20  C   UNL     1       2.360   6.666  18.879  0.00  0.00    +0.000 A 
ATOM     21  C   UNL     1       1.900   6.951  20.179  0.00  0.00    +0.000 A 
ATOM     22  C   UNL     1       1.399   8.213  20.536  0.00  0.00    +0.000 A 
ATOM     23  C   UNL     1       1.317   9.243  19.595  0.00  0.00    +0.000 A 
ATOM     24  C   UNL     1       1.799   8.989  18.306  0.00  0.00    +0.000 A 
ATOM     25  C   UNL     1       2.316   7.729  17.960  0.00  0.00    +0.000 A 
BRANCH  20  31
ATOM     26  C   UNL     1       4.072   4.749  18.808  0.00  0.00    +0.000 A 
ATOM     27  C   UNL     1       4.384   3.417  18.483  0.00  0.00    +0.000 A 
ATOM     28  C   UNL     1       3.475   2.620  17.786  0.00  0.00    +0.000 A 
ATOM     29  C   UNL     1       2.246   3.142  17.421  0.00  0.00    +0.000 A 
ATOM     30  C   UNL     1       1.912   4.454  17.775  0.00  0.00    +0.000 A 
ATOM     31  C   UNL     1       2.801   5.293  18.485  0.00  0.00    +0.000 A 
BRANCH  26  33
ATOM     32  C   UNL     1       6.336   5.354  19.206  0.00  0.00    +0.000 C 
ATOM     33  O   UNL     1       4.956   5.557  19.482  0.00  0.00    +0.000 OA
ENDBRANCH  26  33
ENDBRANCH  20  31
ENDBRANCH  19  23
ENDBRANCH   1  19
TORSDOF 9
ENDMDL
MODEL 6
REMARK VINA RESULT:      -7.5      4.103      9.859
REMARK  Name = 
REMARK  12 active torsions:
REMARK  status: ('A' for Active; 'I' for Inactive)
REMARK    1  A    between atoms: C_1  and  O_2
REMARK    2  A    between atoms: O_2  and  C_3
REMARK    3  A    between atoms: C_8  and  C_9
REMARK    4  A    between atoms: C_12  and  C_13
REMARK    5  A    between atoms: C_13  and  CA_14
REMARK    6  A    between atoms: CA_14  and  N_15
REMARK    7  A    between atoms: CA_14  and  C_27
REMARK    8  A    between atoms: C_16  and  C_18
REMARK    9  A    between atoms: C_18  and  C_19
REMARK   10  A    between atoms: C_18  and  C_20
REMARK   11  A    between atoms: C_18  and  C_21
REMARK   12  A    between atoms: C_27  and  OXT_29
REMARK                            x       y       z     vdW  Elec       q    Type
REMARK                         _______ _______ _______ _____ _____    ______ ____
ROOT
ATOM      1  CA  UNL     1       3.439   3.654  18.312  0.00  0.00    +0.000 C 
ENDROOT
BRANCH   1   2
ATOM      2  N   UNL     1       4.015   4.684  17.428  0.00  0.00    +0.000 N 
ATOM      3  C   UNL     1       5.365   4.685  17.151  0.00  0.00    +0.000 C 
ATOM      4  O   UNL     1       6.090   3.835  17.677  0.00  0.00    +0.000 OA
ATOM      5  H   UNL     1       3.389   5.126  16.766  0.00  0.00    +0.000 HD
BRANCH   3   6
ATOM      6  C   UNL     1       5.892   5.711  16.091  0.00  0.00    +0.000 C 
ATOM      7  C   UNL     1       4.911   6.901  15.969  0.00  0.00    +0.000 C 
ATOM      8  C   UNL     1       7.224   6.287  16.628  0.00  0.00    +0.000 C 
BRANCH   6   9
ATOM      9  C   UNL     1       6.171   5.025  14.737  0.00  0.00    +0.000 A 
ATOM     10  C   UNL     1       5.264   4.118  14.156  0.00  0.00    +0.000 A 
ATOM     11  C   UNL     1       5.553   3.474  12.946  0.00  0.00    +0.000 A 
ATOM     12  C   UNL     1       6.747   3.735  12.282  0.00  0.00    +0.000 A 
ATOM     13  C   UNL     1       7.635   4.666  12.808  0.00  0.00    +0.000 A 
ATOM     14  C   UNL     1       7.341   5.315  14.011  0.00  0.00    +0.000 A 
ENDBRANCH   6   9
ENDBRANCH   3   6
ENDBRANCH   1   2
BRANCH   1  15
ATOM     15  C   UNL     1       2.084   3.266  17.711  0.00  0.00    +0.000 C 
ATOM     16  O   UNL     1       1.277   4.057  17.248  0.00  0.00    +0.000 OA
BRANCH  15  17
ATOM     17  OXT UNL     1       1.924   1.921  17.608  0.00  0.00    +0.000 OA
ATOM     18  HXT UNL     1       1.143   1.592  18.107  0.00  0.00    +0.000 HD
ENDBRANCH  15  17
ENDBRANCH   1  15
BRANCH   1  19
ATOM     19  C   UNL     1       3.299   4.171  19.751  0.00  0.00    +0.000 C 
BRANCH  19  23
ATOM     20  C   UNL     1       1.449   8.136  19.995  0.00  0.00    +0.000 A 
ATOM     21  C   UNL     1       2.466   7.848  19.065  0.00  0.00    +0.000 A 
ATOM     22  C   UNL     1       3.110   6.602  19.021  0.00  0.00    +0.000 A 
ATOM     23  C   UNL     1       2.745   5.576  19.898  0.00  0.00    +0.000 A 
ATOM     24  C   UNL     1       1.758   5.853  20.850  0.00  0.00    +0.000 A 
ATOM     25  C   UNL     1       1.130   7.109  20.901  0.00  0.00    +0.000 A 
BRANCH  20  31
ATOM     26  C   UNL     1       0.515  10.256  21.111  0.00  0.00    +0.000 A 
ATOM     27  C   UNL     1      -0.117  11.506  20.994  0.00  0.00    +0.000 A 
ATOM     28  C   UNL     1      -0.622  11.940  19.768  0.00  0.00    +0.000 A 
ATOM     29  C   UNL     1      -0.488  11.135  18.650  0.00  0.00    +0.000 A 
ATOM     30  C   UNL     1       0.175   9.907  18.748  0.00  0.00    +0.000 A 
ATOM     31  C   UNL     1       0.705   9.433  19.970  0.00  0.00    +0.000 A 
BRANCH  26  33
ATOM     32  C   UNL     1       0.052   9.543  23.331  0.00  0.00    +0.000 C 
ATOM     33  O   UNL     1       1.008   9.802  22.311  0.00  0.00    +0.000 OA
ENDBRANCH  26  33
ENDBRANCH  20  31
ENDBRANCH  19  23
ENDBRANCH   1  19
TORSDOF 9
ENDMDL
MODEL 7
REMARK VINA RESULT:      -7.5      3.137      9.121
REMARK  Name = 
REMARK  12 active torsions:
REMARK  status: ('A' for Active; 'I' for Inactive)
REMARK    1  A    between atoms: C_1  and  O_2
REMARK    2  A    between atoms: O_2  and  C_3
REMARK    3  A    between atoms: C_8  and  C_9
REMARK    4  A    between atoms: C_12  and  C_13
REMARK    5  A    between atoms: C_13  and  CA_14
REMARK    6  A    between atoms: CA_14  and  N_15
REMARK    7  A    between atoms: CA_14  and  C_27
REMARK    8  A    between atoms: C_16  and  C_18
REMARK    9  A    between atoms: C_18  and  C_19
REMARK   10  A    between atoms: C_18  and  C_20
REMARK   11  A    between atoms: C_18  and  C_21
REMARK   12  A    between atoms: C_27  and  OXT_29
REMARK                            x       y       z     vdW  Elec       q    Type
REMARK                         _______ _______ _______ _____ _____    ______ ____
ROOT
ATOM      1  CA  UNL     1       2.686   4.321  19.407  0.00  0.00    +0.000 C 
ENDROOT
BRANCH   1   2
ATOM      2  N   UNL     1       3.557   5.001  18.430  0.00  0.00    +0.000 N 
ATOM      3  C   UNL     1       4.850   4.569  18.234  0.00  0.00    +0.000 C 
ATOM      4  O   UNL     1       5.281   3.628  18.909  0.00  0.00    +0.000 OA
ATOM      5  H   UNL     1       3.101   5.506  17.679  0.00  0.00    +0.000 HD
BRANCH   3   6
ATOM      6  C   UNL     1       5.676   5.234  17.080  0.00  0.00    +0.000 C 
ATOM      7  C   UNL     1       6.326   4.144  16.195  0.00  0.00    +0.000 C 
ATOM      8  C   UNL     1       4.677   5.998  16.180  0.00  0.00    +0.000 C 
BRANCH   6   9
ATOM      9  C   UNL     1       6.701   6.245  17.635  0.00  0.00    +0.000 A 
ATOM     10  C   UNL     1       7.577   5.921  18.688  0.00  0.00    +0.000 A 
ATOM     11  C   UNL     1       8.473   6.865  19.205  0.00  0.00    +0.000 A 
ATOM     12  C   UNL     1       8.525   8.148  18.670  0.00  0.00    +0.000 A 
ATOM     13  C   UNL     1       7.708   8.476  17.595  0.00  0.00    +0.000 A 
ATOM     14  C   UNL     1       6.821   7.530  17.073  0.00  0.00    +0.000 A 
ENDBRANCH   6   9
ENDBRANCH   3   6
ENDBRANCH   1   2
BRANCH   1  15
ATOM     15  C   UNL     1       1.451   3.842  18.637  0.00  0.00    +0.000 C 
ATOM     16  O   UNL     1       0.517   3.232  19.132  0.00  0.00    +0.000 OA
BRANCH  15  17
ATOM     17  OXT UNL     1       1.425   4.295  17.356  0.00  0.00    +0.000 OA
ATOM     18  HXT UNL     1       2.080   3.842  16.780  0.00  0.00    +0.000 HD
ENDBRANCH  15  17
ENDBRANCH   1  15
BRANCH   1  19
ATOM     19  C   UNL     1       2.310   5.259  20.563  0.00  0.00    +0.000 C 
BRANCH  19  23
ATOM     20  C   UNL     1       1.229   9.339  19.387  0.00  0.00    +0.000 A 
ATOM     21  C   UNL     1       1.910   8.472  18.513  0.00  0.00    +0.000 A 
ATOM     22  C   UNL     1       2.317   7.186  18.901  0.00  0.00    +0.000 A 
ATOM     23  C   UNL     1       2.039   6.703  20.182  0.00  0.00    +0.000 A 
ATOM     24  C   UNL     1       1.391   7.562  21.076  0.00  0.00    +0.000 A 
ATOM     25  C   UNL     1       1.001   8.855  20.687  0.00  0.00    +0.000 A 
BRANCH  20  31
ATOM     26  C   UNL     1      -0.637  10.914  18.578  0.00  0.00    +0.000 A 
ATOM     27  C   UNL     1      -1.067  12.210  18.248  0.00  0.00    +0.000 A 
ATOM     28  C   UNL     1      -0.163  13.273  18.205  0.00  0.00    +0.000 A 
ATOM     29  C   UNL     1       1.170  13.051  18.504  0.00  0.00    +0.000 A 
ATOM     30  C   UNL     1       1.599  11.771  18.873  0.00  0.00    +0.000 A 
ATOM     31  C   UNL     1       0.715  10.669  18.934  0.00  0.00    +0.000 A 
BRANCH  26  33
ATOM     32  C   UNL     1      -2.524   9.830  17.622  0.00  0.00    +0.000 C 
ATOM     33  O   UNL     1      -1.506   9.849  18.613  0.00  0.00    +0.000 OA
ENDBRANCH  26  33
ENDBRANCH  20  31
ENDBRANCH  19  23
ENDBRANCH   1  19
TORSDOF 9
ENDMDL
MODEL 8
REMARK VINA RESULT:      -7.5      3.064      9.555
REMARK  Name = 
REMARK  12 active torsions:
REMARK  status: ('A' for Active; 'I' for Inactive)
REMARK    1  A    between atoms: C_1  and  O_2
REMARK    2  A    between atoms: O_2  and  C_3
REMARK    3  A    between atoms: C_8  and  C_9
REMARK    4  A    between atoms: C_12  and  C_13
REMARK    5  A    between atoms: C_13  and  CA_14
REMARK    6  A    between atoms: CA_14  and  N_15
REMARK    7  A    between atoms: CA_14  and  C_27
REMARK    8  A    between atoms: C_16  and  C_18
REMARK    9  A    between atoms: C_18  and  C_19
REMARK   10  A    between atoms: C_18  and  C_20
REMARK   11  A    between atoms: C_18  and  C_21
REMARK   12  A    between atoms: C_27  and  OXT_29
REMARK                            x       y       z     vdW  Elec       q    Type
REMARK                         _______ _______ _______ _____ _____    ______ ____
ROOT
ATOM      1  CA  UNL     1       2.908   4.549  19.643  0.00  0.00    +0.000 C 
ENDROOT
BRANCH   1   2
ATOM      2  N   UNL     1       3.866   5.353  18.862  0.00  0.00    +0.000 N 
ATOM      3  C   UNL     1       5.150   4.897  18.656  0.00  0.00    +0.000 C 
ATOM      4  O   UNL     1       5.498   3.825  19.160  0.00  0.00    +0.000 OA
ATOM      5  H   UNL     1       3.480   6.015  18.199  0.00  0.00    +0.000 HD
BRANCH   3   6
ATOM      6  C   UNL     1       6.073   5.723  17.696  0.00  0.00    +0.000 C 
ATOM      7  C   UNL     1       5.636   7.207  17.684  0.00  0.00    +0.000 C 
ATOM      8  C   UNL     1       7.502   5.685  18.285  0.00  0.00    +0.000 C 
BRANCH   6   9
ATOM      9  C   UNL     1       6.113   5.100  16.285  0.00  0.00    +0.000 A 
ATOM     10  C   UNL     1       5.043   4.345  15.769  0.00  0.00    +0.000 A 
ATOM     11  C   UNL     1       5.114   3.753  14.501  0.00  0.00    +0.000 A 
ATOM     12  C   UNL     1       6.249   3.918  13.714  0.00  0.00    +0.000 A 
ATOM     13  C   UNL     1       7.297   4.703  14.179  0.00  0.00    +0.000 A 
ATOM     14  C   UNL     1       7.221   5.301  15.440  0.00  0.00    +0.000 A 
ENDBRANCH   6   9
ENDBRANCH   3   6
ENDBRANCH   1   2
BRANCH   1  15
ATOM     15  C   UNL     1       1.936   3.923  18.638  0.00  0.00    +0.000 C 
ATOM     16  O   UNL     1       1.883   4.208  17.452  0.00  0.00    +0.000 OA
BRANCH  15  17
ATOM     17  OXT UNL     1       1.223   2.897  19.171  0.00  0.00    +0.000 OA
ATOM     18  HXT UNL     1       1.780   2.111  19.370  0.00  0.00    +0.000 HD
ENDBRANCH  15  17
ENDBRANCH   1  15
BRANCH   1  19
ATOM     19  C   UNL     1       2.178   5.411  20.685  0.00  0.00    +0.000 C 
BRANCH  19  23
ATOM     20  C   UNL     1       1.117   9.480  19.455  0.00  0.00    +0.000 A 
ATOM     21  C   UNL     1       1.783   8.594  18.588  0.00  0.00    +0.000 A 
ATOM     22  C   UNL     1       2.184   7.311  18.992  0.00  0.00    +0.000 A 
ATOM     23  C   UNL     1       1.914   6.850  20.283  0.00  0.00    +0.000 A 
ATOM     24  C   UNL     1       1.281   7.728  21.170  0.00  0.00    +0.000 A 
ATOM     25  C   UNL     1       0.898   9.018  20.765  0.00  0.00    +0.000 A 
BRANCH  20  31
ATOM     26  C   UNL     1      -0.733  11.043  18.591  0.00  0.00    +0.000 A 
ATOM     27  C   UNL     1      -1.161  12.337  18.247  0.00  0.00    +0.000 A 
ATOM     28  C   UNL     1      -0.262  13.405  18.230  0.00  0.00    +0.000 A 
ATOM     29  C   UNL     1       1.063  13.191  18.568  0.00  0.00    +0.000 A 
ATOM     30  C   UNL     1       1.488  11.914  18.949  0.00  0.00    +0.000 A 
ATOM     31  C   UNL     1       0.609  10.806  18.986  0.00  0.00    +0.000 A 
BRANCH  26  33
ATOM     32  C   UNL     1      -2.699  10.041  17.706  0.00  0.00    +0.000 C 
ATOM     33  O   UNL     1      -1.597   9.974  18.602  0.00  0.00    +0.000 OA
ENDBRANCH  26  33
ENDBRANCH  20  31
ENDBRANCH  19  23
ENDBRANCH   1  19
TORSDOF 9
ENDMDL
MODEL 9
REMARK VINA RESULT:      -7.5      3.076      4.479
REMARK  Name = 
REMARK  12 active torsions:
REMARK  status: ('A' for Active; 'I' for Inactive)
REMARK    1  A    between atoms: C_1  and  O_2
REMARK    2  A    between atoms: O_2  and  C_3
REMARK    3  A    between atoms: C_8  and  C_9
REMARK    4  A    between atoms: C_12  and  C_13
REMARK    5  A    between atoms: C_13  and  CA_14
REMARK    6  A    between atoms: CA_14  and  N_15
REMARK    7  A    between atoms: CA_14  and  C_27
REMARK    8  A    between atoms: C_16  and  C_18
REMARK    9  A    between atoms: C_18  and  C_19
REMARK   10  A    between atoms: C_18  and  C_20
REMARK   11  A    between atoms: C_18  and  C_21
REMARK   12  A    between atoms: C_27  and  OXT_29
REMARK                            x       y       z     vdW  Elec       q    Type
REMARK                         _______ _______ _______ _____ _____    ______ ____
ROOT
ATOM      1  CA  UNL     1       0.325  11.444  20.733  0.00  0.00    +0.000 C 
ENDROOT
BRANCH   1   2
ATOM      2  N   UNL     1      -0.833  12.247  21.168  0.00  0.00    +0.000 N 
ATOM      3  C   UNL     1      -1.246  12.214  22.482  0.00  0.00    +0.000 C 
ATOM      4  O   UNL     1      -0.657  11.480  23.282  0.00  0.00    +0.000 OA
ATOM      5  H   UNL     1      -1.063  13.062  20.613  0.00  0.00    +0.000 HD
BRANCH   3   6
ATOM      6  C   UNL     1      -2.385  13.199  22.914  0.00  0.00    +0.000 C 
ATOM      7  C   UNL     1      -3.193  13.654  21.676  0.00  0.00    +0.000 C 
ATOM      8  C   UNL     1      -3.362  12.407  23.816  0.00  0.00    +0.000 C 
BRANCH   6   9
ATOM      9  C   UNL     1      -1.823  14.382  23.729  0.00  0.00    +0.000 A 
ATOM     10  C   UNL     1      -0.752  15.170  23.265  0.00  0.00    +0.000 A 
ATOM     11  C   UNL     1      -0.229  16.215  24.038  0.00  0.00    +0.000 A 
ATOM     12  C   UNL     1      -0.776  16.506  25.283  0.00  0.00    +0.000 A 
ATOM     13  C   UNL     1      -1.867  15.778  25.740  0.00  0.00    +0.000 A 
ATOM     14  C   UNL     1      -2.395  14.742  24.965  0.00  0.00    +0.000 A 
ENDBRANCH   6   9
ENDBRANCH   3   6
ENDBRANCH   1   2
BRANCH   1  15
ATOM     15  C   UNL     1       1.391  12.434  20.252  0.00  0.00    +0.000 C 
ATOM     16  O   UNL     1       1.489  12.849  19.108  0.00  0.00    +0.000 OA
BRANCH  15  17
ATOM     17  OXT UNL     1       2.142  12.928  21.271  0.00  0.00    +0.000 OA
ATOM     18  HXT UNL     1       2.990  12.445  21.386  0.00  0.00    +0.000 HD
ENDBRANCH  15  17
ENDBRANCH   1  15
BRANCH   1  19
ATOM     19  C   UNL     1      -0.071  10.450  19.630  0.00  0.00    +0.000 C 
BRANCH  19  23
ATOM     20  C   UNL     1       2.749   7.330  18.400  0.00  0.00    +0.000 A 
ATOM     21  C   UNL     1       2.233   7.388  19.709  0.00  0.00    +0.000 A 
ATOM     22  C   UNL     1       1.379   8.419  20.131  0.00  0.00    +0.000 A 
ATOM     23  C   UNL     1       0.987   9.430  19.250  0.00  0.00    +0.000 A 
ATOM     24  C   UNL     1       1.515   9.407  17.954  0.00  0.00    +0.000 A 
ATOM     25  C   UNL     1       2.383   8.382  17.543  0.00  0.00    +0.000 A 
BRANCH  20  31
ATOM     26  C   UNL     1       3.056   4.885  17.666  0.00  0.00    +0.000 A 
ATOM     27  C   UNL     1       3.880   3.873  17.144  0.00  0.00    +0.000 A 
ATOM     28  C   UNL     1       5.241   4.098  16.932  0.00  0.00    +0.000 A 
ATOM     29  C   UNL     1       5.784   5.336  17.228  0.00  0.00    +0.000 A 
ATOM     30  C   UNL     1       4.963   6.361  17.711  0.00  0.00    +0.000 A 
ATOM     31  C   UNL     1       3.579   6.176  17.934  0.00  0.00    +0.000 A 
BRANCH  26  33
ATOM     32  C   UNL     1       1.369   3.518  18.635  0.00  0.00    +0.000 C 
ATOM     33  O   UNL     1       1.716   4.682  17.896  0.00  0.00    +0.000 OA
ENDBRANCH  26  33
ENDBRANCH  20  31
ENDBRANCH  19  23
ENDBRANCH   1  19
TORSDOF 9
ENDMDL
