MODEL 1
REMARK VINA RESULT:      -7.6      0.000      0.000
REMARK  Name = 
REMARK  14 active torsions:
REMARK  status: ('A' for Active; 'I' for Inactive)
REMARK    1  A    between atoms: C_1  and  C_2
REMARK    2  A    between atoms: C_2  and  O_3
REMARK    3  A    between atoms: O_3  and  C_4
REMARK    4  A    between atoms: C_4  and  C_5
REMARK    5  A    between atoms: C_5  and  O_6
REMARK    6  A    between atoms: O_6  and  C_7
REMARK    7  A    between atoms: C_9  and  C_10
REMARK    8  A    between atoms: C_11  and  C_12
REMARK    9  A    between atoms: C_16  and  C_17
REMARK   10  A    between atoms: C_17  and  O_18
REMARK   11  A    between atoms: O_18  and  C_19
REMARK   12  A    between atoms: C_27  and  C_28
REMARK   13  A    between atoms: C_28  and  O_30
REMARK   14  A    between atoms: C_33  and  C_34
REMARK                            x       y       z     vdW  Elec       q    Type
REMARK                         _______ _______ _______ _____ _____    ______ ____
ROOT
ATOM      1  C   UNL     1      -1.187  12.336  22.522  0.00  0.00    +0.000 A 
ATOM      2  C   UNL     1      -0.663  13.602  22.858  0.00  0.00    +0.000 A 
ATOM      3  C   UNL     1      -1.342  14.446  23.767  0.00  0.00    +0.000 A 
ATOM      4  C   UNL     1      -2.637  14.055  24.253  0.00  0.00    +0.000 A 
ATOM      5  C   UNL     1      -3.204  12.852  23.834  0.00  0.00    +0.000 A 
ATOM      6  C   UNL     1      -2.394  11.963  23.057  0.00  0.00    +0.000 A 
ENDROOT
BRANCH   1  11
ATOM      7  C   UNL     1       0.855   9.654  19.761  0.00  0.00    +0.000 A 
ATOM      8  C   UNL     1       0.661   9.288  21.084  0.00  0.00    +0.000 A 
ATOM      9  C   UNL     1       0.004  10.140  21.995  0.00  0.00    +0.000 A 
ATOM     10  C   UNL     1      -0.150   9.582  23.391  0.00  0.00    +0.000 C 
ATOM     11  C   UNL     1      -0.443  11.427  21.582  0.00  0.00    +0.000 A 
ATOM     12  C   UNL     1      -0.198  11.806  20.226  0.00  0.00    +0.000 A 
ATOM     13  C   UNL     1      -0.543  13.144  19.617  0.00  0.00    +0.000 C 
ATOM     14  C   UNL     1       0.428  10.900  19.336  0.00  0.00    +0.000 A 
BRANCH   7  15
ATOM     15  O   UNL     1       1.454   8.878  18.806  0.00  0.00    +0.000 OA
BRANCH  15  16
ATOM     16  C   UNL     1       2.140   7.731  19.300  0.00  0.00    +0.000 C 
BRANCH  16  17
ATOM     17  C   UNL     1       2.923   7.101  18.166  0.00  0.00    +0.000 C 
BRANCH  17  18
ATOM     18  O   UNL     1       2.407   5.794  17.922  0.00  0.00    +0.000 OA
BRANCH  18  20
ATOM     19  C   UNL     1       3.240   3.697  18.696  0.00  0.00    +0.000 C 
ATOM     20  C   UNL     1       2.528   4.975  19.080  0.00  0.00    +0.000 C 
ENDBRANCH  18  20
ENDBRANCH  17  18
ENDBRANCH  16  17
ENDBRANCH  15  16
ENDBRANCH   7  15
ENDBRANCH   1  11
BRANCH   5  21
ATOM     21  C   UNL     1      -4.660  12.543  24.126  0.00  0.00    +0.000 C 
BRANCH  21  22
ATOM     22  O   UNL     1      -5.479  13.333  23.311  0.00  0.00    +0.000 OA
BRANCH  22  23
ATOM     23  C   UNL     1      -5.980  12.817  22.155  0.00  0.00    +0.000 A 
ATOM     24  C   UNL     1      -7.169  12.183  21.790  0.00  0.00    +0.000 A 
ATOM     25  C   UNL     1      -7.329  11.543  20.466  0.00  0.00    +0.000 A 
ATOM     26  C   UNL     1      -6.296  11.537  19.524  0.00  0.00    +0.000 A 
ATOM     27  C   UNL     1      -5.219  12.297  19.955  0.00  0.00    +0.000 A 
ATOM     28  C   UNL     1      -5.024  12.871  21.213  0.00  0.00    +0.000 A 
ATOM     29  C   UNL     1      -4.014  12.402  19.166  0.00  0.00    +0.000 C 
ATOM     30  C   UNL     1      -3.369  11.586  18.141  0.00  0.00    +0.000 C 
ATOM     31  C   UNL     1      -4.406  10.796  17.328  0.00  0.00    +0.000 C 
ATOM     32  C   UNL     1      -6.020  10.913  18.072  0.00  0.00    +0.000 C 
BRANCH  31  33
ATOM     33  C   UNL     1      -3.350  10.859  16.141  0.00  0.00    +0.000 C 
ATOM     34  O   UNL     1      -3.562  10.426  15.009  0.00  0.00    +0.000 OA
BRANCH  33  35
ATOM     35  O   UNL     1      -2.059  11.112  16.532  0.00  0.00    +0.000 OA
ATOM     36  H   UNL     1      -1.867  12.036  16.784  0.00  0.00    +0.000 HD
ENDBRANCH  33  35
ENDBRANCH  31  33
ENDBRANCH  22  23
ENDBRANCH  21  22
ENDBRANCH   5  21
TORSDOF 11
ENDMDL
MODEL 2
REMARK VINA RESULT:      -7.4      0.878      1.009
REMARK  Name = 
REMARK  14 active torsions:
REMARK  status: ('A' for Active; 'I' for Inactive)
REMARK    1  A    between atoms: C_1  and  C_2
REMARK    2  A    between atoms: C_2  and  O_3
REMARK    3  A    between atoms: O_3  and  C_4
REMARK    4  A    between atoms: C_4  and  C_5
REMARK    5  A    between atoms: C_5  and  O_6
REMARK    6  A    between atoms: O_6  and  C_7
REMARK    7  A    between atoms: C_9  and  C_10
REMARK    8  A    between atoms: C_11  and  C_12
REMARK    9  A    between atoms: C_16  and  C_17
REMARK   10  A    between atoms: C_17  and  O_18
REMARK   11  A    between atoms: O_18  and  C_19
REMARK   12  A    between atoms: C_27  and  C_28
REMARK   13  A    between atoms: C_28  and  O_30
REMARK   14  A    between atoms: C_33  and  C_34
REMARK                            x       y       z     vdW  Elec       q    Type
REMARK                         _______ _______ _______ _____ _____    ______ ____
ROOT
ATOM      1  C   UNL     1      -0.684  12.161  22.082  0.00  0.00    +0.000 A 
ATOM      2  C   UNL     1      -0.171  13.467  22.230  0.00  0.00    +0.000 A 
ATOM      3  C   UNL     1      -0.803  14.398  23.086  0.00  0.00    +0.000 A 
ATOM      4  C   UNL     1      -2.048  14.042  23.712  0.00  0.00    +0.000 A 
ATOM      5  C   UNL     1      -2.611  12.789  23.478  0.00  0.00    +0.000 A 
ATOM      6  C   UNL     1      -1.837  11.830  22.747  0.00  0.00    +0.000 A 
ENDROOT
BRANCH   1  11
ATOM      7  C   UNL     1       1.219   9.222  19.487  0.00  0.00    +0.000 A 
ATOM      8  C   UNL     1       1.043   8.960  20.837  0.00  0.00    +0.000 A 
ATOM      9  C   UNL     1       0.431   9.896  21.696  0.00  0.00    +0.000 A 
ATOM     10  C   UNL     1       0.291   9.447  23.131  0.00  0.00    +0.000 C 
ATOM     11  C   UNL     1       0.013  11.163  21.197  0.00  0.00    +0.000 A 
ATOM     12  C   UNL     1       0.239  11.433  19.813  0.00  0.00    +0.000 A 
ATOM     13  C   UNL     1      -0.079  12.734  19.113  0.00  0.00    +0.000 C 
ATOM     14  C   UNL     1       0.819  10.446  18.981  0.00  0.00    +0.000 A 
BRANCH   7  15
ATOM     15  O   UNL     1       1.774   8.360  18.581  0.00  0.00    +0.000 OA
BRANCH  15  16
ATOM     16  C   UNL     1       2.472   7.254  19.147  0.00  0.00    +0.000 C 
BRANCH  16  17
ATOM     17  C   UNL     1       2.698   6.213  18.068  0.00  0.00    +0.000 C 
BRANCH  17  18
ATOM     18  O   UNL     1       3.818   5.409  18.433  0.00  0.00    +0.000 OA
BRANCH  18  20
ATOM     19  C   UNL     1       4.981   6.270  16.536  0.00  0.00    +0.000 C 
ATOM     20  C   UNL     1       4.563   5.023  17.284  0.00  0.00    +0.000 C 
ENDBRANCH  18  20
ENDBRANCH  17  18
ENDBRANCH  16  17
ENDBRANCH  15  16
ENDBRANCH   7  15
ENDBRANCH   1  11
BRANCH   5  21
ATOM     21  C   UNL     1      -4.032  12.489  23.914  0.00  0.00    +0.000 C 
BRANCH  21  22
ATOM     22  O   UNL     1      -4.917  13.342  23.245  0.00  0.00    +0.000 OA
BRANCH  22  23
ATOM     23  C   UNL     1      -5.520  12.924  22.098  0.00  0.00    +0.000 A 
ATOM     24  C   UNL     1      -6.798  12.476  21.759  0.00  0.00    +0.000 A 
ATOM     25  C   UNL     1      -7.086  11.889  20.433  0.00  0.00    +0.000 A 
ATOM     26  C   UNL     1      -6.091  11.750  19.460  0.00  0.00    +0.000 A 
ATOM     27  C   UNL     1      -4.903  12.337  19.870  0.00  0.00    +0.000 A 
ATOM     28  C   UNL     1      -4.592  12.854  21.128  0.00  0.00    +0.000 A 
ATOM     29  C   UNL     1      -3.718  12.278  19.046  0.00  0.00    +0.000 C 
ATOM     30  C   UNL     1      -3.228  11.395  17.993  0.00  0.00    +0.000 C 
ATOM     31  C   UNL     1      -4.390  10.779  17.200  0.00  0.00    +0.000 C 
ATOM     32  C   UNL     1      -5.949  11.117  17.993  0.00  0.00    +0.000 C 
BRANCH  31  33
ATOM     33  C   UNL     1      -3.369  10.708  15.983  0.00  0.00    +0.000 C 
ATOM     34  O   UNL     1      -3.315   9.773  15.185  0.00  0.00    +0.000 OA
BRANCH  33  35
ATOM     35  O   UNL     1      -2.314  11.581  16.066  0.00  0.00    +0.000 OA
ATOM     36  H   UNL     1      -1.471  11.198  16.377  0.00  0.00    +0.000 HD
ENDBRANCH  33  35
ENDBRANCH  31  33
ENDBRANCH  22  23
ENDBRANCH  21  22
ENDBRANCH   5  21
TORSDOF 11
ENDMDL
MODEL 3
REMARK VINA RESULT:      -7.3      3.536      7.258
REMARK  Name = 
REMARK  14 active torsions:
REMARK  status: ('A' for Active; 'I' for Inactive)
REMARK    1  A    between atoms: C_1  and  C_2
REMARK    2  A    between atoms: C_2  and  O_3
REMARK    3  A    between atoms: O_3  and  C_4
REMARK    4  A    between atoms: C_4  and  C_5
REMARK    5  A    between atoms: C_5  and  O_6
REMARK    6  A    between atoms: O_6  and  C_7
REMARK    7  A    between atoms: C_9  and  C_10
REMARK    8  A    between atoms: C_11  and  C_12
REMARK    9  A    between atoms: C_16  and  C_17
REMARK   10  A    between atoms: C_17  and  O_18
REMARK   11  A    between atoms: O_18  and  C_19
REMARK   12  A    between atoms: C_27  and  C_28
REMARK   13  A    between atoms: C_28  and  O_30
REMARK   14  A    between atoms: C_33  and  C_34
REMARK                            x       y       z     vdW  Elec       q    Type
REMARK                         _______ _______ _______ _____ _____    ______ ____
ROOT
ATOM      1  C   UNL     1       3.055   6.603  18.393  0.00  0.00    +0.000 A 
ATOM      2  C   UNL     1       2.879   6.147  19.716  0.00  0.00    +0.000 A 
ATOM      3  C   UNL     1       2.060   6.859  20.623  0.00  0.00    +0.000 A 
ATOM      4  C   UNL     1       1.503   8.122  20.221  0.00  0.00    +0.000 A 
ATOM      5  C   UNL     1       1.767   8.626  18.948  0.00  0.00    +0.000 A 
ATOM      6  C   UNL     1       2.453   7.779  18.019  0.00  0.00    +0.000 A 
ENDROOT
BRANCH   1  11
ATOM      7  C   UNL     1       5.564   4.292  15.681  0.00  0.00    +0.000 A 
ATOM      8  C   UNL     1       5.906   5.591  16.021  0.00  0.00    +0.000 A 
ATOM      9  C   UNL     1       5.109   6.358  16.896  0.00  0.00    +0.000 A 
ATOM     10  C   UNL     1       5.634   7.745  17.185  0.00  0.00    +0.000 C 
ATOM     11  C   UNL     1       3.899   5.823  17.423  0.00  0.00    +0.000 A 
ATOM     12  C   UNL     1       3.539   4.497  17.029  0.00  0.00    +0.000 A 
ATOM     13  C   UNL     1       2.272   3.780  17.433  0.00  0.00    +0.000 C 
ATOM     14  C   UNL     1       4.393   3.750  16.182  0.00  0.00    +0.000 A 
BRANCH   7  15
ATOM     15  O   UNL     1       6.293   3.469  14.867  0.00  0.00    +0.000 OA
BRANCH  15  16
ATOM     16  C   UNL     1       6.632   4.021  13.597  0.00  0.00    +0.000 C 
BRANCH  16  17
ATOM     17  C   UNL     1       5.996   3.179  12.510  0.00  0.00    +0.000 C 
BRANCH  17  18
ATOM     18  O   UNL     1       4.737   3.752  12.163  0.00  0.00    +0.000 OA
BRANCH  18  20
ATOM     19  C   UNL     1       3.313   3.867  10.252  0.00  0.00    +0.000 C 
ATOM     20  C   UNL     1       4.064   2.954  11.196  0.00  0.00    +0.000 C 
ENDBRANCH  18  20
ENDBRANCH  17  18
ENDBRANCH  16  17
ENDBRANCH  15  16
ENDBRANCH   7  15
ENDBRANCH   1  11
BRANCH   5  21
ATOM     21  C   UNL     1       1.409  10.057  18.596  0.00  0.00    +0.000 C 
BRANCH  21  22
ATOM     22  O   UNL     1       0.170  10.381  19.162  0.00  0.00    +0.000 OA
BRANCH  22  23
ATOM     23  C   UNL     1      -0.957  10.316  18.403  0.00  0.00    +0.000 A 
ATOM     24  C   UNL     1      -1.265   9.836  17.128  0.00  0.00    +0.000 A 
ATOM     25  C   UNL     1      -2.575  10.103  16.496  0.00  0.00    +0.000 A 
ATOM     26  C   UNL     1      -3.563  10.852  17.142  0.00  0.00    +0.000 A 
ATOM     27  C   UNL     1      -3.186  11.167  18.440  0.00  0.00    +0.000 A 
ATOM     28  C   UNL     1      -1.943  10.968  19.043  0.00  0.00    +0.000 A 
ATOM     29  C   UNL     1      -4.029  11.976  19.287  0.00  0.00    +0.000 C 
ATOM     30  C   UNL     1      -5.075  12.970  19.067  0.00  0.00    +0.000 C 
ATOM     31  C   UNL     1      -5.836  12.695  17.761  0.00  0.00    +0.000 C 
ATOM     32  C   UNL     1      -5.021  11.431  16.806  0.00  0.00    +0.000 C 
BRANCH  31  33
ATOM     33  C   UNL     1      -7.069  13.409  18.466  0.00  0.00    +0.000 C 
ATOM     34  O   UNL     1      -7.257  14.625  18.454  0.00  0.00    +0.000 OA
BRANCH  33  35
ATOM     35  O   UNL     1      -7.734  12.635  19.383  0.00  0.00    +0.000 OA
ATOM     36  H   UNL     1      -7.419  11.714  19.467  0.00  0.00    +0.000 HD
ENDBRANCH  33  35
ENDBRANCH  31  33
ENDBRANCH  22  23
ENDBRANCH  21  22
ENDBRANCH   5  21
TORSDOF 11
ENDMDL
MODEL 4
REMARK VINA RESULT:      -7.2      2.506      9.798
REMARK  Name = 
REMARK  14 active torsions:
REMARK  status: ('A' for Active; 'I' for Inactive)
REMARK    1  A    between atoms: C_1  and  C_2
REMARK    2  A    between atoms: C_2  and  O_3
REMARK    3  A    between atoms: O_3  and  C_4
REMARK    4  A    between atoms: C_4  and  C_5
REMARK    5  A    between atoms: C_5  and  O_6
REMARK    6  A    between atoms: O_6  and  C_7
REMARK    7  A    between atoms: C_9  and  C_10
REMARK    8  A    between atoms: C_11  and  C_12
REMARK    9  A    between atoms: C_16  and  C_17
REMARK   10  A    between atoms: C_17  and  O_18
REMARK   11  A    between atoms: O_18  and  C_19
REMARK   12  A    between atoms: C_27  and  C_28
REMARK   13  A    between atoms: C_28  and  O_30
REMARK   14  A    between atoms: C_33  and  C_34
REMARK                            x       y       z     vdW  Elec       q    Type
REMARK                         _______ _______ _______ _____ _____    ______ ____
ROOT
ATOM      1  C   UNL     1      -1.107  11.516  20.153  0.00  0.00    +0.000 A 
ATOM      2  C   UNL     1      -0.186  12.290  19.418  0.00  0.00    +0.000 A 
ATOM      3  C   UNL     1       1.015  11.719  18.937  0.00  0.00    +0.000 A 
ATOM      4  C   UNL     1       1.348  10.370  19.309  0.00  0.00    +0.000 A 
ATOM      5  C   UNL     1       0.487   9.642  20.128  0.00  0.00    +0.000 A 
ATOM      6  C   UNL     1      -0.791  10.211  20.434  0.00  0.00    +0.000 A 
ENDROOT
BRANCH   1  11
ATOM      7  C   UNL     1      -4.889  13.146  21.579  0.00  0.00    +0.000 A 
ATOM      8  C   UNL     1      -4.743  12.761  20.255  0.00  0.00    +0.000 A 
ATOM      9  C   UNL     1      -3.529  12.232  19.772  0.00  0.00    +0.000 A 
ATOM     10  C   UNL     1      -3.542  11.838  18.314  0.00  0.00    +0.000 C 
ATOM     11  C   UNL     1      -2.400  12.119  20.632  0.00  0.00    +0.000 A 
ATOM     12  C   UNL     1      -2.555  12.559  21.983  0.00  0.00    +0.000 A 
ATOM     13  C   UNL     1      -1.463  12.574  23.027  0.00  0.00    +0.000 C 
ATOM     14  C   UNL     1      -3.806  13.044  22.434  0.00  0.00    +0.000 A 
BRANCH   7  15
ATOM     15  O   UNL     1      -6.037  13.639  22.137  0.00  0.00    +0.000 OA
BRANCH  15  16
ATOM     16  C   UNL     1      -5.861  14.330  23.372  0.00  0.00    +0.000 C 
BRANCH  16  17
ATOM     17  C   UNL     1      -6.063  15.814  23.136  0.00  0.00    +0.000 C 
BRANCH  17  18
ATOM     18  O   UNL     1      -4.798  16.467  23.213  0.00  0.00    +0.000 OA
BRANCH  18  20
ATOM     19  C   UNL     1      -4.901  17.573  25.325  0.00  0.00    +0.000 C 
ATOM     20  C   UNL     1      -4.288  16.433  24.541  0.00  0.00    +0.000 C 
ENDBRANCH  18  20
ENDBRANCH  17  18
ENDBRANCH  16  17
ENDBRANCH  15  16
ENDBRANCH   7  15
ENDBRANCH   1  11
BRANCH   5  21
ATOM     21  C   UNL     1       0.932   8.326  20.738  0.00  0.00    +0.000 C 
BRANCH  21  22
ATOM     22  O   UNL     1       2.204   7.995  20.256  0.00  0.00    +0.000 OA
BRANCH  22  23
ATOM     23  C   UNL     1       2.403   6.795  19.645  0.00  0.00    +0.000 A 
ATOM     24  C   UNL     1       2.110   5.466  19.958  0.00  0.00    +0.000 A 
ATOM     25  C   UNL     1       2.653   4.345  19.159  0.00  0.00    +0.000 A 
ATOM     26  C   UNL     1       3.490   4.565  18.060  0.00  0.00    +0.000 A 
ATOM     27  C   UNL     1       3.607   5.919  17.781  0.00  0.00    +0.000 A 
ATOM     28  C   UNL     1       3.145   6.994  18.542  0.00  0.00    +0.000 A 
ATOM     29  C   UNL     1       4.457   6.391  16.714  0.00  0.00    +0.000 C 
ATOM     30  C   UNL     1       5.629   5.874  16.013  0.00  0.00    +0.000 C 
ATOM     31  C   UNL     1       5.615   4.338  15.968  0.00  0.00    +0.000 C 
ATOM     32  C   UNL     1       4.334   3.683  17.019  0.00  0.00    +0.000 C 
BRANCH  31  33
ATOM     33  C   UNL     1       6.452   4.487  14.625  0.00  0.00    +0.000 C 
ATOM     34  O   UNL     1       6.295   3.771  13.635  0.00  0.00    +0.000 OA
BRANCH  33  35
ATOM     35  O   UNL     1       7.599   5.230  14.740  0.00  0.00    +0.000 OA
ATOM     36  H   UNL     1       8.427   4.772  14.498  0.00  0.00    +0.000 HD
ENDBRANCH  33  35
ENDBRANCH  31  33
ENDBRANCH  22  23
ENDBRANCH  21  22
ENDBRANCH   5  21
TORSDOF 11
ENDMDL
MODEL 5
REMARK VINA RESULT:      -7.2      3.631      8.661
REMARK  Name = 
REMARK  14 active torsions:
REMARK  status: ('A' for Active; 'I' for Inactive)
REMARK    1  A    between atoms: C_1  and  C_2
REMARK    2  A    between atoms: C_2  and  O_3
REMARK    3  A    between atoms: O_3  and  C_4
REMARK    4  A    between atoms: C_4  and  C_5
REMARK    5  A    between atoms: C_5  and  O_6
REMARK    6  A    between atoms: O_6  and  C_7
REMARK    7  A    between atoms: C_9  and  C_10
REMARK    8  A    between atoms: C_11  and  C_12
REMARK    9  A    between atoms: C_16  and  C_17
REMARK   10  A    between atoms: C_17  and  O_18
REMARK   11  A    between atoms: O_18  and  C_19
REMARK   12  A    between atoms: C_27  and  C_28
REMARK   13  A    between atoms: C_28  and  O_30
REMARK   14  A    between atoms: C_33  and  C_34
REMARK                            x       y       z     vdW  Elec       q    Type
REMARK                         _______ _______ _______ _____ _____    ______ ____
ROOT
ATOM      1  C   UNL     1       3.782   4.349  19.087  0.00  0.00    +0.000 A 
ATOM      2  C   UNL     1       3.637   3.212  19.908  0.00  0.00    +0.000 A 
ATOM      3  C   UNL     1       2.686   3.193  20.955  0.00  0.00    +0.000 A 
ATOM      4  C   UNL     1       1.951   4.392  21.255  0.00  0.00    +0.000 A 
ATOM      5  C   UNL     1       2.176   5.550  20.512  0.00  0.00    +0.000 A 
ATOM      6  C   UNL     1       3.017   5.455  19.357  0.00  0.00    +0.000 A 
ENDROOT
BRANCH   1  11
ATOM      7  C   UNL     1       6.604   4.470  15.768  0.00  0.00    +0.000 A 
ATOM      8  C   UNL     1       5.351   3.899  15.606  0.00  0.00    +0.000 A 
ATOM      9  C   UNL     1       4.422   3.848  16.666  0.00  0.00    +0.000 A 
ATOM     10  C   UNL     1       3.094   3.218  16.319  0.00  0.00    +0.000 C 
ATOM     11  C   UNL     1       4.770   4.350  17.953  0.00  0.00    +0.000 A 
ATOM     12  C   UNL     1       6.080   4.897  18.113  0.00  0.00    +0.000 A 
ATOM     13  C   UNL     1       6.654   5.424  19.408  0.00  0.00    +0.000 C 
ATOM     14  C   UNL     1       6.964   4.965  17.009  0.00  0.00    +0.000 A 
BRANCH   7  15
ATOM     15  O   UNL     1       7.551   4.588  14.788  0.00  0.00    +0.000 OA
BRANCH  15  16
ATOM     16  C   UNL     1       7.069   5.067  13.535  0.00  0.00    +0.000 C 
BRANCH  16  17
ATOM     17  C   UNL     1       7.368   4.034  12.467  0.00  0.00    +0.000 C 
BRANCH  17  18
ATOM     18  O   UNL     1       6.173   3.774  11.733  0.00  0.00    +0.000 OA
BRANCH  18  20
ATOM     19  C   UNL     1       6.461   1.495  11.087  0.00  0.00    +0.000 C 
ATOM     20  C   UNL     1       5.702   2.454  11.979  0.00  0.00    +0.000 C 
ENDBRANCH  18  20
ENDBRANCH  17  18
ENDBRANCH  16  17
ENDBRANCH  15  16
ENDBRANCH   7  15
ENDBRANCH   1  11
BRANCH   5  21
ATOM     21  C   UNL     1       1.609   6.881  20.969  0.00  0.00    +0.000 C 
BRANCH  21  22
ATOM     22  O   UNL     1       2.026   7.892  20.095  0.00  0.00    +0.000 OA
BRANCH  22  23
ATOM     23  C   UNL     1       1.170   8.898  19.769  0.00  0.00    +0.000 A 
ATOM     24  C   UNL     1       0.902   9.633  18.612  0.00  0.00    +0.000 A 
ATOM     25  C   UNL     1       0.031  10.828  18.639  0.00  0.00    +0.000 A 
ATOM     26  C   UNL     1      -0.558  11.281  19.824  0.00  0.00    +0.000 A 
ATOM     27  C   UNL     1      -0.316  10.405  20.871  0.00  0.00    +0.000 A 
ATOM     28  C   UNL     1       0.537   9.300  20.884  0.00  0.00    +0.000 A 
ATOM     29  C   UNL     1      -0.789  10.687  22.206  0.00  0.00    +0.000 C 
ATOM     30  C   UNL     1      -1.151  11.892  22.946  0.00  0.00    +0.000 C 
ATOM     31  C   UNL     1      -1.699  12.977  22.007  0.00  0.00    +0.000 C 
ATOM     32  C   UNL     1      -1.455  12.522  20.301  0.00  0.00    +0.000 C 
BRANCH  31  33
ATOM     33  C   UNL     1      -2.525  13.486  23.266  0.00  0.00    +0.000 C 
ATOM     34  O   UNL     1      -2.029  14.095  24.213  0.00  0.00    +0.000 OA
BRANCH  33  35
ATOM     35  O   UNL     1      -3.763  12.912  23.412  0.00  0.00    +0.000 OA
ATOM     36  H   UNL     1      -4.420  13.142  22.726  0.00  0.00    +0.000 HD
ENDBRANCH  33  35
ENDBRANCH  31  33
ENDBRANCH  22  23
ENDBRANCH  21  22
ENDBRANCH   5  21
TORSDOF 11
ENDMDL
MODEL 6
REMARK VINA RESULT:      -7.2      3.267      6.791
REMARK  Name = 
REMARK  14 active torsions:
REMARK  status: ('A' for Active; 'I' for Inactive)
REMARK    1  A    between atoms: C_1  and  C_2
REMARK    2  A    between atoms: C_2  and  O_3
REMARK    3  A    between atoms: O_3  and  C_4
REMARK    4  A    between atoms: C_4  and  C_5
REMARK    5  A    between atoms: C_5  and  O_6
REMARK    6  A    between atoms: O_6  and  C_7
REMARK    7  A    between atoms: C_9  and  C_10
REMARK    8  A    between atoms: C_11  and  C_12
REMARK    9  A    between atoms: C_16  and  C_17
REMARK   10  A    between atoms: C_17  and  O_18
REMARK   11  A    between atoms: O_18  and  C_19
REMARK   12  A    between atoms: C_27  and  C_28
REMARK   13  A    between atoms: C_28  and  O_30
REMARK   14  A    between atoms: C_33  and  C_34
REMARK                            x       y       z     vdW  Elec       q    Type
REMARK                         _______ _______ _______ _____ _____    ______ ____
ROOT
ATOM      1  C   UNL     1       2.682   6.953  18.647  0.00  0.00    +0.000 A 
ATOM      2  C   UNL     1       2.510   6.767  20.034  0.00  0.00    +0.000 A 
ATOM      3  C   UNL     1       1.693   7.644  20.785  0.00  0.00    +0.000 A 
ATOM      4  C   UNL     1       1.135   8.803  20.142  0.00  0.00    +0.000 A 
ATOM      5  C   UNL     1       1.395   9.045  18.794  0.00  0.00    +0.000 A 
ATOM      6  C   UNL     1       2.079   8.031  18.050  0.00  0.00    +0.000 A 
ENDROOT
BRANCH   1  11
ATOM      7  C   UNL     1       5.067   4.228  16.222  0.00  0.00    +0.000 A 
ATOM      8  C   UNL     1       3.852   3.820  16.750  0.00  0.00    +0.000 A 
ATOM      9  C   UNL     1       3.064   4.684  17.538  0.00  0.00    +0.000 A 
ATOM     10  C   UNL     1       1.756   4.096  18.014  0.00  0.00    +0.000 C 
ATOM     11  C   UNL     1       3.524   5.996  17.847  0.00  0.00    +0.000 A 
ATOM     12  C   UNL     1       4.797   6.386  17.330  0.00  0.00    +0.000 A 
ATOM     13  C   UNL     1       5.480   7.708  17.594  0.00  0.00    +0.000 C 
ATOM     14  C   UNL     1       5.534   5.499  16.508  0.00  0.00    +0.000 A 
BRANCH   7  15
ATOM     15  O   UNL     1       5.878   3.467  15.426  0.00  0.00    +0.000 OA
BRANCH  15  16
ATOM     16  C   UNL     1       6.626   4.194  14.453  0.00  0.00    +0.000 C 
BRANCH  16  17
ATOM     17  C   UNL     1       6.374   3.587  13.088  0.00  0.00    +0.000 C 
BRANCH  17  18
ATOM     18  O   UNL     1       5.097   4.018  12.622  0.00  0.00    +0.000 OA
BRANCH  18  20
ATOM     19  C   UNL     1       5.592   2.037  11.387  0.00  0.00    +0.000 C 
ATOM     20  C   UNL     1       4.536   3.068  11.723  0.00  0.00    +0.000 C 
ENDBRANCH  18  20
ENDBRANCH  17  18
ENDBRANCH  16  17
ENDBRANCH  15  16
ENDBRANCH   7  15
ENDBRANCH   1  11
BRANCH   5  21
ATOM     21  C   UNL     1       1.035  10.379  18.167  0.00  0.00    +0.000 C 
BRANCH  21  22
ATOM     22  O   UNL     1       1.236  11.403  19.100  0.00  0.00    +0.000 OA
BRANCH  22  23
ATOM     23  C   UNL     1       0.165  12.052  19.631  0.00  0.00    +0.000 A 
ATOM     24  C   UNL     1      -0.063  12.806  20.784  0.00  0.00    +0.000 A 
ATOM     25  C   UNL     1      -1.426  13.215  21.185  0.00  0.00    +0.000 A 
ATOM     26  C   UNL     1      -2.550  12.860  20.433  0.00  0.00    +0.000 A 
ATOM     27  C   UNL     1      -2.185  12.221  19.257  0.00  0.00    +0.000 A 
ATOM     28  C   UNL     1      -0.915  11.784  18.878  0.00  0.00    +0.000 A 
ATOM     29  C   UNL     1      -3.181  11.721  18.338  0.00  0.00    +0.000 C 
ATOM     30  C   UNL     1      -4.576  11.305  18.444  0.00  0.00    +0.000 C 
ATOM     31  C   UNL     1      -5.300  12.071  19.561  0.00  0.00    +0.000 C 
ATOM     32  C   UNL     1      -4.144  13.006  20.543  0.00  0.00    +0.000 C 
BRANCH  31  33
ATOM     33  C   UNL     1      -6.619  11.842  18.704  0.00  0.00    +0.000 C 
ATOM     34  O   UNL     1      -6.882  10.794  18.114  0.00  0.00    +0.000 OA
BRANCH  33  35
ATOM     35  O   UNL     1      -7.293  12.989  18.368  0.00  0.00    +0.000 OA
ATOM     36  H   UNL     1      -7.551  13.562  19.115  0.00  0.00    +0.000 HD
ENDBRANCH  33  35
ENDBRANCH  31  33
ENDBRANCH  22  23
ENDBRANCH  21  22
ENDBRANCH   5  21
TORSDOF 11
ENDMDL
MODEL 7
REMARK VINA RESULT:      -7.2      4.155      8.852
REMARK  Name = 
REMARK  14 active torsions:
REMARK  status: ('A' for Active; 'I' for Inactive)
REMARK    1  A    between atoms: C_1  and  C_2
REMARK    2  A    between atoms: C_2  and  O_3
REMARK    3  A    between atoms: O_3  and  C_4
REMARK    4  A    between atoms: C_4  and  C_5
REMARK    5  A    between atoms: C_5  and  O_6
REMARK    6  A    between atoms: O_6  and  C_7
REMARK    7  A    between atoms: C_9  and  C_10
REMARK    8  A    between atoms: C_11  and  C_12
REMARK    9  A    between atoms: C_16  and  C_17
REMARK   10  A    between atoms: C_17  and  O_18
REMARK   11  A    between atoms: O_18  and  C_19
REMARK   12  A    between atoms: C_27  and  C_28
REMARK   13  A    between atoms: C_28  and  O_30
REMARK   14  A    between atoms: C_33  and  C_34
REMARK                            x       y       z     vdW  Elec       q    Type
REMARK                         _______ _______ _______ _____ _____    ______ ____
ROOT
ATOM      1  C   UNL     1      -0.113  12.956  18.988  0.00  0.00    +0.000 A 
ATOM      2  C   UNL     1      -0.949  12.732  17.874  0.00  0.00    +0.000 A 
ATOM      3  C   UNL     1      -1.802  11.605  17.826  0.00  0.00    +0.000 A 
ATOM      4  C   UNL     1      -1.720  10.619  18.869  0.00  0.00    +0.000 A 
ATOM      5  C   UNL     1      -0.813  10.786  19.915  0.00  0.00    +0.000 A 
ATOM      6  C   UNL     1      -0.108  12.030  20.000  0.00  0.00    +0.000 A 
ENDROOT
BRANCH   1  11
ATOM      7  C   UNL     1       2.473  16.451  19.285  0.00  0.00    +0.000 A 
ATOM      8  C   UNL     1       1.144  16.524  19.673  0.00  0.00    +0.000 A 
ATOM      9  C   UNL     1       0.288  15.406  19.584  0.00  0.00    +0.000 A 
ATOM     10  C   UNL     1      -1.122  15.644  20.071  0.00  0.00    +0.000 C 
ATOM     11  C   UNL     1       0.766  14.175  19.050  0.00  0.00    +0.000 A 
ATOM     12  C   UNL     1       2.126  14.130  18.616  0.00  0.00    +0.000 A 
ATOM     13  C   UNL     1       2.798  12.939  17.972  0.00  0.00    +0.000 C 
ATOM     14  C   UNL     1       2.959  15.265  18.764  0.00  0.00    +0.000 A 
BRANCH   7  15
ATOM     15  O   UNL     1       3.376  17.475  19.365  0.00  0.00    +0.000 OA
BRANCH  15  16
ATOM     16  C   UNL     1       3.964  17.665  20.650  0.00  0.00    +0.000 C 
BRANCH  16  17
ATOM     17  C   UNL     1       5.436  17.980  20.474  0.00  0.00    +0.000 C 
BRANCH  17  18
ATOM     18  O   UNL     1       5.788  17.783  19.107  0.00  0.00    +0.000 OA
BRANCH  18  20
ATOM     19  C   UNL     1       8.118  17.303  19.282  0.00  0.00    +0.000 C 
ATOM     20  C   UNL     1       6.747  16.742  18.973  0.00  0.00    +0.000 C 
ENDBRANCH  18  20
ENDBRANCH  17  18
ENDBRANCH  16  17
ENDBRANCH  15  16
ENDBRANCH   7  15
ENDBRANCH   1  11
BRANCH   5  21
ATOM     21  C   UNL     1      -0.529   9.649  20.877  0.00  0.00    +0.000 C 
BRANCH  21  22
ATOM     22  O   UNL     1       0.854   9.444  20.964  0.00  0.00    +0.000 OA
BRANCH  22  23
ATOM     23  C   UNL     1       1.496   8.751  19.984  0.00  0.00    +0.000 A 
ATOM     24  C   UNL     1       1.757   8.966  18.630  0.00  0.00    +0.000 A 
ATOM     25  C   UNL     1       2.318   7.900  17.771  0.00  0.00    +0.000 A 
ATOM     26  C   UNL     1       2.605   6.627  18.275  0.00  0.00    +0.000 A 
ATOM     27  C   UNL     1       2.416   6.576  19.648  0.00  0.00    +0.000 A 
ATOM     28  C   UNL     1       1.847   7.549  20.471  0.00  0.00    +0.000 A 
ATOM     29  C   UNL     1       2.609   5.348  20.383  0.00  0.00    +0.000 C 
ATOM     30  C   UNL     1       2.572   3.926  20.058  0.00  0.00    +0.000 C 
ATOM     31  C   UNL     1       2.990   3.679  18.601  0.00  0.00    +0.000 C 
ATOM     32  C   UNL     1       3.113   5.215  17.706  0.00  0.00    +0.000 C 
BRANCH  31  33
ATOM     33  C   UNL     1       3.482   2.254  19.106  0.00  0.00    +0.000 C 
ATOM     34  O   UNL     1       4.414   2.087  19.891  0.00  0.00    +0.000 OA
BRANCH  33  35
ATOM     35  O   UNL     1       3.038   1.194  18.356  0.00  0.00    +0.000 OA
ATOM     36  H   UNL     1       3.152   0.312  18.761  0.00  0.00    +0.000 HD
ENDBRANCH  33  35
ENDBRANCH  31  33
ENDBRANCH  22  23
ENDBRANCH  21  22
ENDBRANCH   5  21
TORSDOF 11
ENDMDL
MODEL 8
REMARK VINA RESULT:      -7.1      3.150      7.401
REMARK  Name = 
REMARK  14 active torsions:
REMARK  status: ('A' for Active; 'I' for Inactive)
REMARK    1  A    between atoms: C_1  and  C_2
REMARK    2  A    between atoms: C_2  and  O_3
REMARK    3  A    between atoms: O_3  and  C_4
REMARK    4  A    between atoms: C_4  and  C_5
REMARK    5  A    between atoms: C_5  and  O_6
REMARK    6  A    between atoms: O_6  and  C_7
REMARK    7  A    between atoms: C_9  and  C_10
REMARK    8  A    between atoms: C_11  and  C_12
REMARK    9  A    between atoms: C_16  and  C_17
REMARK   10  A    between atoms: C_17  and  O_18
REMARK   11  A    between atoms: O_18  and  C_19
REMARK   12  A    between atoms: C_27  and  C_28
REMARK   13  A    between atoms: C_28  and  O_30
REMARK   14  A    between atoms: C_33  and  C_34
REMARK                            x       y       z     vdW  Elec       q    Type
REMARK                         _______ _______ _______ _____ _____    ______ ____
ROOT
ATOM      1  C   UNL     1       2.690   6.870  18.658  0.00  0.00    +0.000 A 
ATOM      2  C   UNL     1       2.420   6.638  20.022  0.00  0.00    +0.000 A 
ATOM      3  C   UNL     1       1.628   7.543  20.766  0.00  0.00    +0.000 A 
ATOM      4  C   UNL     1       1.200   8.770  20.150  0.00  0.00    +0.000 A 
ATOM      5  C   UNL     1       1.561   9.050  18.833  0.00  0.00    +0.000 A 
ATOM      6  C   UNL     1       2.209   8.019  18.080  0.00  0.00    +0.000 A 
ENDROOT
BRANCH   1  11
ATOM      7  C   UNL     1       4.997   4.070  16.244  0.00  0.00    +0.000 A 
ATOM      8  C   UNL     1       3.750   3.715  16.733  0.00  0.00    +0.000 A 
ATOM      9  C   UNL     1       2.986   4.605  17.517  0.00  0.00    +0.000 A 
ATOM     10  C   UNL     1       1.638   4.075  17.949  0.00  0.00    +0.000 C 
ATOM     11  C   UNL     1       3.503   5.886  17.862  0.00  0.00    +0.000 A 
ATOM     12  C   UNL     1       4.807   6.219  17.384  0.00  0.00    +0.000 A 
ATOM     13  C   UNL     1       5.548   7.500  17.690  0.00  0.00    +0.000 C 
ATOM     14  C   UNL     1       5.519   5.311  16.565  0.00  0.00    +0.000 A 
BRANCH   7  15
ATOM     15  O   UNL     1       5.789   3.282  15.454  0.00  0.00    +0.000 OA
BRANCH  15  16
ATOM     16  C   UNL     1       6.573   3.985  14.492  0.00  0.00    +0.000 C 
BRANCH  16  17
ATOM     17  C   UNL     1       5.825   4.011  13.175  0.00  0.00    +0.000 C 
BRANCH  17  18
ATOM     18  O   UNL     1       6.477   3.134  12.259  0.00  0.00    +0.000 OA
BRANCH  18  20
ATOM     19  C   UNL     1       4.249   3.113  11.406  0.00  0.00    +0.000 C 
ATOM     20  C   UNL     1       5.532   2.327  11.566  0.00  0.00    +0.000 C 
ENDBRANCH  18  20
ENDBRANCH  17  18
ENDBRANCH  16  17
ENDBRANCH  15  16
ENDBRANCH   7  15
ENDBRANCH   1  11
BRANCH   5  21
ATOM     21  C   UNL     1       1.343  10.434  18.252  0.00  0.00    +0.000 C 
BRANCH  21  22
ATOM     22  O   UNL     1       0.054  10.878  18.572  0.00  0.00    +0.000 OA
BRANCH  22  23
ATOM     23  C   UNL     1      -0.118  11.793  19.564  0.00  0.00    +0.000 A 
ATOM     24  C   UNL     1       0.722  12.421  20.487  0.00  0.00    +0.000 A 
ATOM     25  C   UNL     1       0.180  13.236  21.596  0.00  0.00    +0.000 A 
ATOM     26  C   UNL     1      -1.196  13.410  21.775  0.00  0.00    +0.000 A 
ATOM     27  C   UNL     1      -1.913  12.842  20.733  0.00  0.00    +0.000 A 
ATOM     28  C   UNL     1      -1.433  12.031  19.703  0.00  0.00    +0.000 A 
ATOM     29  C   UNL     1      -3.357  12.858  20.724  0.00  0.00    +0.000 C 
ATOM     30  C   UNL     1      -4.401  12.961  21.740  0.00  0.00    +0.000 C 
ATOM     31  C   UNL     1      -3.923  13.783  22.946  0.00  0.00    +0.000 C 
ATOM     32  C   UNL     1      -2.173  14.103  22.842  0.00  0.00    +0.000 C 
BRANCH  31  33
ATOM     33  C   UNL     1      -5.454  14.157  23.150  0.00  0.00    +0.000 C 
ATOM     34  O   UNL     1      -6.370  13.699  22.468  0.00  0.00    +0.000 OA
BRANCH  33  35
ATOM     35  O   UNL     1      -5.675  15.283  23.903  0.00  0.00    +0.000 OA
ATOM     36  H   UNL     1      -6.560  15.687  23.811  0.00  0.00    +0.000 HD
ENDBRANCH  33  35
ENDBRANCH  31  33
ENDBRANCH  22  23
ENDBRANCH  21  22
ENDBRANCH   5  21
TORSDOF 11
ENDMDL
MODEL 9
REMARK VINA RESULT:      -7.0      2.219      5.112
REMARK  Name = 
REMARK  14 active torsions:
REMARK  status: ('A' for Active; 'I' for Inactive)
REMARK    1  A    between atoms: C_1  and  C_2
REMARK    2  A    between atoms: C_2  and  O_3
REMARK    3  A    between atoms: O_3  and  C_4
REMARK    4  A    between atoms: C_4  and  C_5
REMARK    5  A    between atoms: C_5  and  O_6
REMARK    6  A    between atoms: O_6  and  C_7
REMARK    7  A    between atoms: C_9  and  C_10
REMARK    8  A    between atoms: C_11  and  C_12
REMARK    9  A    between atoms: C_16  and  C_17
REMARK   10  A    between atoms: C_17  and  O_18
REMARK   11  A    between atoms: O_18  and  C_19
REMARK   12  A    between atoms: C_27  and  C_28
REMARK   13  A    between atoms: C_28  and  O_30
REMARK   14  A    between atoms: C_33  and  C_34
REMARK                            x       y       z     vdW  Elec       q    Type
REMARK                         _______ _______ _______ _____ _____    ______ ____
ROOT
ATOM      1  C   UNL     1       0.398  10.113  19.215  0.00  0.00    +0.000 A 
ATOM      2  C   UNL     1       0.974  11.350  19.572  0.00  0.00    +0.000 A 
ATOM      3  C   UNL     1       0.340  12.567  19.230  0.00  0.00    +0.000 A 
ATOM      4  C   UNL     1      -0.837  12.537  18.405  0.00  0.00    +0.000 A 
ATOM      5  C   UNL     1      -1.343  11.316  17.960  0.00  0.00    +0.000 A 
ATOM      6  C   UNL     1      -0.763  10.117  18.485  0.00  0.00    +0.000 A 
ENDROOT
BRANCH   1  11
ATOM      7  C   UNL     1       2.218   6.305  20.303  0.00  0.00    +0.000 A 
ATOM      8  C   UNL     1       1.322   6.928  21.159  0.00  0.00    +0.000 A 
ATOM      9  C   UNL     1       0.722   8.160  20.828  0.00  0.00    +0.000 A 
ATOM     10  C   UNL     1      -0.249   8.691  21.856  0.00  0.00    +0.000 C 
ATOM     11  C   UNL     1       1.058   8.821  19.612  0.00  0.00    +0.000 A 
ATOM     12  C   UNL     1       2.014   8.186  18.761  0.00  0.00    +0.000 A 
ATOM     13  C   UNL     1       2.541   8.754  17.463  0.00  0.00    +0.000 C 
ATOM     14  C   UNL     1       2.558   6.928  19.115  0.00  0.00    +0.000 A 
BRANCH   7  15
ATOM     15  O   UNL     1       2.821   5.098  20.531  0.00  0.00    +0.000 OA
BRANCH  15  16
ATOM     16  C   UNL     1       2.008   4.131  21.190  0.00  0.00    +0.000 C 
BRANCH  16  17
ATOM     17  C   UNL     1       1.750   2.978  20.241  0.00  0.00    +0.000 C 
BRANCH  17  18
ATOM     18  O   UNL     1       2.987   2.584  19.651  0.00  0.00    +0.000 OA
BRANCH  18  20
ATOM     19  C   UNL     1       2.308   3.318  17.485  0.00  0.00    +0.000 C 
ATOM     20  C   UNL     1       2.795   2.147  18.311  0.00  0.00    +0.000 C 
ENDBRANCH  18  20
ENDBRANCH  17  18
ENDBRANCH  16  17
ENDBRANCH  15  16
ENDBRANCH   7  15
ENDBRANCH   1  11
BRANCH   5  21
ATOM     21  C   UNL     1      -2.418  11.272  16.891  0.00  0.00    +0.000 C 
BRANCH  21  22
ATOM     22  O   UNL     1      -3.583  10.706  17.422  0.00  0.00    +0.000 OA
BRANCH  22  23
ATOM     23  C   UNL     1      -4.639  11.505  17.738  0.00  0.00    +0.000 A 
ATOM     24  C   UNL     1      -5.507  12.328  17.016  0.00  0.00    +0.000 A 
ATOM     25  C   UNL     1      -6.446  13.246  17.696  0.00  0.00    +0.000 A 
ATOM     26  C   UNL     1      -6.505  13.337  19.090  0.00  0.00    +0.000 A 
ATOM     27  C   UNL     1      -5.686  12.391  19.689  0.00  0.00    +0.000 A 
ATOM     28  C   UNL     1      -4.759  11.547  19.075  0.00  0.00    +0.000 A 
ATOM     29  C   UNL     1      -5.549  12.324  21.125  0.00  0.00    +0.000 C 
ATOM     30  C   UNL     1      -5.723  13.262  22.230  0.00  0.00    +0.000 C 
ATOM     31  C   UNL     1      -6.794  14.313  21.902  0.00  0.00    +0.000 C 
ATOM     32  C   UNL     1      -7.272  14.219  20.188  0.00  0.00    +0.000 C 
BRANCH  31  33
ATOM     33  C   UNL     1      -7.037  14.386  23.472  0.00  0.00    +0.000 C 
ATOM     34  O   UNL     1      -7.916  15.065  24.000  0.00  0.00    +0.000 OA
BRANCH  33  35
ATOM     35  O   UNL     1      -5.996  13.922  24.237  0.00  0.00    +0.000 OA
ATOM     36  H   UNL     1      -5.409  13.272  23.803  0.00  0.00    +0.000 HD
ENDBRANCH  33  35
ENDBRANCH  31  33
ENDBRANCH  22  23
ENDBRANCH  21  22
ENDBRANCH   5  21
TORSDOF 11
ENDMDL
