MODEL 1
REMARK VINA RESULT:      -8.3      0.000      0.000
REMARK  Name = 
REMARK  6 active torsions:
REMARK  status: ('A' for Active; 'I' for Inactive)
REMARK    1  A    between atoms: C_1  and  C_2
REMARK    2  A    between atoms: C_2  and  C_3
REMARK    3  A    between atoms: C_2  and  N_4
REMARK    4  A    between atoms: N_8  and  C_9
REMARK    5  A    between atoms: C_11  and  C_12
REMARK    6  A    between atoms: N_23  and  C_24
REMARK                            x       y       z     vdW  Elec       q    Type
REMARK                         _______ _______ _______ _____ _____    ______ ____
ROOT
ATOM      1  C   UNL     1       4.425   5.873  18.644  0.00  0.00    +0.000 A 
ATOM      2  N   UNL     1       3.568   6.897  18.955  0.00  0.00    +0.000 NA
ATOM      3  C   UNL     1       2.485   6.689  19.746  0.00  0.00    +0.000 A 
ATOM      4  N   UNL     1       2.102   5.510  20.265  0.00  0.00    +0.000 NA
ATOM      5  C   UNL     1       2.922   4.511  19.916  0.00  0.00    +0.000 A 
ATOM      6  C   UNL     1       4.064   4.602  19.140  0.00  0.00    +0.000 A 
ATOM      7  C   UNL     1       4.520   3.262  19.083  0.00  0.00    +0.000 A 
ATOM      8  N   UNL     1       3.754   2.404  19.764  0.00  0.00    +0.000 NA
ATOM      9  N   UNL     1       2.784   3.197  20.263  0.00  0.00    +0.000 N 
ATOM     10  C   UNL     1       1.723   2.634  21.058  0.00  0.00    +0.000 C 
ENDROOT
BRANCH   1  15
ATOM     11  N   UNL     1       6.667   4.997  15.252  0.00  0.00    +0.000 NA
ATOM     12  C   UNL     1       6.814   4.101  16.421  0.00  0.00    +0.000 C 
ATOM     13  C   UNL     1       7.532   4.686  17.639  0.00  0.00    +0.000 C 
ATOM     14  C   UNL     1       6.906   5.891  18.328  0.00  0.00    +0.000 C 
ATOM     15  N   UNL     1       5.548   6.152  17.889  0.00  0.00    +0.000 N 
ATOM     16  C   UNL     1       5.444   6.866  16.613  0.00  0.00    +0.000 C 
ATOM     17  C   UNL     1       5.500   5.912  15.396  0.00  0.00    +0.000 C 
BRANCH  11  19
ATOM     18  C   UNL     1       5.147   3.894  13.503  0.00  0.00    +0.000 C 
ATOM     19  C   UNL     1       6.576   4.175  14.002  0.00  0.00    +0.000 C 
ATOM     20  C   UNL     1       7.414   4.744  12.847  0.00  0.00    +0.000 C 
ENDBRANCH  11  19
ENDBRANCH   1  15
BRANCH   3  21
ATOM     21  C   UNL     1       1.630   7.844  20.070  0.00  0.00    +0.000 A 
ATOM     22  C   UNL     1       0.947   7.952  21.295  0.00  0.00    +0.000 A 
ATOM     23  C   UNL     1       0.120   9.041  21.567  0.00  0.00    +0.000 A 
ATOM     24  C   UNL     1      -0.008  10.017  20.598  0.00  0.00    +0.000 A 
ATOM     25  N   UNL     1       0.635   9.978  19.414  0.00  0.00    +0.000 NA
ATOM     26  C   UNL     1       1.434   8.900  19.182  0.00  0.00    +0.000 A 
ENDBRANCH   3  21
TORSDOF 3
ENDMDL
MODEL 2
REMARK VINA RESULT:      -8.0      0.849      1.149
REMARK  Name = 
REMARK  6 active torsions:
REMARK  status: ('A' for Active; 'I' for Inactive)
REMARK    1  A    between atoms: C_1  and  C_2
REMARK    2  A    between atoms: C_2  and  C_3
REMARK    3  A    between atoms: C_2  and  N_4
REMARK    4  A    between atoms: N_8  and  C_9
REMARK    5  A    between atoms: C_11  and  C_12
REMARK    6  A    between atoms: N_23  and  C_24
REMARK                            x       y       z     vdW  Elec       q    Type
REMARK                         _______ _______ _______ _____ _____    ______ ____
ROOT
ATOM      1  C   UNL     1       4.323   5.805  17.984  0.00  0.00    +0.000 A 
ATOM      2  N   UNL     1       3.580   6.871  18.422  0.00  0.00    +0.000 NA
ATOM      3  C   UNL     1       2.531   6.695  19.264  0.00  0.00    +0.000 A 
ATOM      4  N   UNL     1       2.074   5.517  19.720  0.00  0.00    +0.000 NA
ATOM      5  C   UNL     1       2.781   4.482  19.248  0.00  0.00    +0.000 A 
ATOM      6  C   UNL     1       3.878   4.535  18.409  0.00  0.00    +0.000 A 
ATOM      7  C   UNL     1       4.209   3.169  18.226  0.00  0.00    +0.000 A 
ATOM      8  N   UNL     1       3.409   2.329  18.892  0.00  0.00    +0.000 NA
ATOM      9  N   UNL     1       2.545   3.161  19.508  0.00  0.00    +0.000 N 
ATOM     10  C   UNL     1       1.485   2.630  20.326  0.00  0.00    +0.000 C 
ENDROOT
BRANCH   1  15
ATOM     11  N   UNL     1       6.482   4.727  14.596  0.00  0.00    +0.000 NA
ATOM     12  C   UNL     1       6.673   3.915  15.818  0.00  0.00    +0.000 C 
ATOM     13  C   UNL     1       7.417   4.588  16.974  0.00  0.00    +0.000 C 
ATOM     14  C   UNL     1       6.794   5.830  17.597  0.00  0.00    +0.000 C 
ATOM     15  N   UNL     1       5.421   6.045  17.180  0.00  0.00    +0.000 N 
ATOM     16  C   UNL     1       5.273   6.670  15.862  0.00  0.00    +0.000 C 
ATOM     17  C   UNL     1       5.308   5.637  14.712  0.00  0.00    +0.000 C 
BRANCH  11  19
ATOM     18  C   UNL     1       4.938   3.601  12.885  0.00  0.00    +0.000 C 
ATOM     19  C   UNL     1       6.369   3.821  13.408  0.00  0.00    +0.000 C 
ATOM     20  C   UNL     1       7.275   4.243  12.242  0.00  0.00    +0.000 C 
ENDBRANCH  11  19
ENDBRANCH   1  15
BRANCH   3  21
ATOM     21  C   UNL     1       1.803   7.891  19.725  0.00  0.00    +0.000 A 
ATOM     22  C   UNL     1       1.522   8.974  18.873  0.00  0.00    +0.000 A 
ATOM     23  C   UNL     1       0.857  10.106  19.340  0.00  0.00    +0.000 A 
ATOM     24  C   UNL     1       0.477  10.134  20.668  0.00  0.00    +0.000 A 
ATOM     25  N   UNL     1       0.701   9.120  21.527  0.00  0.00    +0.000 NA
ATOM     26  C   UNL     1       1.353   8.030  21.037  0.00  0.00    +0.000 A 
ENDBRANCH   3  21
TORSDOF 3
ENDMDL
MODEL 3
REMARK VINA RESULT:      -6.9      2.802      7.475
REMARK  Name = 
REMARK  6 active torsions:
REMARK  status: ('A' for Active; 'I' for Inactive)
REMARK    1  A    between atoms: C_1  and  C_2
REMARK    2  A    between atoms: C_2  and  C_3
REMARK    3  A    between atoms: C_2  and  N_4
REMARK    4  A    between atoms: N_8  and  C_9
REMARK    5  A    between atoms: C_11  and  C_12
REMARK    6  A    between atoms: N_23  and  C_24
REMARK                            x       y       z     vdW  Elec       q    Type
REMARK                         _______ _______ _______ _____ _____    ______ ____
ROOT
ATOM      1  C   UNL     1       4.868   3.693  17.052  0.00  0.00    +0.000 A 
ATOM      2  N   UNL     1       5.299   3.832  15.758  0.00  0.00    +0.000 NA
ATOM      3  C   UNL     1       6.387   4.586  15.459  0.00  0.00    +0.000 A 
ATOM      4  N   UNL     1       7.120   5.296  16.334  0.00  0.00    +0.000 NA
ATOM      5  C   UNL     1       6.661   5.186  17.586  0.00  0.00    +0.000 A 
ATOM      6  C   UNL     1       5.583   4.434  18.017  0.00  0.00    +0.000 A 
ATOM      7  C   UNL     1       5.543   4.697  19.409  0.00  0.00    +0.000 A 
ATOM      8  N   UNL     1       6.507   5.525  19.826  0.00  0.00    +0.000 NA
ATOM      9  N   UNL     1       7.175   5.808  18.690  0.00  0.00    +0.000 N 
ATOM     10  C   UNL     1       8.299   6.708  18.713  0.00  0.00    +0.000 C 
ENDROOT
BRANCH   1  15
ATOM     11  N   UNL     1       1.673   2.775  19.552  0.00  0.00    +0.000 NA
ATOM     12  C   UNL     1       3.021   2.329  19.970  0.00  0.00    +0.000 C 
ATOM     13  C   UNL     1       3.650   1.203  19.147  0.00  0.00    +0.000 C 
ATOM     14  C   UNL     1       3.921   1.462  17.671  0.00  0.00    +0.000 C 
ATOM     15  N   UNL     1       3.795   2.862  17.309  0.00  0.00    +0.000 N 
ATOM     16  C   UNL     1       2.417   3.318  17.104  0.00  0.00    +0.000 C 
ATOM     17  C   UNL     1       1.735   3.747  18.424  0.00  0.00    +0.000 C 
BRANCH  11  19
ATOM     18  C   UNL     1       1.309   2.711  22.091  0.00  0.00    +0.000 C 
ATOM     19  C   UNL     1       0.947   3.342  20.734  0.00  0.00    +0.000 C 
ATOM     20  C   UNL     1       1.065   4.870  20.837  0.00  0.00    +0.000 C 
ENDBRANCH  11  19
ENDBRANCH   1  15
BRANCH   3  21
ATOM     21  C   UNL     1       6.816   4.659  14.051  0.00  0.00    +0.000 A 
ATOM     22  C   UNL     1       6.352   3.756  13.077  0.00  0.00    +0.000 A 
ATOM     23  C   UNL     1       6.796   3.827  11.758  0.00  0.00    +0.000 A 
ATOM     24  C   UNL     1       7.705   4.814  11.430  0.00  0.00    +0.000 A 
ATOM     25  N   UNL     1       8.170   5.719  12.315  0.00  0.00    +0.000 NA
ATOM     26  C   UNL     1       7.716   5.620  13.594  0.00  0.00    +0.000 A 
ENDBRANCH   3  21
TORSDOF 3
ENDMDL
MODEL 4
REMARK VINA RESULT:      -6.7      3.614     10.279
REMARK  Name = 
REMARK  6 active torsions:
REMARK  status: ('A' for Active; 'I' for Inactive)
REMARK    1  A    between atoms: C_1  and  C_2
REMARK    2  A    between atoms: C_2  and  C_3
REMARK    3  A    between atoms: C_2  and  N_4
REMARK    4  A    between atoms: N_8  and  C_9
REMARK    5  A    between atoms: C_11  and  C_12
REMARK    6  A    between atoms: N_23  and  C_24
REMARK                            x       y       z     vdW  Elec       q    Type
REMARK                         _______ _______ _______ _____ _____    ______ ____
ROOT
ATOM      1  C   UNL     1      -0.363  11.152  20.341  0.00  0.00    +0.000 A 
ATOM      2  N   UNL     1       0.587  10.186  20.131  0.00  0.00    +0.000 NA
ATOM      3  C   UNL     1       0.631   9.487  18.970  0.00  0.00    +0.000 A 
ATOM      4  N   UNL     1      -0.228   9.606  17.943  0.00  0.00    +0.000 NA
ATOM      5  C   UNL     1      -1.176  10.522  18.180  0.00  0.00    +0.000 A 
ATOM      6  C   UNL     1      -1.311  11.311  19.307  0.00  0.00    +0.000 A 
ATOM      7  C   UNL     1      -2.474  12.071  19.030  0.00  0.00    +0.000 A 
ATOM      8  N   UNL     1      -3.020  11.803  17.839  0.00  0.00    +0.000 NA
ATOM      9  N   UNL     1      -2.204  10.851  17.342  0.00  0.00    +0.000 N 
ATOM     10  C   UNL     1      -2.472  10.268  16.052  0.00  0.00    +0.000 C 
ENDROOT
BRANCH   1  15
ATOM     11  N   UNL     1      -2.502  13.193  23.267  0.00  0.00    +0.000 NA
ATOM     12  C   UNL     1      -2.234  13.900  21.995  0.00  0.00    +0.000 C 
ATOM     13  C   UNL     1      -0.782  14.307  21.735  0.00  0.00    +0.000 C 
ATOM     14  C   UNL     1       0.262  13.204  21.629  0.00  0.00    +0.000 C 
ATOM     15  N   UNL     1      -0.323  11.880  21.514  0.00  0.00    +0.000 N 
ATOM     16  C   UNL     1      -0.767  11.296  22.783  0.00  0.00    +0.000 C 
ATOM     17  C   UNL     1      -2.199  11.737  23.167  0.00  0.00    +0.000 C 
BRANCH  11  19
ATOM     18  C   UNL     1      -4.934  13.547  22.532  0.00  0.00    +0.000 C 
ATOM     19  C   UNL     1      -3.920  13.437  23.685  0.00  0.00    +0.000 C 
ATOM     20  C   UNL     1      -4.428  12.415  24.713  0.00  0.00    +0.000 C 
ENDBRANCH  11  19
ENDBRANCH   1  15
BRANCH   3  21
ATOM     21  C   UNL     1       1.703   8.490  18.799  0.00  0.00    +0.000 A 
ATOM     22  C   UNL     1       2.533   8.468  17.663  0.00  0.00    +0.000 A 
ATOM     23  C   UNL     1       3.522   7.497  17.512  0.00  0.00    +0.000 A 
ATOM     24  C   UNL     1       3.667   6.556  18.511  0.00  0.00    +0.000 A 
ATOM     25  N   UNL     1       2.915   6.537  19.630  0.00  0.00    +0.000 NA
ATOM     26  C   UNL     1       1.960   7.500  19.746  0.00  0.00    +0.000 A 
ENDBRANCH   3  21
TORSDOF 3
ENDMDL
MODEL 5
REMARK VINA RESULT:      -6.5      1.526      2.875
REMARK  Name = 
REMARK  6 active torsions:
REMARK  status: ('A' for Active; 'I' for Inactive)
REMARK    1  A    between atoms: C_1  and  C_2
REMARK    2  A    between atoms: C_2  and  C_3
REMARK    3  A    between atoms: C_2  and  N_4
REMARK    4  A    between atoms: N_8  and  C_9
REMARK    5  A    between atoms: C_11  and  C_12
REMARK    6  A    between atoms: N_23  and  C_24
REMARK                            x       y       z     vdW  Elec       q    Type
REMARK                         _______ _______ _______ _____ _____    ______ ____
ROOT
ATOM      1  C   UNL     1       4.195   5.117  18.814  0.00  0.00    +0.000 A 
ATOM      2  N   UNL     1       3.484   6.274  19.004  0.00  0.00    +0.000 NA
ATOM      3  C   UNL     1       2.456   6.327  19.888  0.00  0.00    +0.000 A 
ATOM      4  N   UNL     1       1.992   5.302  20.622  0.00  0.00    +0.000 NA
ATOM      5  C   UNL     1       2.667   4.169  20.394  0.00  0.00    +0.000 A 
ATOM      6  C   UNL     1       3.742   3.995  19.540  0.00  0.00    +0.000 A 
ATOM      7  C   UNL     1       4.043   2.618  19.679  0.00  0.00    +0.000 A 
ATOM      8  N   UNL     1       3.249   1.979  20.545  0.00  0.00    +0.000 NA
ATOM      9  N   UNL     1       2.417   2.953  20.965  0.00  0.00    +0.000 N 
ATOM     10  C   UNL     1       1.373   2.656  21.912  0.00  0.00    +0.000 C 
ENDROOT
BRANCH   1  15
ATOM     11  N   UNL     1       7.484   7.210  17.364  0.00  0.00    +0.000 NA
ATOM     12  C   UNL     1       6.153   7.570  16.829  0.00  0.00    +0.000 C 
ATOM     13  C   UNL     1       5.484   6.539  15.917  0.00  0.00    +0.000 C 
ATOM     14  C   UNL     1       5.154   5.173  16.504  0.00  0.00    +0.000 C 
ATOM     15  N   UNL     1       5.273   5.134  17.950  0.00  0.00    +0.000 N 
ATOM     16  C   UNL     1       6.644   4.982  18.447  0.00  0.00    +0.000 C 
ATOM     17  C   UNL     1       7.382   6.336  18.567  0.00  0.00    +0.000 C 
BRANCH  11  19
ATOM     18  C   UNL     1       7.508   9.775  17.386  0.00  0.00    +0.000 C 
ATOM     19  C   UNL     1       8.262   8.459  17.650  0.00  0.00    +0.000 C 
ATOM     20  C   UNL     1       8.853   8.488  19.067  0.00  0.00    +0.000 C 
ENDBRANCH  11  19
ENDBRANCH   1  15
BRANCH   3  21
ATOM     21  C   UNL     1       1.762   7.615  20.069  0.00  0.00    +0.000 A 
ATOM     22  C   UNL     1       1.119   7.958  21.272  0.00  0.00    +0.000 A 
ATOM     23  C   UNL     1       0.444   9.170  21.409  0.00  0.00    +0.000 A 
ATOM     24  C   UNL     1       0.425  10.029  20.327  0.00  0.00    +0.000 A 
ATOM     25  N   UNL     1       1.038   9.764  19.156  0.00  0.00    +0.000 NA
ATOM     26  C   UNL     1       1.688   8.571  19.058  0.00  0.00    +0.000 A 
ENDBRANCH   3  21
TORSDOF 3
ENDMDL
MODEL 6
REMARK VINA RESULT:      -6.4      3.639     10.266
REMARK  Name = 
REMARK  6 active torsions:
REMARK  status: ('A' for Active; 'I' for Inactive)
REMARK    1  A    between atoms: C_1  and  C_2
REMARK    2  A    between atoms: C_2  and  C_3
REMARK    3  A    between atoms: C_2  and  N_4
REMARK    4  A    between atoms: N_8  and  C_9
REMARK    5  A    between atoms: C_11  and  C_12
REMARK    6  A    between atoms: N_23  and  C_24
REMARK                            x       y       z     vdW  Elec       q    Type
REMARK                         _______ _______ _______ _____ _____    ______ ____
ROOT
ATOM      1  C   UNL     1      -0.307  11.115  20.313  0.00  0.00    +0.000 A 
ATOM      2  N   UNL     1       0.634  10.142  20.096  0.00  0.00    +0.000 NA
ATOM      3  C   UNL     1       0.661   9.441  18.935  0.00  0.00    +0.000 A 
ATOM      4  N   UNL     1      -0.207   9.565  17.917  0.00  0.00    +0.000 NA
ATOM      5  C   UNL     1      -1.146  10.487  18.161  0.00  0.00    +0.000 A 
ATOM      6  C   UNL     1      -1.265  11.279  19.289  0.00  0.00    +0.000 A 
ATOM      7  C   UNL     1      -2.425  12.046  19.023  0.00  0.00    +0.000 A 
ATOM      8  N   UNL     1      -2.984  11.780  17.837  0.00  0.00    +0.000 NA
ATOM      9  N   UNL     1      -2.181  10.822  17.333  0.00  0.00    +0.000 N 
ATOM     10  C   UNL     1      -2.465  10.239  16.047  0.00  0.00    +0.000 C 
ENDROOT
BRANCH   1  15
ATOM     11  N   UNL     1      -2.401  13.193  23.245  0.00  0.00    +0.000 NA
ATOM     12  C   UNL     1      -2.129  13.894  21.971  0.00  0.00    +0.000 C 
ATOM     13  C   UNL     1      -0.672  14.279  21.704  0.00  0.00    +0.000 C 
ATOM     14  C   UNL     1       0.354  13.159  21.595  0.00  0.00    +0.000 C 
ATOM     15  N   UNL     1      -0.251  11.844  21.485  0.00  0.00    +0.000 N 
ATOM     16  C   UNL     1      -0.698  11.270  22.758  0.00  0.00    +0.000 C 
ATOM     17  C   UNL     1      -2.121  11.733  23.147  0.00  0.00    +0.000 C 
BRANCH  11  19
ATOM     18  C   UNL     1      -4.394  12.461  24.686  0.00  0.00    +0.000 C 
ATOM     19  C   UNL     1      -3.814  13.461  23.670  0.00  0.00    +0.000 C 
ATOM     20  C   UNL     1      -4.025  14.891  24.188  0.00  0.00    +0.000 C 
ENDBRANCH  11  19
ENDBRANCH   1  15
BRANCH   3  21
ATOM     21  C   UNL     1       1.725   8.437  18.755  0.00  0.00    +0.000 A 
ATOM     22  C   UNL     1       1.956   7.412  19.690  0.00  0.00    +0.000 A 
ATOM     23  C   UNL     1       2.988   6.492  19.512  0.00  0.00    +0.000 A 
ATOM     24  C   UNL     1       3.779   6.613  18.386  0.00  0.00    +0.000 A 
ATOM     25  N   UNL     1       3.594   7.561  17.446  0.00  0.00    +0.000 NA
ATOM     26  C   UNL     1       2.578   8.443  17.652  0.00  0.00    +0.000 A 
ENDBRANCH   3  21
TORSDOF 3
ENDMDL
MODEL 7
REMARK VINA RESULT:      -6.2      7.705     10.524
REMARK  Name = 
REMARK  6 active torsions:
REMARK  status: ('A' for Active; 'I' for Inactive)
REMARK    1  A    between atoms: C_1  and  C_2
REMARK    2  A    between atoms: C_2  and  C_3
REMARK    3  A    between atoms: C_2  and  N_4
REMARK    4  A    between atoms: N_8  and  C_9
REMARK    5  A    between atoms: C_11  and  C_12
REMARK    6  A    between atoms: N_23  and  C_24
REMARK                            x       y       z     vdW  Elec       q    Type
REMARK                         _______ _______ _______ _____ _____    ______ ____
ROOT
ATOM      1  C   UNL     1      -2.534  12.470  21.244  0.00  0.00    +0.000 A 
ATOM      2  N   UNL     1      -3.570  12.870  22.048  0.00  0.00    +0.000 NA
ATOM      3  C   UNL     1      -4.846  12.895  21.587  0.00  0.00    +0.000 A 
ATOM      4  N   UNL     1      -5.239  12.592  20.338  0.00  0.00    +0.000 NA
ATOM      5  C   UNL     1      -4.212  12.246  19.552  0.00  0.00    +0.000 A 
ATOM      6  C   UNL     1      -2.879  12.161  19.911  0.00  0.00    +0.000 A 
ATOM      7  C   UNL     1      -2.246  11.774  18.705  0.00  0.00    +0.000 A 
ATOM      8  N   UNL     1      -3.092  11.615  17.681  0.00  0.00    +0.000 NA
ATOM      9  N   UNL     1      -4.288  11.912  18.229  0.00  0.00    +0.000 N 
ATOM     10  C   UNL     1      -5.482  11.880  17.426  0.00  0.00    +0.000 C 
ENDROOT
BRANCH   1  15
ATOM     11  N   UNL     1       1.555  12.919  20.631  0.00  0.00    +0.000 NA
ATOM     12  C   UNL     1       0.925  11.666  20.160  0.00  0.00    +0.000 C 
ATOM     13  C   UNL     1       0.453  10.694  21.243  0.00  0.00    +0.000 C 
ATOM     14  C   UNL     1      -0.627  11.167  22.206  0.00  0.00    +0.000 C 
ATOM     15  N   UNL     1      -1.264  12.401  21.783  0.00  0.00    +0.000 N 
ATOM     16  C   UNL     1      -0.502  13.616  22.087  0.00  0.00    +0.000 C 
ATOM     17  C   UNL     1       0.541  13.949  20.995  0.00  0.00    +0.000 C 
BRANCH  11  19
ATOM     18  C   UNL     1       2.451  12.683  18.238  0.00  0.00    +0.000 C 
ATOM     19  C   UNL     1       2.507  13.422  19.588  0.00  0.00    +0.000 C 
ATOM     20  C   UNL     1       2.387  14.934  19.344  0.00  0.00    +0.000 C 
ENDBRANCH  11  19
ENDBRANCH   1  15
BRANCH   3  21
ATOM     21  C   UNL     1      -5.914  13.298  22.519  0.00  0.00    +0.000 A 
ATOM     22  C   UNL     1      -5.984  14.592  23.066  0.00  0.00    +0.000 A 
ATOM     23  C   UNL     1      -6.988  14.940  23.968  0.00  0.00    +0.000 A 
ATOM     24  C   UNL     1      -7.917  13.977  24.310  0.00  0.00    +0.000 A 
ATOM     25  N   UNL     1      -7.912  12.727  23.805  0.00  0.00    +0.000 NA
ATOM     26  C   UNL     1      -6.918  12.422  22.927  0.00  0.00    +0.000 A 
ENDBRANCH   3  21
TORSDOF 3
ENDMDL
MODEL 8
REMARK VINA RESULT:      -6.2      5.952     11.134
REMARK  Name = 
REMARK  6 active torsions:
REMARK  status: ('A' for Active; 'I' for Inactive)
REMARK    1  A    between atoms: C_1  and  C_2
REMARK    2  A    between atoms: C_2  and  C_3
REMARK    3  A    between atoms: C_2  and  N_4
REMARK    4  A    between atoms: N_8  and  C_9
REMARK    5  A    between atoms: C_11  and  C_12
REMARK    6  A    between atoms: N_23  and  C_24
REMARK                            x       y       z     vdW  Elec       q    Type
REMARK                         _______ _______ _______ _____ _____    ______ ____
ROOT
ATOM      1  C   UNL     1      -1.641  12.067  21.082  0.00  0.00    +0.000 A 
ATOM      2  N   UNL     1      -2.225  11.916  19.851  0.00  0.00    +0.000 NA
ATOM      3  C   UNL     1      -1.851  10.916  19.016  0.00  0.00    +0.000 A 
ATOM      4  N   UNL     1      -0.881  10.015  19.248  0.00  0.00    +0.000 NA
ATOM      5  C   UNL     1      -0.289  10.201  20.434  0.00  0.00    +0.000 A 
ATOM      6  C   UNL     1      -0.596  11.165  21.377  0.00  0.00    +0.000 A 
ATOM      7  C   UNL     1       0.339  10.912  22.411  0.00  0.00    +0.000 A 
ATOM      8  N   UNL     1       1.154   9.882  22.158  0.00  0.00    +0.000 NA
ATOM      9  N   UNL     1       0.746   9.467  20.941  0.00  0.00    +0.000 N 
ATOM     10  C   UNL     1       1.405   8.363  20.293  0.00  0.00    +0.000 C 
ENDROOT
BRANCH   1  15
ATOM     11  N   UNL     1      -4.932  14.023  22.707  0.00  0.00    +0.000 NA
ATOM     12  C   UNL     1      -4.520  14.398  21.336  0.00  0.00    +0.000 C 
ATOM     13  C   UNL     1      -3.204  15.168  21.208  0.00  0.00    +0.000 C 
ATOM     14  C   UNL     1      -1.926  14.482  21.671  0.00  0.00    +0.000 C 
ATOM     15  N   UNL     1      -2.104  13.063  21.921  0.00  0.00    +0.000 N 
ATOM     16  C   UNL     1      -2.710  12.741  23.216  0.00  0.00    +0.000 C 
ATOM     17  C   UNL     1      -4.255  12.779  23.170  0.00  0.00    +0.000 C 
BRANCH  11  19
ATOM     18  C   UNL     1      -7.103  13.543  21.427  0.00  0.00    +0.000 C 
ATOM     19  C   UNL     1      -6.424  13.898  22.763  0.00  0.00    +0.000 C 
ATOM     20  C   UNL     1      -6.905  12.926  23.851  0.00  0.00    +0.000 C 
ENDBRANCH  11  19
ENDBRANCH   1  15
BRANCH   3  21
ATOM     21  C   UNL     1      -2.550  10.791  17.724  0.00  0.00    +0.000 A 
ATOM     22  C   UNL     1      -2.090   9.942  16.701  0.00  0.00    +0.000 A 
ATOM     23  C   UNL     1      -2.753   9.864  15.477  0.00  0.00    +0.000 A 
ATOM     24  C   UNL     1      -3.879  10.643  15.297  0.00  0.00    +0.000 A 
ATOM     25  N   UNL     1      -4.378  11.460  16.246  0.00  0.00    +0.000 NA
ATOM     26  C   UNL     1      -3.706  11.512  17.429  0.00  0.00    +0.000 A 
ENDBRANCH   3  21
TORSDOF 3
ENDMDL
MODEL 9
REMARK VINA RESULT:      -6.1      3.391      9.181
REMARK  Name = 
REMARK  6 active torsions:
REMARK  status: ('A' for Active; 'I' for Inactive)
REMARK    1  A    between atoms: C_1  and  C_2
REMARK    2  A    between atoms: C_2  and  C_3
REMARK    3  A    between atoms: C_2  and  N_4
REMARK    4  A    between atoms: N_8  and  C_9
REMARK    5  A    between atoms: C_11  and  C_12
REMARK    6  A    between atoms: N_23  and  C_24
REMARK                            x       y       z     vdW  Elec       q    Type
REMARK                         _______ _______ _______ _____ _____    ______ ____
ROOT
ATOM      1  C   UNL     1      -0.464  10.335  19.398  0.00  0.00    +0.000 A 
ATOM      2  N   UNL     1       0.481   9.470  18.910  0.00  0.00    +0.000 NA
ATOM      3  C   UNL     1       1.231   8.708  19.744  0.00  0.00    +0.000 A 
ATOM      4  N   UNL     1       1.185   8.728  21.088  0.00  0.00    +0.000 NA
ATOM      5  C   UNL     1       0.290   9.609  21.551  0.00  0.00    +0.000 A 
ATOM      6  C   UNL     1      -0.545  10.421  20.805  0.00  0.00    +0.000 A 
ATOM      7  C   UNL     1      -1.254  11.146  21.793  0.00  0.00    +0.000 A 
ATOM      8  N   UNL     1      -0.915  10.822  23.045  0.00  0.00    +0.000 NA
ATOM      9  N   UNL     1       0.033   9.879  22.866  0.00  0.00    +0.000 N 
ATOM     10  C   UNL     1       0.682   9.278  24.001  0.00  0.00    +0.000 C 
ENDROOT
BRANCH   1  15
ATOM     11  N   UNL     1      -4.259  11.705  18.391  0.00  0.00    +0.000 NA
ATOM     12  C   UNL     1      -3.934  10.296  18.078  0.00  0.00    +0.000 C 
ATOM     13  C   UNL     1      -2.920  10.065  16.956  0.00  0.00    +0.000 C 
ATOM     14  C   UNL     1      -1.511  10.609  17.143  0.00  0.00    +0.000 C 
ATOM     15  N   UNL     1      -1.245  11.040  18.503  0.00  0.00    +0.000 N 
ATOM     16  C   UNL     1      -1.769  12.368  18.837  0.00  0.00    +0.000 C 
ATOM     17  C   UNL     1      -3.246  12.323  19.293  0.00  0.00    +0.000 C 
BRANCH  11  19
ATOM     18  C   UNL     1      -6.478  10.498  18.841  0.00  0.00    +0.000 C 
ATOM     19  C   UNL     1      -5.639  11.782  18.972  0.00  0.00    +0.000 C 
ATOM     20  C   UNL     1      -5.650  12.248  20.435  0.00  0.00    +0.000 C 
ENDBRANCH  11  19
ENDBRANCH   1  15
BRANCH   3  21
ATOM     21  C   UNL     1       2.200   7.771  19.148  0.00  0.00    +0.000 A 
ATOM     22  C   UNL     1       2.883   8.059  17.952  0.00  0.00    +0.000 A 
ATOM     23  C   UNL     1       3.773   7.144  17.392  0.00  0.00    +0.000 A 
ATOM     24  C   UNL     1       3.969   5.944  18.047  0.00  0.00    +0.000 A 
ATOM     25  N   UNL     1       3.358   5.620  19.204  0.00  0.00    +0.000 NA
ATOM     26  C   UNL     1       2.496   6.536  19.722  0.00  0.00    +0.000 A 
ENDBRANCH   3  21
TORSDOF 3
ENDMDL
